REMARK  Name = ZINC15942247
REMARK  7 active torsions:
REMARK  status: ('A' for Active; 'I' for Inactive)
REMARK    1  A    between atoms: C_8  and  N_26
REMARK    2  A    between atoms: C_9  and  S_11
REMARK    3  A    between atoms: S_11  and  C_12
REMARK    4  A    between atoms: C_12  and  C_13
REMARK    5  A    between atoms: N_15  and  C_16
REMARK    6  A    between atoms: C_19  and  S_22
REMARK    7  A    between atoms: S_22  and  N_25
REMARK                            x       y       z     vdW  Elec       q    Type
REMARK                         _______ _______ _______ _____ _____    ______ ____
ROOT
ATOM      1  S   UNL     1       5.107  -2.731  -0.077  0.00  0.00    -0.093 S 
ENDROOT
BRANCH   1  10
ATOM      2  C   UNL     1      -0.113   1.350  -0.036  0.00  0.00    +0.002 A 
ATOM      3  C   UNL     1       1.069   2.085  -0.039  0.00  0.00    +0.002 A 
ATOM      4  C   UNL     1       2.280   1.462  -0.048  0.00  0.00    +0.030 A 
ATOM      5  C   UNL     1       2.342   0.059  -0.053  0.00  0.00    +0.091 A 
ATOM      6  C   UNL     1       1.140  -0.688  -0.050  0.00  0.00    +0.091 A 
ATOM      7  C   UNL     1      -0.090  -0.012  -0.041  0.00  0.00    +0.030 A 
ATOM      8  N   UNL     1       1.188  -2.029  -0.054  0.00  0.00    -0.228 NA
ATOM      9  C   UNL     1       2.353  -2.642  -0.063  0.00  0.00    +0.154 A 
ATOM     10  C   UNL     1       3.556  -1.895  -0.066  0.00  0.00    +0.138 A 
ATOM     11  N   UNL     1       3.523  -0.577  -0.062  0.00  0.00    -0.235 NA
BRANCH   9  12
ATOM     12  N   UNL     1       2.403  -4.027  -0.067  0.00  0.00    -0.309 N 
ATOM     13  C   UNL     1       2.539  -4.785   1.187  0.00  0.00    +0.134 C 
ATOM     14  C   UNL     1       1.452  -5.865   1.220  0.00  0.00    +0.178 C 
ATOM     15  O   UNL     1       1.508  -6.625   0.011  0.00  0.00    -0.377 OA
ATOM     16  C   UNL     1       1.244  -5.865  -1.171  0.00  0.00    +0.178 C 
ATOM     17  C   UNL     1       2.314  -4.785  -1.326  0.00  0.00    +0.134 C 
ENDBRANCH   9  12
ENDBRANCH   1  10
BRANCH   1  18
ATOM     18  C   UNL     1       6.329  -1.391  -0.079  0.00  0.00    +0.172 C 
BRANCH  18  19
ATOM     19  C   UNL     1       7.717  -1.977  -0.087  0.00  0.00    +0.227 C 
ATOM     20  O   UNL     1       7.867  -3.180  -0.092  0.00  0.00    -0.275 OA
ATOM     21  N   UNL     1       8.792  -1.163  -0.090  0.00  0.00    -0.285 N 
ATOM     22  H   UNL     1       8.674  -0.204  -0.009  0.00  0.00    +0.155 HD
BRANCH  21  23
ATOM     23  C   UNL     1      10.077  -1.703  -0.211  0.00  0.00    +0.034 A 
ATOM     24  C   UNL     1      11.143  -1.120   0.462  0.00  0.00    +0.025 A 
ATOM     25  C   UNL     1      12.410  -1.655   0.341  0.00  0.00    +0.030 A 
ATOM     26  C   UNL     1      12.619  -2.770  -0.450  0.00  0.00    +0.105 A 
ATOM     27  C   UNL     1      11.560  -3.352  -1.122  0.00  0.00    +0.030 A 
ATOM     28  C   UNL     1      10.289  -2.826  -1.000  0.00  0.00    +0.025 A 
BRANCH  26  29
ATOM     29  S   UNL     1      14.238  -3.449  -0.602  0.00  0.00    +0.056 S 
ATOM     30  O   UNL     1      14.265  -4.162  -1.831  0.00  0.00    -0.153 OA
ATOM     31  O   UNL     1      15.148  -2.398  -0.311  0.00  0.00    -0.153 OA
BRANCH  29  32
ATOM     32  N   UNL     1      14.412  -4.573   0.601  0.00  0.00    -0.204 NA
ATOM     33  H   UNL     1      13.682  -4.740   1.219  0.00  0.00    +0.144 HD
ATOM     34  H   UNL     1      15.243  -5.065   0.689  0.00  0.00    +0.144 HD
ENDBRANCH  29  32
ENDBRANCH  26  29
ENDBRANCH  21  23
ENDBRANCH  18  19
ENDBRANCH   1  18
TORSDOF 7
