REMARK  Name = ZINC44786161
REMARK  7 active torsions:
REMARK  status: ('A' for Active; 'I' for Inactive)
REMARK    1  A    between atoms: C_1  and  C_2
REMARK    2  A    between atoms: C_2  and  C_4
REMARK    3  A    between atoms: C_2  and  N_10
REMARK    4  A    between atoms: C_4  and  N_5
REMARK    5  A    between atoms: C_11  and  C_13
REMARK    6  A    between atoms: C_13  and  C_19
REMARK    7  A    between atoms: N_20  and  O_21
REMARK                            x       y       z     vdW  Elec       q    Type
REMARK                         _______ _______ _______ _____ _____    ______ ____
ROOT
ATOM      1  N   UNL     1      -1.472  -0.291   0.026  0.00  0.00    -0.314 N 
ATOM      2  C   UNL     1      -2.048  -0.643  -1.140  0.00  0.00    +0.227 C 
ATOM      3  O   UNL     1      -1.462  -0.457  -2.186  0.00  0.00    -0.275 OA
ATOM      4  H   UNL     1      -1.968  -0.373   0.856  0.00  0.00    +0.149 HD
ENDROOT
BRANCH   2   5
ATOM      5  C   UNL     1      -3.419  -1.268  -1.145  0.00  0.00    +0.105 C 
ATOM      6  C   UNL     1      -3.911  -1.407  -2.587  0.00  0.00    +0.024 C 
ATOM      7  C   UNL     1      -3.978  -0.025  -3.240  0.00  0.00    +0.001 C 
ATOM      8  C   UNL     1      -4.945   0.863  -2.454  0.00  0.00    +0.000 C 
ATOM      9  C   UNL     1      -4.454   1.003  -1.012  0.00  0.00    +0.001 C 
ATOM     10  C   UNL     1      -4.387  -0.380  -0.360  0.00  0.00    +0.024 C 
BRANCH   5  11
ATOM     11  C   UNL     1      -3.354  -2.630  -0.503  0.00  0.00    +0.147 C 
ATOM     12  N   UNL     1      -4.130  -2.914   0.490  0.00  0.00    -0.076 NA
ATOM     13  N   UNL     1      -2.466  -3.571  -0.974  0.00  0.00    -0.343 N 
ATOM     14  H   UNL     1      -1.936  -3.385  -1.765  0.00  0.00    +0.144 HD
ATOM     15  H   UNL     1      -2.370  -4.420  -0.515  0.00  0.00    +0.144 HD
BRANCH  12  16
ATOM     16  O   UNL     1      -4.068  -4.193   1.093  0.00  0.00    -0.408 OA
ATOM     17  H   UNL     1      -4.686  -4.312   1.827  0.00  0.00    +0.328 HD
ENDBRANCH  12  16
ENDBRANCH   5  11
ENDBRANCH   2   5
BRANCH   1  19
ATOM     18  C   UNL     1      -0.103   1.718  -0.241  0.00  0.00    +0.026 C 
ATOM     19  C   UNL     1      -0.097   0.214   0.041  0.00  0.00    +0.053 C 
BRANCH  19  20
ATOM     20  C   UNL     1       0.527  -0.045   1.414  0.00  0.00    -0.057 C 
BRANCH  20  21
ATOM     21  N   UNL     1       0.425  -1.475   1.736  0.00  0.00    +0.381 N 
ATOM     22  C   UNL     1       1.308  -2.266   0.842  0.00  0.00    -0.079 C 
ATOM     23  C   UNL     1       1.527  -3.581   1.632  0.00  0.00    -0.020 C 
ATOM     24  C   UNL     1       1.620  -3.093   3.096  0.00  0.00    -0.020 C 
ATOM     25  C   UNL     1       0.914  -1.724   3.109  0.00  0.00    -0.079 C 
ATOM     26  H   UNL     1      -0.531  -1.785   1.646  0.00  0.00    -0.082 HD
ENDBRANCH  20  21
ENDBRANCH  19  20
ENDBRANCH   1  19
TORSDOF 6
