REMARK  Name = ZINC35056386
REMARK  2 active torsions:
REMARK  status: ('A' for Active; 'I' for Inactive)
REMARK    1  A    between atoms: C_4  and  N_8
REMARK    2  A    between atoms: C_5  and  N_7
REMARK                            x       y       z     vdW  Elec       q    Type
REMARK                         _______ _______ _______ _____ _____    ______ ____
ROOT
ATOM      1  N   UNL     1       3.637  -0.642  -0.036  0.00  0.00    -0.208 N 
ATOM      2  C   UNL     1       4.264  -0.982  -1.171  0.00  0.00    +0.227 C 
ATOM      3  O   UNL     1       3.862  -0.753  -2.292  0.00  0.00    -0.275 OA
ATOM      4  C   UNL     1       5.556  -1.698  -0.830  0.00  0.00    +0.113 C 
ATOM      5  C   UNL     1       5.556  -1.707   0.704  0.00  0.00    +0.056 C 
ATOM      6  C   UNL     1       4.284  -1.000   1.083  0.00  0.00    +0.233 C 
ATOM      7  O   UNL     1       3.905  -0.790   2.215  0.00  0.00    -0.274 OA
ATOM      8  C   UNL     1       5.584  -3.143   1.242  0.00  0.00    +0.016 C 
ATOM      9  C   UNL     1       7.077  -3.385   1.585  0.00  0.00    +0.001 C 
ATOM     10  C   UNL     1       7.532  -2.011   2.138  0.00  0.00    +0.001 C 
ATOM     11  C   UNL     1       6.785  -0.983   1.259  0.00  0.00    +0.016 C 
ENDROOT
BRANCH   1  15
ATOM     12  C   UNL     1      -0.017   1.378   0.010  0.00  0.00    +0.002 A 
ATOM     13  C   UNL     1       1.169   2.089   0.002  0.00  0.00    +0.002 A 
ATOM     14  C   UNL     1       2.380   1.423  -0.013  0.00  0.00    +0.026 A 
ATOM     15  C   UNL     1       2.408   0.037  -0.021  0.00  0.00    +0.064 A 
ATOM     16  C   UNL     1       1.213  -0.681  -0.013  0.00  0.00    +0.047 A 
ATOM     17  C   UNL     1       0.002  -0.004   0.002  0.00  0.00    +0.024 A 
BRANCH  16  18
ATOM     18  N   UNL     1       1.235  -2.079  -0.021  0.00  0.00    -0.357 N 
ATOM     19  H   UNL     1       2.082  -2.551  -0.032  0.00  0.00    +0.142 HD
ATOM     20  H   UNL     1       0.402  -2.577  -0.016  0.00  0.00    +0.142 HD
ENDBRANCH  16  18
ENDBRANCH   1  15
TORSDOF 2
