REMARK  Name = ZINC06473966
REMARK  5 active torsions:
REMARK  status: ('A' for Active; 'I' for Inactive)
REMARK    1  A    between atoms: C_4  and  C_7
REMARK    2  A    between atoms: C_16  and  C_23
REMARK    3  A    between atoms: N_18  and  C_19
REMARK    4  A    between atoms: C_19  and  C_20
REMARK    5  A    between atoms: C_28  and  O_29
REMARK                            x       y       z     vdW  Elec       q    Type
REMARK                         _______ _______ _______ _____ _____    ______ ____
ROOT
ATOM      1  C   UNL     1       3.665  -0.425   0.021  0.00  0.00    -0.001 C 
ATOM      2  C   UNL     1       3.784  -0.859  -1.415  0.00  0.00    -0.035 A 
ATOM      3  C   UNL     1       3.367  -0.010  -2.424  0.00  0.00    +0.019 A 
ATOM      4  C   UNL     1       3.472  -0.399  -3.747  0.00  0.00    +0.018 A 
ATOM      5  C   UNL     1       3.996  -1.639  -4.069  0.00  0.00    +0.017 A 
ATOM      6  C   UNL     1       4.414  -2.493  -3.067  0.00  0.00    +0.024 A 
ATOM      7  C   UNL     1       4.307  -2.103  -1.739  0.00  0.00    +0.028 A 
ATOM      8  N   UNL     1       4.727  -2.966  -0.718  0.00  0.00    -0.353 N 
ATOM      9  C   UNL     1       4.857  -2.414   0.640  0.00  0.00    +0.053 C 
ATOM     10  N   UNL     1       3.669  -1.589   0.913  0.00  0.00    +0.409 N 
ATOM     11 BR   UNL     1       2.899   0.767  -5.121  0.00  0.00    -0.050 Br
ATOM     12  H   UNL     1       4.924  -3.897  -0.900  0.00  0.00    +0.145 HD
ATOM     13  H   UNL     1       2.836  -2.136   0.754  0.00  0.00    -0.076 HD
ENDROOT
BRANCH   1  17
ATOM     14  C   UNL     1       0.018   1.737   0.542  0.00  0.00    +0.000 A 
ATOM     15  C   UNL     1       1.210   2.420   0.392  0.00  0.00    +0.000 A 
ATOM     16  C   UNL     1       2.391   1.720   0.223  0.00  0.00    +0.002 A 
ATOM     17  C   UNL     1       2.379   0.338   0.206  0.00  0.00    -0.057 A 
ATOM     18  C   UNL     1       1.186  -0.345   0.357  0.00  0.00    +0.002 A 
ATOM     19  C   UNL     1       0.006   0.355   0.524  0.00  0.00    +0.000 A 
ENDBRANCH   1  17
BRANCH   9  20
ATOM     20  C   UNL     1       4.938  -3.539   1.640  0.00  0.00    -0.003 A 
ATOM     21  C   UNL     1       3.792  -3.994   2.263  0.00  0.00    +0.007 A 
ATOM     22  C   UNL     1       3.866  -5.025   3.181  0.00  0.00    +0.000 A 
ATOM     23  C   UNL     1       5.087  -5.603   3.478  0.00  0.00    +0.004 A 
ATOM     24  C   UNL     1       6.235  -5.152   2.858  0.00  0.00    +0.045 A 
ATOM     25  C   UNL     1       6.163  -4.121   1.932  0.00  0.00    +0.120 A 
BRANCH  25  26
ATOM     26  O   UNL     1       7.291  -3.679   1.317  0.00  0.00    -0.507 OA
ATOM     27  H   UNL     1       7.742  -2.964   1.787  0.00  0.00    +0.292 HD
ENDBRANCH  25  26
ENDBRANCH   9  20
BRANCH  10  28
ATOM     28  C   UNL     1       3.699  -1.137   2.310  0.00  0.00    +0.053 C 
BRANCH  28  29
ATOM     29  C   UNL     1       4.964  -0.355   2.558  0.00  0.00    +0.340 C 
ATOM     30  O   UNL     1       5.745  -0.153   1.644  0.00  0.00    -0.249 OA
ATOM     31  O   UNL     1       5.205   0.075   3.672  0.00  0.00    -0.249 OA
ENDBRANCH  28  29
ENDBRANCH  10  28
TORSDOF 5
