REMARK  Name = ZINC09236914
REMARK  2 active torsions:
REMARK  status: ('A' for Active; 'I' for Inactive)
REMARK    1  A    between atoms: C_6  and  C_7
REMARK    2  A    between atoms: C_21  and  C_25
REMARK                            x       y       z     vdW  Elec       q    Type
REMARK                         _______ _______ _______ _____ _____    ______ ____
ROOT
ATOM      1  C   UNL     1      -6.111  -2.540   0.015  0.00  0.00    +0.008 A 
ATOM      2  C   UNL     1      -6.103  -1.161   0.023  0.00  0.00    +0.047 A 
ATOM      3  C   UNL     1      -4.895  -0.473   0.022  0.00  0.00    +0.139 A 
ATOM      4  C   UNL     1      -3.689  -1.199   0.012  0.00  0.00    +0.019 A 
ATOM      5  C   UNL     1      -3.722  -2.601   0.004  0.00  0.00    +0.015 A 
ATOM      6  C   UNL     1      -4.921  -3.254   0.005  0.00  0.00    -0.040 A 
ATOM      7  C   UNL     1      -2.448  -0.514   0.005  0.00  0.00    +0.031 A 
ATOM      8  C   UNL     1      -2.453   0.870   0.018  0.00  0.00    +0.121 A 
ATOM      9  C   UNL     1      -3.740   1.573   0.028  0.00  0.00    +0.350 A 
ATOM     10  O   UNL     1      -3.768   2.790   0.035  0.00  0.00    -0.244 OA
ATOM     11  O   UNL     1      -4.889   0.877   0.029  0.00  0.00    -0.422 OA
ENDROOT
BRANCH   6  12
ATOM     12  C   UNL     1      -4.952  -4.761  -0.004  0.00  0.00    -0.003 C 
ATOM     13  C   UNL     1      -4.236  -5.293   1.238  0.00  0.00    +0.015 C 
ATOM     14  C   UNL     1      -4.268  -6.823   1.229  0.00  0.00    -0.010 C 
ATOM     15  C   UNL     1      -5.721  -7.303   1.233  0.00  0.00    +0.007 C 
ATOM     16  C   UNL     1      -6.438  -6.770  -0.009  0.00  0.00    -0.010 C 
ATOM     17  C   UNL     1      -6.405  -5.240  -0.000  0.00  0.00    +0.015 C 
ATOM     18  C   UNL     1      -5.733  -7.287  -1.265  0.00  0.00    +0.007 C 
ATOM     19  C   UNL     1      -4.280  -6.808  -1.269  0.00  0.00    -0.010 C 
ATOM     20  C   UNL     1      -3.564  -7.340  -0.026  0.00  0.00    +0.007 C 
ATOM     21  C   UNL     1      -4.248  -5.278  -1.260  0.00  0.00    +0.015 C 
ENDBRANCH   6  12
BRANCH   8  22
ATOM     22  C   UNL     1      -1.187   1.624   0.017  0.00  0.00    +0.248 C 
ATOM     23  O   UNL     1      -1.204   2.840   0.023  0.00  0.00    -0.270 OA
ATOM     24  N   UNL     1      -0.011   0.966   0.007  0.00  0.00    -0.325 N 
ATOM     25  H   UNL     1       0.002  -0.004   0.002  0.00  0.00    +0.145 HD
ATOM     26  H   UNL     1       0.822   1.462   0.002  0.00  0.00    +0.145 HD
ENDBRANCH   8  22
TORSDOF 2
