REMARK  Name = ZINC22054772
REMARK  8 active torsions:
REMARK  status: ('A' for Active; 'I' for Inactive)
REMARK    1  A    between atoms: C_3  and  O_11
REMARK    2  A    between atoms: C_6  and  N_7
REMARK    3  A    between atoms: O_11  and  C_12
REMARK    4  A    between atoms: C_14  and  O_27
REMARK    5  A    between atoms: C_16  and  O_26
REMARK    6  A    between atoms: C_18  and  O_25
REMARK    7  A    between atoms: C_20  and  C_23
REMARK    8  A    between atoms: C_23  and  O_24
REMARK                            x       y       z     vdW  Elec       q    Type
REMARK                         _______ _______ _______ _____ _____    ______ ____
ROOT
ATOM      1  C   UNL     1       0.343   4.911   1.340  0.00  0.00    +0.339 C 
ATOM      2  C   UNL     1       1.694   5.627   1.259  0.00  0.00    +0.214 C 
ATOM      3  C   UNL     1       2.385   5.251  -0.056  0.00  0.00    +0.180 C 
ATOM      4  C   UNL     1       2.528   3.727  -0.126  0.00  0.00    +0.177 C 
ATOM      5  C   UNL     1       1.145   3.085   0.008  0.00  0.00    +0.179 C 
ATOM      6  O   UNL     1       0.546   3.501   1.237  0.00  0.00    -0.331 OA
ENDROOT
BRANCH   4   7
ATOM      7  O   UNL     1       3.106   3.360  -1.381  0.00  0.00    -0.386 OA
ATOM      8  H   UNL     1       3.286   2.300  -1.614  0.00  0.00    +0.210 HD
ENDBRANCH   4   7
BRANCH   3   9
ATOM      9  O   UNL     1       3.678   5.856  -0.106  0.00  0.00    -0.386 OA
ATOM     10  H   UNL     1       4.325   5.697  -0.981  0.00  0.00    +0.210 HD
ENDBRANCH   3   9
BRANCH   2  11
ATOM     11  O   UNL     1       2.513   5.227   2.360  0.00  0.00    -0.383 OA
ATOM     12  H   UNL     1       3.526   5.640   2.470  0.00  0.00    +0.210 HD
ENDBRANCH   2  11
BRANCH   1  13
ATOM     13  O   UNL     1      -0.494   5.352   0.269  0.00  0.00    -0.459 OA
BRANCH  13  16
ATOM     14  C   UNL     1      -3.592   3.814   1.400  0.00  0.00    +0.036 A 
ATOM     15  C   UNL     1      -2.264   4.196   1.359  0.00  0.00    +0.049 A 
ATOM     16  C   UNL     1      -1.799   4.974   0.310  0.00  0.00    +0.142 A 
ATOM     17  C   UNL     1      -2.671   5.372  -0.695  0.00  0.00    +0.085 A 
ATOM     18  C   UNL     1      -3.996   4.982  -0.653  0.00  0.00    +0.056 A 
ATOM     19  C   UNL     1      -4.456   4.206   0.395  0.00  0.00    +0.128 A 
ATOM     20 CL   UNL     1      -2.095   6.351  -2.008  0.00  0.00    -0.080 Cl
BRANCH  19  21
ATOM     21  N   UNL     1      -5.878   3.795   0.442  0.00  0.00    +0.056 N 
ATOM     22  O   UNL     1      -6.284   3.112   1.364  0.00  0.00    -0.126 OA
ATOM     23  O   UNL     1      -6.640   4.141  -0.443  0.00  0.00    -0.126 OA
ENDBRANCH  19  21
ENDBRANCH  13  16
ENDBRANCH   1  13
BRANCH   5  24
ATOM     24  C   UNL     1       1.286   1.562  -0.002  0.00  0.00    +0.190 C 
BRANCH  24  25
ATOM     25  O   UNL     1      -0.011   0.963   0.007  0.00  0.00    -0.392 OA
ATOM     26  H   UNL     1      -0.111  -0.133   0.002  0.00  0.00    +0.210 HD
ENDBRANCH  24  25
ENDBRANCH   5  24
TORSDOF 8
