REMARK  Name = ZINC40728679
REMARK  8 active torsions:
REMARK  status: ('A' for Active; 'I' for Inactive)
REMARK    1  A    between atoms: C_1  and  C_2
REMARK    2  A    between atoms: C_4  and  N_20
REMARK    3  A    between atoms: C_7  and  N_8
REMARK    4  A    between atoms: C_9  and  C_11
REMARK    5  A    between atoms: C_11  and  N_12
REMARK    6  A    between atoms: C_13  and  C_19
REMARK    7  A    between atoms: C_14  and  C_18
REMARK    8  A    between atoms: C_15  and  C_17
REMARK                            x       y       z     vdW  Elec       q    Type
REMARK                         _______ _______ _______ _____ _____    ______ ____
ROOT
ATOM      1  N   UNL     1       0.025  -0.010   2.418  0.00  0.00    -0.284 N 
ATOM      2  C   UNL     1      -0.057  -0.688   3.580  0.00  0.00    +0.239 C 
ATOM      3  O   UNL     1      -0.040  -1.901   3.578  0.00  0.00    -0.273 OA
ATOM      4  H   UNL     1       0.078   0.958   2.424  0.00  0.00    +0.155 HD
ENDROOT
BRANCH   1  11
ATOM      5  C   UNL     1      -1.265   1.183   0.182  0.00  0.00    +0.046 C 
ATOM      6  C   UNL     1      -0.585  -0.158   0.085  0.00  0.00    -0.028 A 
ATOM      7  C   UNL     1      -0.572  -0.840  -1.116  0.00  0.00    +0.028 A 
ATOM      8  C   UNL     1       0.055  -2.076  -1.205  0.00  0.00    +0.025 A 
ATOM      9  C   UNL     1       0.669  -2.626  -0.087  0.00  0.00    +0.024 A 
ATOM     10  C   UNL     1       0.656  -1.944   1.113  0.00  0.00    +0.025 A 
ATOM     11  C   UNL     1       0.034  -0.705   1.201  0.00  0.00    +0.036 A 
BRANCH   8  12
ATOM     12  N   UNL     1       0.068  -2.767  -2.422  0.00  0.00    -0.358 N 
ATOM     13  H   UNL     1      -0.361  -2.383  -3.202  0.00  0.00    +0.142 HD
ATOM     14  H   UNL     1       0.506  -3.630  -2.484  0.00  0.00    +0.142 HD
ENDBRANCH   8  12
ENDBRANCH   1  11
BRANCH   2  15
ATOM     15  C   UNL     1      -0.168   0.062   4.883  0.00  0.00    +0.239 C 
BRANCH  15  16
ATOM     16  N   UNL     1      -0.241  -0.894   5.991  0.00  0.00    -0.259 N 
ATOM     17  C   UNL     1      -1.369  -1.430   6.503  0.00  0.00    +0.040 A 
ATOM     18  C   UNL     1      -1.010  -2.261   7.510  0.00  0.00    -0.007 A 
ATOM     19  C   UNL     1       0.384  -2.231   7.616  0.00  0.00    +0.063 A 
ATOM     20  N   UNL     1       0.846  -1.417   6.702  0.00  0.00    -0.176 NA
ATOM     21  C   UNL     1       1.212  -3.008   8.607  0.00  0.00    +0.068 C 
ATOM     22  C   UNL     1      -1.948  -3.074   8.365  0.00  0.00    +0.047 C 
ATOM     23  C   UNL     1      -2.775  -1.153   6.038  0.00  0.00    +0.065 C 
ENDBRANCH  15  16
ENDBRANCH   2  15
TORSDOF 4
