REMARK  Name = ZINC62494417
REMARK  4 active torsions:
REMARK  status: ('A' for Active; 'I' for Inactive)
REMARK    1  A    between atoms: C_3  and  C_8
REMARK    2  A    between atoms: C_5  and  N_7
REMARK    3  A    between atoms: N_12  and  C_13
REMARK    4  A    between atoms: C_16  and  N_19
REMARK                            x       y       z     vdW  Elec       q    Type
REMARK                         _______ _______ _______ _____ _____    ______ ____
ROOT
ATOM      1  C   UNL     1       4.045   2.974  -0.970  0.00  0.00    +0.187 A 
ATOM      2  N   UNL     1       5.017   2.095  -0.837  0.00  0.00    -0.108 NA
ATOM      3  N   UNL     1       5.460   2.094   0.369  0.00  0.00    -0.022 NA
ATOM      4  N   UNL     1       4.820   2.952   1.087  0.00  0.00    -0.039 NA
ATOM      5  N   UNL     1       3.875   3.566   0.246  0.00  0.00    -0.193 N 
ENDROOT
BRANCH   1   8
ATOM      6  C   UNL     1       2.085   4.822  -3.591  0.00  0.00    +0.002 A 
ATOM      7  C   UNL     1       2.793   4.551  -2.437  0.00  0.00    +0.012 A 
ATOM      8  C   UNL     1       3.285   3.266  -2.206  0.00  0.00    +0.023 A 
ATOM      9  C   UNL     1       3.061   2.259  -3.144  0.00  0.00    +0.034 A 
ATOM     10  C   UNL     1       2.349   2.541  -4.300  0.00  0.00    +0.025 A 
ATOM     11  C   UNL     1       1.862   3.824  -4.521  0.00  0.00    +0.023 A 
BRANCH  10  12
ATOM     12  N   UNL     1       2.121   1.535  -5.243  0.00  0.00    -0.358 N 
ATOM     13  H   UNL     1       2.461   0.640  -5.089  0.00  0.00    +0.142 HD
ATOM     14  H   UNL     1       1.623   1.732  -6.051  0.00  0.00    +0.142 HD
ENDBRANCH  10  12
ENDBRANCH   1   8
BRANCH   5  15
ATOM     15  C   UNL     1       2.955   4.568   0.586  0.00  0.00    +0.070 A 
ATOM     16  C   UNL     1       1.640   4.480   0.151  0.00  0.00    +0.030 A 
ATOM     17  C   UNL     1       0.735   5.467   0.485  0.00  0.00    +0.025 A 
ATOM     18  C   UNL     1       1.139   6.548   1.257  0.00  0.00    +0.030 A 
ATOM     19  C   UNL     1       2.456   6.636   1.693  0.00  0.00    +0.025 A 
ATOM     20  C   UNL     1       3.359   5.646   1.363  0.00  0.00    +0.030 A 
BRANCH  18  21
ATOM     21  N   UNL     1       0.223   7.548   1.595  0.00  0.00    -0.330 N 
ATOM     22  C   UNL     1      -1.195   7.577   1.207  0.00  0.00    +0.105 C 
ATOM     23  C   UNL     1      -1.800   8.875   1.782  0.00  0.00    +0.020 C 
ATOM     24  C   UNL     1      -0.556   9.781   1.979  0.00  0.00    +0.020 C 
ATOM     25  C   UNL     1       0.517   8.745   2.404  0.00  0.00    +0.105 C 
ENDBRANCH  18  21
ENDBRANCH   5  15
TORSDOF 4
