REMARK  Name = ZINC44021529
REMARK  8 active torsions:
REMARK  status: ('A' for Active; 'I' for Inactive)
REMARK    1  A    between atoms: C_1  and  C_2
REMARK    2  A    between atoms: C_11  and  C_28
REMARK    3  A    between atoms: C_11  and  O_32
REMARK    4  A    between atoms: C_12  and  C_27
REMARK    5  A    between atoms: C_14  and  O_26
REMARK    6  A    between atoms: C_18  and  C_25
REMARK    7  A    between atoms: C_28  and  C_30
REMARK    8  A    between atoms: C_30  and  O_31
REMARK                            x       y       z     vdW  Elec       q    Type
REMARK                         _______ _______ _______ _____ _____    ______ ____
ROOT
ATOM      1  C   UNL     1       0.572   1.324   1.638  0.00  0.00    +0.012 C 
ATOM      2  C   UNL     1       0.524  -0.202   1.544  0.00  0.00    +0.013 C 
ATOM      3  C   UNL     1       0.642  -0.633   0.078  0.00  0.00    +0.012 C 
ATOM      4  C   UNL     1       2.014  -0.229  -0.467  0.00  0.00    -0.000 C 
ATOM      5  C   UNL     1       2.112  -0.593  -1.937  0.00  0.00    +0.002 C 
ATOM      6  C   UNL     1       1.129   0.126  -2.868  0.00  0.00    +0.008 C 
ATOM      7  C   UNL     1       1.827   0.032  -4.252  0.00  0.00    +0.043 C 
ATOM      8  C   UNL     1       3.340  -0.146  -3.967  0.00  0.00    +0.131 C 
ATOM      9  C   UNL     1       3.486  -0.081  -2.445  0.00  0.00    +0.009 C 
ATOM     10  C   UNL     1       4.552  -0.954  -1.810  0.00  0.00    +0.041 C 
ATOM     11  C   UNL     1       4.496  -0.709  -0.294  0.00  0.00    +0.120 C 
ATOM     12  C   UNL     1       3.114  -0.989   0.291  0.00  0.00    +0.035 C 
ATOM     13  C   UNL     1       3.073  -0.580   1.766  0.00  0.00    +0.013 C 
ATOM     14  C   UNL     1       1.691  -0.799   2.308  0.00  0.00    -0.053 C 
ATOM     15  C   UNL     1       1.448  -1.485   3.416  0.00  0.00    +0.051 C 
ATOM     16  C   UNL     1       2.551  -2.097   4.174  0.00  0.00    +0.179 C 
ATOM     17  O   UNL     1       2.337  -2.693   5.213  0.00  0.00    -0.288 OA
ATOM     18  C   UNL     1       3.920  -1.973   3.645  0.00  0.00    +0.047 C 
ATOM     19  C   UNL     1       4.141  -1.278   2.537  0.00  0.00    -0.012 C 
ATOM     20  C   UNL     1       3.350   0.923   1.839  0.00  0.00    +0.020 C 
ATOM     21  C   UNL     1       3.686   1.375  -2.020  0.00  0.00    +0.015 C 
ENDROOT
BRANCH  11  22
ATOM     22  O   UNL     1       5.455  -1.551   0.350  0.00  0.00    -0.391 OA
ATOM     23  H   UNL     1       6.366  -1.399   0.065  0.00  0.00    +0.210 HD
ENDBRANCH  11  22
BRANCH   8  24
ATOM     24  C   UNL     1       4.128   0.956  -4.625  0.00  0.00    +0.190 C 
ATOM     25  O   UNL     1       3.630   2.045  -4.782  0.00  0.00    -0.292 OA
BRANCH  24  26
ATOM     26  C   UNL     1       5.540   0.700  -5.088  0.00  0.00    +0.233 C 
BRANCH  26  27
ATOM     27  O   UNL     1       6.072   1.889  -5.675  0.00  0.00    -0.387 OA
ATOM     28  H   UNL     1       6.979   1.798  -5.996  0.00  0.00    +0.210 HD
ENDBRANCH  26  27
ENDBRANCH  24  26
ENDBRANCH   8  24
BRANCH   8  29
ATOM     29  O   UNL     1       3.785  -1.421  -4.433  0.00  0.00    -0.380 OA
ATOM     30  H   UNL     1       3.684  -1.549  -5.386  0.00  0.00    +0.211 HD
ENDBRANCH   8  29
TORSDOF 5
