REMARK  Name = ZINC40755298
REMARK  7 active torsions:
REMARK  status: ('A' for Active; 'I' for Inactive)
REMARK    1  A    between atoms: C_1  and  C_2
REMARK    2  A    between atoms: C_6  and  N_9
REMARK    3  A    between atoms: C_7  and  C_8
REMARK    4  A    between atoms: C_11  and  N_28
REMARK    5  A    between atoms: C_12  and  N_16
REMARK    6  A    between atoms: N_16  and  C_17
REMARK    7  A    between atoms: C_25  and  C_27
REMARK                            x       y       z     vdW  Elec       q    Type
REMARK                         _______ _______ _______ _____ _____    ______ ____
ROOT
ATOM      1  N   UNL     1       0.099  -2.799   2.394  0.00  0.00    -0.298 N 
ATOM      2  C   UNL     1      -0.007  -4.186   2.386  0.00  0.00    +0.149 A 
ATOM      3  C   UNL     1      -0.108  -4.897   3.583  0.00  0.00    +0.106 A 
ATOM      4  C   UNL     1      -0.213  -6.287   3.517  0.00  0.00    +0.149 A 
ATOM      5  N   UNL     1      -0.211  -6.878   2.324  0.00  0.00    -0.219 NA
ATOM      6  C   UNL     1      -0.113  -6.170   1.218  0.00  0.00    +0.225 A 
ATOM      7  N   UNL     1      -0.018  -4.855   1.236  0.00  0.00    -0.219 NA
ATOM      8  H   UNL     1       0.191  -2.325   3.236  0.00  0.00    +0.154 HD
ENDROOT
BRANCH   1  14
ATOM      9  C   UNL     1       1.281   1.224  -0.170  0.00  0.00    +0.044 C 
ATOM     10  C   UNL     1       0.637  -0.136  -0.080  0.00  0.00    -0.046 A 
ATOM     11  C   UNL     1       0.019  -0.682  -1.191  0.00  0.00    +0.004 A 
ATOM     12  C   UNL     1      -0.573  -1.929  -1.113  0.00  0.00    +0.002 A 
ATOM     13  C   UNL     1      -0.548  -2.634   0.074  0.00  0.00    +0.023 A 
ATOM     14  C   UNL     1       0.072  -2.089   1.191  0.00  0.00    +0.036 A 
ATOM     15  C   UNL     1       0.671  -0.838   1.108  0.00  0.00    -0.026 A 
ATOM     16  C   UNL     1       1.350  -0.245   2.316  0.00  0.00    +0.046 C 
ENDBRANCH   1  14
BRANCH   3  17
ATOM     17  N   UNL     1      -0.106  -4.232   4.819  0.00  0.00    -0.353 N 
ATOM     18  H   UNL     1      -0.033  -3.265   4.850  0.00  0.00    +0.143 HD
ATOM     19  H   UNL     1      -0.177  -4.739   5.643  0.00  0.00    +0.143 HD
ENDBRANCH   3  17
BRANCH   4  20
ATOM     20  N   UNL     1      -0.316  -7.044   4.679  0.00  0.00    -0.297 N 
ATOM     21  H   UNL     1      -0.402  -6.603   5.539  0.00  0.00    +0.154 HD
BRANCH  20  22
ATOM     22  C   UNL     1      -0.295  -8.434   4.609  0.00  0.00    +0.042 A 
ATOM     23  C   UNL     1       0.313  -9.070   3.546  0.00  0.00    +0.024 A 
ATOM     24  C   UNL     1       0.337 -10.458   3.470  0.00  0.00    +0.004 A 
ATOM     25  C   UNL     1      -0.236 -11.227   4.437  0.00  0.00    +0.026 A 
ATOM     26  C   UNL     1      -0.867 -10.622   5.537  0.00  0.00    +0.048 A 
ATOM     27  C   UNL     1      -0.891  -9.208   5.627  0.00  0.00    +0.020 A 
ATOM     28  C   UNL     1      -1.517  -8.606   6.732  0.00  0.00    +0.013 A 
ATOM     29  C   UNL     1      -2.074  -9.418   7.680  0.00  0.00    +0.021 A 
ATOM     30  C   UNL     1      -2.010 -10.801   7.535  0.00  0.00    +0.013 A 
ATOM     31  N   UNL     1      -1.435 -11.359   6.496  0.00  0.00    -0.358 N 
ATOM     32  C   UNL     1      -2.629 -11.679   8.591  0.00  0.00    +0.063 C 
ATOM     33  H   UNL     1      -1.411 -12.327   6.430  0.00  0.00    +0.166 HD
ENDBRANCH  20  22
ENDBRANCH   4  20
TORSDOF 4
