REMARK  Name = ZINC53170129
REMARK  3 active torsions:
REMARK  status: ('A' for Active; 'I' for Inactive)
REMARK    1  A    between atoms: C_1  and  C_2
REMARK    2  A    between atoms: C_2  and  C_4
REMARK    3  A    between atoms: C_2  and  N_11
REMARK                            x       y       z     vdW  Elec       q    Type
REMARK                         _______ _______ _______ _____ _____    ______ ____
ROOT
ATOM      1  N   UNL     1      -1.680  -0.507  -0.314  0.00  0.00    -0.302 N 
ATOM      2  C   UNL     1      -2.132  -1.810  -0.169  0.00  0.00    +0.109 A 
ATOM      3  C   UNL     1      -3.325  -1.729   0.567  0.00  0.00    +0.094 A 
ATOM      4  C   UNL     1      -4.023  -2.899   0.876  0.00  0.00    +0.033 A 
ATOM      5  C   UNL     1      -3.538  -4.118   0.457  0.00  0.00    +0.043 A 
ATOM      6  C   UNL     1      -2.359  -4.194  -0.271  0.00  0.00    +0.161 A 
ATOM      7  C   UNL     1      -1.655  -3.045  -0.585  0.00  0.00    +0.184 A 
ATOM      8  F   UNL     1      -0.508  -3.125  -1.294  0.00  0.00    -0.200 F 
ATOM      9  F   UNL     1      -1.895  -5.397  -0.674  0.00  0.00    -0.202 F 
ATOM     10  N   UNL     1      -3.543  -0.414   0.833  0.00  0.00    -0.215 NA
ATOM     11  C   UNL     1      -2.575   0.305   0.321  0.00  0.00    +0.195 A 
ATOM     12  N   UNL     1      -2.477   1.678   0.408  0.00  0.00    -0.329 N 
ATOM     13  H   UNL     1      -1.605   2.102   0.429  0.00  0.00    +0.145 HD
ATOM     14  H   UNL     1      -3.280   2.220   0.447  0.00  0.00    +0.145 HD
ENDROOT
BRANCH   1  16
ATOM     15  C   UNL     1      -0.409   1.447  -1.054  0.00  0.00    +0.036 C 
ATOM     16  C   UNL     1      -0.465  -0.082  -1.014  0.00  0.00    +0.117 C 
BRANCH  16  17
ATOM     17  C   UNL     1       0.744  -0.610  -0.286  0.00  0.00    -0.025 A 
ATOM     18  C   UNL     1       0.902  -0.360   1.064  0.00  0.00    +0.007 A 
ATOM     19  C   UNL     1       2.011  -0.844   1.732  0.00  0.00    +0.020 A 
ATOM     20  C   UNL     1       2.964  -1.579   1.048  0.00  0.00    +0.041 A 
ATOM     21  C   UNL     1       2.805  -1.829  -0.303  0.00  0.00    +0.020 A 
ATOM     22  C   UNL     1       1.693  -1.349  -0.969  0.00  0.00    +0.007 A 
ATOM     23 CL   UNL     1       4.357  -2.187   1.886  0.00  0.00    -0.084 Cl
ENDBRANCH  16  17
ENDBRANCH   1  16
TORSDOF 2
