REMARK  Name = ZINC48924036
REMARK  3 active torsions:
REMARK  status: ('A' for Active; 'I' for Inactive)
REMARK    1  A    between atoms: C_5  and  C_7
REMARK    2  A    between atoms: N_9  and  N_10
REMARK    3  A    between atoms: C_11  and  C_13
REMARK                            x       y       z     vdW  Elec       q    Type
REMARK                         _______ _______ _______ _____ _____    ______ ____
ROOT
ATOM      1  C   UNL     1       1.215  -2.146  -0.203  0.00  0.00    +0.261 C 
ATOM      2  O   UNL     1       2.230  -2.713  -0.560  0.00  0.00    -0.269 OA
ATOM      3  N   UNL     1       0.097  -2.857   0.044  0.00  0.00    -0.230 N 
ATOM      4  H   UNL     1      -0.712  -2.405   0.328  0.00  0.00    +0.173 HD
ENDROOT
BRANCH   1   9
ATOM      5  C   UNL     1       0.043   1.348   0.517  0.00  0.00    +0.001 A 
ATOM      6  C   UNL     1       1.193   2.076   0.263  0.00  0.00    +0.001 A 
ATOM      7  C   UNL     1       2.349   1.435  -0.142  0.00  0.00    +0.016 A 
ATOM      8  C   UNL     1       2.364   0.063  -0.296  0.00  0.00    +0.030 A 
ATOM      9  C   UNL     1       1.208  -0.677  -0.041  0.00  0.00    +0.052 A 
ATOM     10  C   UNL     1       0.044  -0.023   0.368  0.00  0.00    +0.014 A 
ATOM     11 BR   UNL     1       3.946  -0.812  -0.851  0.00  0.00    -0.050 Br
ENDBRANCH   1   9
BRANCH   3  12
ATOM     12  N   UNL     1       0.105  -4.250  -0.111  0.00  0.00    -0.231 N 
ATOM     13  C   UNL     1      -1.013  -4.961   0.137  0.00  0.00    +0.253 C 
ATOM     14  O   UNL     1      -2.028  -4.394   0.493  0.00  0.00    -0.269 OA
ATOM     15  H   UNL     1       0.914  -4.702  -0.395  0.00  0.00    +0.173 HD
BRANCH  13  16
ATOM     16  C   UNL     1      -1.006  -6.423  -0.025  0.00  0.00    +0.068 C 
ATOM     17  C   UNL     1      -2.139  -7.110   0.083  0.00  0.00    -0.065 C 
ATOM     18  C   UNL     1      -3.477  -6.402   0.097  0.00  0.00    +0.031 C 
ATOM     19  C   UNL     1      -4.385  -7.058  -0.949  0.00  0.00    +0.004 C 
ATOM     20  C   UNL     1      -4.465  -8.562  -0.681  0.00  0.00    +0.001 C 
ATOM     21  C   UNL     1      -3.083  -9.194  -0.855  0.00  0.00    +0.004 C 
ATOM     22  C   UNL     1      -2.125  -8.619   0.188  0.00  0.00    +0.031 C 
ENDBRANCH  13  16
ENDBRANCH   3  12
TORSDOF 3
