REMARK  Name = ZINC06645877
REMARK  3 active torsions:
REMARK  status: ('A' for Active; 'I' for Inactive)
REMARK    1  A    between atoms: C_9  and  C_11
REMARK    2  A    between atoms: C_11  and  S_12
REMARK    3  A    between atoms: S_12  and  C_13
REMARK                            x       y       z     vdW  Elec       q    Type
REMARK                         _______ _______ _______ _____ _____    ______ ____
ROOT
ATOM      1  S   UNL     1       5.329   2.694  -1.741  0.00  0.00    -0.080 S 
ENDROOT
BRANCH   1   2
ATOM      2  C   UNL     1       7.068   2.775  -1.467  0.00  0.00    +0.168 A 
ATOM      3  N   UNL     1       8.016   2.826  -2.450  0.00  0.00    -0.333 N 
ATOM      4  H   UNL     1       7.849   2.824  -3.436  0.00  0.00    +0.168 HD
ATOM      5  C   UNL     1       9.252   2.881  -1.826  0.00  0.00    +0.067 A 
ATOM      6  C   UNL     1      10.558   2.946  -2.285  0.00  0.00    +0.029 A 
ATOM      7  C   UNL     1      11.602   2.991  -1.384  0.00  0.00    +0.017 A 
ATOM      8  C   UNL     1      11.353   2.971  -0.019  0.00  0.00    +0.020 A 
ATOM      9  C   UNL     1      10.061   2.907   0.455  0.00  0.00    +0.045 A 
ATOM     10  C   UNL     1       8.993   2.861  -0.445  0.00  0.00    +0.091 A 
ATOM     11  N   UNL     1       7.645   2.802  -0.291  0.00  0.00    -0.222 NA
ATOM     12 BR   UNL     1      12.797   3.033   1.200  0.00  0.00    -0.050 Br
ENDBRANCH   1   2
BRANCH   1  13
ATOM     13  C   UNL     1       4.743   2.656  -0.029  0.00  0.00    +0.151 C 
BRANCH  13  22
ATOM     14  C   UNL     1      -1.214   1.752   0.017  0.00  0.00    +0.002 A 
ATOM     15  C   UNL     1      -1.240   3.139   0.031  0.00  0.00    +0.002 A 
ATOM     16  C   UNL     1      -0.078   3.858   0.023  0.00  0.00    +0.030 A 
ATOM     17  C   UNL     1       1.151   3.194   0.008  0.00  0.00    +0.089 A 
ATOM     18  C   UNL     1       1.178   1.790   0.000  0.00  0.00    +0.066 A 
ATOM     19  C   UNL     1      -0.013   1.076   0.008  0.00  0.00    +0.028 A 
ATOM     20  N   UNL     1       2.512   1.434  -0.014  0.00  0.00    -0.341 N 
ATOM     21  H   UNL     1       2.877   0.503  -0.022  0.00  0.00    +0.167 HD
ATOM     22  C   UNL     1       3.238   2.585  -0.015  0.00  0.00    +0.118 A 
ATOM     23  N   UNL     1       2.442   3.615  -0.002  0.00  0.00    -0.232 NA
ENDBRANCH  13  22
ENDBRANCH   1  13
TORSDOF 3
