REMARK  Name = ZINC27880199
REMARK  4 active torsions:
REMARK  status: ('A' for Active; 'I' for Inactive)
REMARK    1  A    between atoms: C_1  and  C_2
REMARK    2  A    between atoms: C_2  and  C_4
REMARK    3  A    between atoms: C_2  and  N_10
REMARK    4  A    between atoms: C_11  and  C_13
REMARK                            x       y       z     vdW  Elec       q    Type
REMARK                         _______ _______ _______ _____ _____    ______ ____
ROOT
ATOM      1  N   UNL     1       3.152  -2.006  -0.040  0.00  0.00    -0.305 N 
ATOM      2  C   UNL     1       1.825  -1.770  -0.026  0.00  0.00    +0.261 C 
ATOM      3  O   UNL     1       1.041  -2.701  -0.024  0.00  0.00    -0.269 OA
ATOM      4  H   UNL     1       3.860  -1.165  -0.041  0.00  0.00    +0.149 HD
ENDROOT
BRANCH   2   5
ATOM      5  C   UNL     1       1.325  -0.391  -0.013  0.00  0.00    +0.103 A 
ATOM      6  C   UNL     1       0.002  -0.004   0.002  0.00  0.00    +0.047 A 
ATOM      7  C   UNL     1      -0.017   1.395   0.010  0.00  0.00    +0.036 A 
ATOM      8  C   UNL     1       1.267   1.827  -0.000  0.00  0.00    +0.098 A 
ATOM      9  N   UNL     1       2.092   0.752  -0.014  0.00  0.00    -0.356 N 
ATOM     10  H   UNL     1       3.190   0.677  -0.025  0.00  0.00    +0.165 HD
ATOM     11 BR   UNL     1      -1.560   2.487   0.023  0.00  0.00    -0.049 Br
ENDBRANCH   2   5
BRANCH   1  13
ATOM     12  C   UNL     1       3.720  -3.915   1.381  0.00  0.00    +0.030 C 
ATOM     13  C   UNL     1       3.651  -3.384  -0.052  0.00  0.00    +0.099 C 
BRANCH  13  14
ATOM     14  C   UNL     1       5.048  -3.414  -0.675  0.00  0.00    +0.138 C 
ATOM     15  C   UNL     1       5.039  -2.702  -2.051  0.00  0.00    +0.035 C 
ATOM     16  C   UNL     1       6.529  -2.280  -2.174  0.00  0.00    +0.031 C 
ATOM     17  C   UNL     1       6.905  -1.976  -0.709  0.00  0.00    +0.160 C 
ATOM     18  O   UNL     1       5.969  -2.663   0.131  0.00  0.00    -0.375 OA
ENDBRANCH  13  14
ENDBRANCH   1  13
TORSDOF 3
