REMARK  Name = ZINC23590684
REMARK  5 active torsions:
REMARK  status: ('A' for Active; 'I' for Inactive)
REMARK    1  A    between atoms: C_1  and  C_2
REMARK    2  A    between atoms: C_2  and  C_4
REMARK    3  A    between atoms: C_2  and  S_16
REMARK    4  A    between atoms: N_6  and  C_7
REMARK    5  A    between atoms: S_16  and  C_17
REMARK                            x       y       z     vdW  Elec       q    Type
REMARK                         _______ _______ _______ _____ _____    ______ ____
ROOT
ATOM      1  S   UNL     1       0.760  -0.688   2.129  0.00  0.00    -0.073 S 
ENDROOT
BRANCH   1   2
ATOM      2  C   UNL     1      -0.383  -0.073   3.321  0.00  0.00    +0.192 A 
ATOM      3  N   UNL     1      -1.445   0.612   2.913  0.00  0.00    -0.207 NA
ATOM      4  C   UNL     1      -2.339   1.093   3.760  0.00  0.00    +0.129 A 
ATOM      5  C   UNL     1      -2.157   0.884   5.156  0.00  0.00    +0.051 A 
ATOM      6  C   UNL     1      -3.005   1.326   6.265  0.00  0.00    -0.025 A 
ATOM      7  C   UNL     1      -2.607   0.995   7.510  0.00  0.00    -0.004 A 
ATOM      8  S   UNL     1      -1.099   0.089   7.287  0.00  0.00    -0.073 S 
ATOM      9  C   UNL     1      -1.006   0.156   5.517  0.00  0.00    +0.115 A 
ATOM     10  N   UNL     1      -0.162  -0.297   4.609  0.00  0.00    -0.214 NA
ATOM     11  C   UNL     1      -3.293   1.324   8.800  0.00  0.00    +0.043 C 
ATOM     12  C   UNL     1      -4.335   2.419   8.530  0.00  0.00    +0.005 C 
ATOM     13  C   UNL     1      -5.155   2.023   7.298  0.00  0.00    +0.005 C 
ATOM     14  C   UNL     1      -4.287   2.124   6.043  0.00  0.00    +0.037 C 
ATOM     15  N   UNL     1      -3.435   1.796   3.295  0.00  0.00    -0.343 N 
ATOM     16  H   UNL     1      -4.175   2.194   4.005  0.00  0.00    +0.144 HD
ATOM     17  H   UNL     1      -3.567   1.958   2.215  0.00  0.00    +0.144 HD
ENDBRANCH   1   2
BRANCH   1  19
ATOM     18  C   UNL     1      -0.017   1.429   0.585  0.00  0.00    +0.029 C 
ATOM     19  C   UNL     1      -0.027  -0.101   0.608  0.00  0.00    +0.137 C 
BRANCH  19  20
ATOM     20  C   UNL     1       0.730  -0.627  -0.584  0.00  0.00    +0.230 C 
ATOM     21  O   UNL     1       1.875  -1.007  -0.456  0.00  0.00    -0.274 OA
ATOM     22  N   UNL     1       0.136  -0.674  -1.793  0.00  0.00    -0.282 N 
ATOM     23  H   UNL     1      -0.867  -0.242  -1.930  0.00  0.00    +0.155 HD
BRANCH  22  24
ATOM     24  C   UNL     1       0.795  -1.273  -2.875  0.00  0.00    +0.072 A 
ATOM     25  C   UNL     1       1.626  -2.364  -2.665  0.00  0.00    +0.029 A 
ATOM     26  C   UNL     1       2.275  -2.955  -3.732  0.00  0.00    +0.043 A 
ATOM     27  C   UNL     1       2.097  -2.460  -5.013  0.00  0.00    +0.161 A 
ATOM     28  C   UNL     1       1.269  -1.370  -5.228  0.00  0.00    +0.195 A 
ATOM     29  C   UNL     1       0.612  -0.779  -4.161  0.00  0.00    +0.182 A 
ATOM     30  F   UNL     1      -0.201   0.280  -4.370  0.00  0.00    -0.200 F 
ATOM     31  F   UNL     1       1.097  -0.888  -6.478  0.00  0.00    -0.199 F 
ATOM     32  F   UNL     1       2.733  -3.040  -6.054  0.00  0.00    -0.202 F 
ENDBRANCH  22  24
ENDBRANCH  19  20
ENDBRANCH   1  19
TORSDOF 4
