REMARK  Name = ZINC50349856
REMARK  4 active torsions:
REMARK  status: ('A' for Active; 'I' for Inactive)
REMARK    1  A    between atoms: C_1  and  C_2
REMARK    2  A    between atoms: C_2  and  C_4
REMARK    3  A    between atoms: C_2  and  S_10
REMARK    4  A    between atoms: S_10  and  N_13
REMARK                            x       y       z     vdW  Elec       q    Type
REMARK                         _______ _______ _______ _____ _____    ______ ____
ROOT
ATOM      1  C   UNL     1      -0.019   1.526   0.010  0.00  0.00    +0.039 C 
ATOM      2  C   UNL     1       0.002  -0.004   0.002  0.00  0.00    +0.181 C 
ENDROOT
BRANCH   2   3
ATOM      3  C   UNL     1      -1.412  -0.526   0.013  0.00  0.00    +0.016 A 
ATOM      4  C   UNL     1      -2.023  -1.315   0.929  0.00  0.00    +0.014 A 
ATOM      5  C   UNL     1      -3.344  -1.674   0.731  0.00  0.00    +0.023 A 
ATOM      6  C   UNL     1      -3.988  -1.224  -0.375  0.00  0.00    +0.055 A 
ATOM      7  S   UNL     1      -2.718  -0.257  -1.174  0.00  0.00    -0.084 S 
ATOM      8 BR   UNL     1      -5.771  -1.535  -0.923  0.00  0.00    -0.043 Br
ENDBRANCH   2   3
BRANCH   2   9
ATOM      9  S   UNL     1       0.851  -0.589  -1.490  0.00  0.00    +0.034 S 
ATOM     10  O   UNL     1       1.037  -1.996  -1.428  0.00  0.00    -0.158 OA
ATOM     11  O   UNL     1       0.285   0.016  -2.645  0.00  0.00    -0.158 OA
BRANCH   9  12
ATOM     12  N   UNL     1       2.378   0.044  -1.387  0.00  0.00    -0.208 NA
ATOM     13  H   UNL     1       2.624   0.595  -0.628  0.00  0.00    +0.144 HD
ATOM     14  H   UNL     1       3.026  -0.137  -2.086  0.00  0.00    +0.144 HD
ENDBRANCH   9  12
ENDBRANCH   2   9
TORSDOF 3
