REMARK  Name = ZINC40941438
REMARK  3 active torsions:
REMARK  status: ('A' for Active; 'I' for Inactive)
REMARK    1  A    between atoms: C_4  and  N_8
REMARK    2  A    between atoms: C_5  and  N_7
REMARK    3  A    between atoms: C_14  and  C_16
REMARK                            x       y       z     vdW  Elec       q    Type
REMARK                         _______ _______ _______ _____ _____    ______ ____
ROOT
ATOM      1  N   UNL     1       3.633  -0.640  -0.037  0.00  0.00    -0.325 N 
ATOM      2  C   UNL     1       4.278  -0.990  -1.311  0.00  0.00    +0.124 C 
ATOM      3  C   UNL     1       5.698  -0.411  -1.317  0.00  0.00    +0.126 C 
ATOM      4  N   UNL     1       6.363  -0.784  -0.061  0.00  0.00    -0.298 N 
ATOM      5  C   UNL     1       5.718  -0.435   1.213  0.00  0.00    +0.126 C 
ATOM      6  C   UNL     1       4.301  -1.009   1.219  0.00  0.00    +0.124 C 
ATOM      7  C   UNL     1       7.542  -1.436  -0.077  0.00  0.00    +0.221 C 
ATOM      8  O   UNL     1       8.064  -1.720  -1.134  0.00  0.00    -0.275 OA
ENDROOT
BRANCH   1  12
ATOM      9  C   UNL     1      -0.017   1.379   0.010  0.00  0.00    +0.002 A 
ATOM     10  C   UNL     1       1.169   2.090   0.002  0.00  0.00    +0.002 A 
ATOM     11  C   UNL     1       2.380   1.423  -0.013  0.00  0.00    +0.025 A 
ATOM     12  C   UNL     1       2.408   0.037  -0.021  0.00  0.00    +0.051 A 
ATOM     13  C   UNL     1       1.212  -0.681  -0.013  0.00  0.00    +0.046 A 
ATOM     14  C   UNL     1       0.002  -0.004   0.002  0.00  0.00    +0.024 A 
BRANCH  13  15
ATOM     15  N   UNL     1       1.234  -2.081  -0.021  0.00  0.00    -0.357 N 
ATOM     16  H   UNL     1       2.081  -2.553  -0.033  0.00  0.00    +0.142 HD
ATOM     17  H   UNL     1       0.401  -2.579  -0.016  0.00  0.00    +0.142 HD
ENDBRANCH  13  15
ENDBRANCH   1  12
BRANCH   7  18
ATOM     18  C   UNL     1       8.212  -1.813   1.220  0.00  0.00    +0.103 C 
ATOM     19  C   UNL     1       9.585  -2.490   0.956  0.00  0.00    +0.043 C 
ATOM     20  C   UNL     1      10.348  -2.123   2.253  0.00  0.00    +0.160 C 
ATOM     21  O   UNL     1       9.908  -0.797   2.585  0.00  0.00    -0.379 OA
ATOM     22  C   UNL     1       8.611  -0.553   2.018  0.00  0.00    +0.172 C 
ENDBRANCH   7  18
TORSDOF 3
