REMARK  Name = ZINC38040450
REMARK  4 active torsions:
REMARK  status: ('A' for Active; 'I' for Inactive)
REMARK    1  A    between atoms: C_1  and  C_2
REMARK    2  A    between atoms: C_5  and  S_7
REMARK    3  A    between atoms: S_7  and  C_8
REMARK    4  A    between atoms: C_11  and  N_15
REMARK                            x       y       z     vdW  Elec       q    Type
REMARK                         _______ _______ _______ _____ _____    ______ ____
ROOT
ATOM      1  C   UNL     1       0.069  -5.212  -0.692  0.00  0.00    +0.085 A 
ATOM      2  C   UNL     1      -1.132  -5.567  -1.295  0.00  0.00    +0.142 A 
ATOM      3  C   UNL     1      -1.126  -6.253  -2.496  0.00  0.00    +0.062 A 
ATOM      4  C   UNL     1       0.079  -6.586  -3.100  0.00  0.00    +0.030 A 
ATOM      5  C   UNL     1       1.279  -6.231  -2.498  0.00  0.00    +0.062 A 
ATOM      6  C   UNL     1       1.275  -5.541  -1.300  0.00  0.00    +0.142 A 
ATOM      7  F   UNL     1       2.443  -5.191  -0.718  0.00  0.00    -0.204 F 
ATOM      8  F   UNL     1      -2.304  -5.244  -0.707  0.00  0.00    -0.204 F 
ENDROOT
BRANCH   4   9
ATOM      9  N   UNL     1       0.084  -7.279  -4.315  0.00  0.00    -0.358 N 
ATOM     10  H   UNL     1      -0.754  -7.527  -4.736  0.00  0.00    +0.142 HD
ATOM     11  H   UNL     1       0.925  -7.512  -4.737  0.00  0.00    +0.142 HD
ENDBRANCH   4   9
BRANCH   1  12
ATOM     12  S   UNL     1       0.063  -4.338   0.838  0.00  0.00    -0.055 S 
BRANCH  12  17
ATOM     13  C   UNL     1      -0.018   1.503   0.010  0.00  0.00    +0.075 C 
ATOM     14  C   UNL     1       0.002  -0.004   0.002  0.00  0.00    +0.100 A 
ATOM     15  N   UNL     1       0.010  -0.845  -1.012  0.00  0.00    -0.146 NA
ATOM     16  N   UNL     1       0.027  -2.095  -0.849  0.00  0.00    -0.134 NA
ATOM     17  C   UNL     1       0.039  -2.642   0.361  0.00  0.00    +0.163 A 
ATOM     18  S   UNL     1       0.031  -1.162   1.368  0.00  0.00    -0.044 S 
ENDBRANCH  12  17
ENDBRANCH   1  12
TORSDOF 3
