REMARK  Name = ZINC50251517
REMARK  3 active torsions:
REMARK  status: ('A' for Active; 'I' for Inactive)
REMARK    1  A    between atoms: C_5  and  C_7
REMARK    2  A    between atoms: C_7  and  N_8
REMARK    3  A    between atoms: C_15  and  C_18
REMARK                            x       y       z     vdW  Elec       q    Type
REMARK                         _______ _______ _______ _____ _____    ______ ____
ROOT
ATOM      1  C   UNL     1      -0.037   1.611  -0.192  0.00  0.00    +0.022 C 
ATOM      2  C   UNL     1       1.465   1.961  -0.149  0.00  0.00    +0.109 C 
ATOM      3  N   UNL     1       2.203   0.776  -0.611  0.00  0.00    -0.285 N 
ATOM      4  C   UNL     1       1.233  -0.278  -0.961  0.00  0.00    +0.111 C 
ATOM      5  C   UNL     1      -0.034   0.060  -0.137  0.00  0.00    -0.010 C 
ATOM      6  C   UNL     1       3.543   0.672  -0.701  0.00  0.00    +0.305 C 
ATOM      7  O   UNL     1       4.051  -0.387  -1.018  0.00  0.00    -0.252 OA
ATOM      8  N   UNL     1       4.322   1.740  -0.439  0.00  0.00    -0.280 N 
ATOM      9  C   UNL     1       3.751   2.973   0.126  0.00  0.00    +0.137 C 
ATOM     10  C   UNL     1       4.216   4.158  -0.728  0.00  0.00    +0.180 C 
ATOM     11  O   UNL     1       5.640   4.117  -0.855  0.00  0.00    -0.362 OA
ATOM     12  C   UNL     1       6.135   2.955  -1.524  0.00  0.00    +0.248 C 
ATOM     13  C   UNL     1       5.769   1.707  -0.705  0.00  0.00    +0.152 C 
ENDROOT
BRANCH  12  14
ATOM     14  C   UNL     1       7.633   3.049  -1.655  0.00  0.00    +0.386 C 
ATOM     15  O   UNL     1       8.233   3.975  -1.136  0.00  0.00    -0.243 OA
ATOM     16  O   UNL     1       8.245   2.200  -2.279  0.00  0.00    -0.243 OA
ENDBRANCH  12  14
BRANCH   5  17
ATOM     17  C   UNL     1      -1.288  -0.514  -0.799  0.00  0.00    -0.081 C 
BRANCH  17  18
ATOM     18  N   UNL     1      -2.471  -0.148  -0.009  0.00  0.00    +0.378 N 
ATOM     19  H   UNL     1      -2.382  -0.522   0.924  0.00  0.00    -0.090 HD
ATOM     20  H   UNL     1      -2.546   0.857   0.038  0.00  0.00    -0.090 HD
ATOM     21  H   UNL     1      -3.298  -0.527  -0.445  0.00  0.00    -0.090 HD
ENDBRANCH  17  18
ENDBRANCH   5  17
TORSDOF 3
