REMARK  Name = ZINC17157804
REMARK  7 active torsions:
REMARK  status: ('A' for Active; 'I' for Inactive)
REMARK    1  A    between atoms: C_4  and  S_8
REMARK    2  A    between atoms: S_8  and  N_11
REMARK    3  A    between atoms: N_11  and  C_12
REMARK    4  A    between atoms: C_12  and  C_13
REMARK    5  A    between atoms: C_13  and  C_14
REMARK    6  A    between atoms: N_16  and  N_17
REMARK    7  A    between atoms: C_18  and  C_20
REMARK                            x       y       z     vdW  Elec       q    Type
REMARK                         _______ _______ _______ _____ _____    ______ ____
ROOT
ATOM      1  C   UNL     1      -7.281   1.168   2.100  0.00  0.00    +0.230 C 
ATOM      2  O   UNL     1      -6.886   1.865   3.009  0.00  0.00    -0.274 OA
ATOM      3  N   UNL     1      -6.457   0.859   1.079  0.00  0.00    -0.234 N 
ATOM      4  H   UNL     1      -6.816   0.226   0.254  0.00  0.00    +0.173 HD
ENDROOT
BRANCH   3   5
ATOM      5  N   UNL     1      -5.143   1.344   1.069  0.00  0.00    -0.234 N 
ATOM      6  C   UNL     1      -4.318   1.035   0.049  0.00  0.00    +0.235 C 
ATOM      7  O   UNL     1      -4.714   0.337  -0.861  0.00  0.00    -0.274 OA
ATOM      8  H   UNL     1      -4.784   1.976   1.894  0.00  0.00    +0.173 HD
BRANCH   6   9
ATOM      9  C   UNL     1      -2.904   1.556   0.038  0.00  0.00    +0.049 C 
ATOM     10  C   UNL     1      -2.188   1.063  -1.221  0.00  0.00    +0.019 C 
ATOM     11  C   UNL     1      -0.753   1.593  -1.232  0.00  0.00    -0.009 C 
ATOM     12  C   UNL     1      -0.013   1.086   0.008  0.00  0.00    +0.007 C 
ATOM     13  C   UNL     1      -0.729   1.579   1.267  0.00  0.00    -0.009 C 
ATOM     14  C   UNL     1      -2.164   1.050   1.278  0.00  0.00    +0.019 C 
ATOM     15  C   UNL     1      -0.750   3.109   1.275  0.00  0.00    +0.007 C 
ATOM     16  C   UNL     1      -1.490   3.616   0.036  0.00  0.00    -0.009 C 
ATOM     17  C   UNL     1      -0.773   3.123  -1.223  0.00  0.00    +0.007 C 
ATOM     18  C   UNL     1      -2.925   3.086   0.047  0.00  0.00    +0.019 C 
ENDBRANCH   6   9
ENDBRANCH   3   5
BRANCH   1  19
ATOM     19  C   UNL     1      -8.695   0.646   2.110  0.00  0.00    +0.114 C 
BRANCH  19  20
ATOM     20  C   UNL     1      -9.411   1.139   3.369  0.00  0.00    +0.115 C 
BRANCH  20  21
ATOM     21  N   UNL     1     -10.786   0.632   3.380  0.00  0.00    -0.189 NA
ATOM     22  H   UNL     1     -11.282   0.369   2.434  0.00  0.00    +0.148 HD
BRANCH  21  23
ATOM     23  S   UNL     1     -11.678   0.686   4.774  0.00  0.00    +0.061 S 
ATOM     24  O   UNL     1     -12.957   0.154   4.458  0.00  0.00    -0.153 OA
ATOM     25  O   UNL     1     -10.859   0.144   5.801  0.00  0.00    -0.153 OA
BRANCH  23  29
ATOM     26  C   UNL     1     -12.308   5.054   5.791  0.00  0.00    +0.003 A 
ATOM     27  C   UNL     1     -13.388   4.257   5.462  0.00  0.00    +0.002 A 
ATOM     28  C   UNL     1     -13.195   2.925   5.145  0.00  0.00    +0.031 A 
ATOM     29  C   UNL     1     -11.923   2.386   5.170  0.00  0.00    +0.140 A 
ATOM     30  C   UNL     1     -10.840   3.183   5.500  0.00  0.00    +0.150 A 
ATOM     31  C   UNL     1     -11.034   4.518   5.811  0.00  0.00    +0.040 A 
ATOM     32  F   UNL     1      -9.595   2.659   5.518  0.00  0.00    -0.203 F 
ENDBRANCH  23  29
ENDBRANCH  21  23
ENDBRANCH  20  21
ENDBRANCH  19  20
ENDBRANCH   1  19
TORSDOF 7
