REMARK  Name = ZINC36254711
REMARK  5 active torsions:
REMARK  status: ('A' for Active; 'I' for Inactive)
REMARK    1  A    between atoms: C_1  and  C_2
REMARK    2  A    between atoms: C_5  and  C_9
REMARK    3  A    between atoms: C_7  and  C_8
REMARK    4  A    between atoms: CA_15  and  C_17
REMARK    5  A    between atoms: C_17  and  O_18
REMARK                            x       y       z     vdW  Elec       q    Type
REMARK                         _______ _______ _______ _____ _____    ______ ____
ROOT
ATOM      1  C   UNL     1       0.060  -4.251  -0.021  0.00  0.00    +0.062 A 
ATOM      2  C   UNL     1       1.127  -4.911   0.468  0.00  0.00    +0.075 A 
ATOM      3  S   UNL     1       0.651  -6.615   0.227  0.00  0.00    -0.057 S 
ATOM      4  C   UNL     1      -0.939  -6.319  -0.510  0.00  0.00    +0.178 A 
ATOM      5  N   UNL     1      -1.021  -4.952  -0.527  0.00  0.00    -0.293 N 
ATOM      6  C   UNL     1      -2.262  -4.677  -1.095  0.00  0.00    +0.119 A 
ATOM      7  CA  UNL     1      -2.851  -5.851  -1.378  0.00  0.00    +0.086 A 
ATOM      8  N   UNL     1      -2.019  -6.840  -1.018  0.00  0.00    -0.224 NA
ENDROOT
BRANCH   1  13
ATOM      9  C   UNL     1      -0.018   1.503   0.010  0.00  0.00    +0.044 C 
ATOM     10  C   UNL     1       0.002  -0.004   0.002  0.00  0.00    -0.047 A 
ATOM     11  C   UNL     1       0.006  -0.686  -1.202  0.00  0.00    +0.004 A 
ATOM     12  C   UNL     1       0.024  -2.066  -1.216  0.00  0.00    +0.010 A 
ATOM     13  C   UNL     1       0.040  -2.773  -0.013  0.00  0.00    -0.000 A 
ATOM     14  C   UNL     1       0.037  -2.079   1.197  0.00  0.00    +0.013 A 
ATOM     15  C   UNL     1       0.023  -0.699   1.198  0.00  0.00    -0.047 A 
ATOM     16  C   UNL     1       0.025   0.052   2.504  0.00  0.00    +0.044 C 
ENDBRANCH   1  13
BRANCH   7  17
ATOM     17  C   UNL     1      -4.210  -6.027  -2.005  0.00  0.00    +0.212 C 
BRANCH  17  18
ATOM     18  O   UNL     1      -4.788  -4.745  -2.256  0.00  0.00    -0.389 OA
ATOM     19  H   UNL     1      -5.666  -4.781  -2.660  0.00  0.00    +0.210 HD
ENDBRANCH  17  18
ENDBRANCH   7  17
TORSDOF 3
