REMARK  Name = ZINC49569180
REMARK  1 active torsions:
REMARK  status: ('A' for Active; 'I' for Inactive)
REMARK    1  A    between atoms: C_5  and  N_11
REMARK                            x       y       z     vdW  Elec       q    Type
REMARK                         _______ _______ _______ _____ _____    ______ ____
ROOT
ATOM      1  C   UNL     1      -0.019   1.533   0.011  0.00  0.00    -0.020 C 
ATOM      2  C   UNL     1       1.457   1.969  -0.001  0.00  0.00    -0.015 C 
ATOM      3  C   UNL     1       2.281   0.669  -0.003  0.00  0.00    -0.048 C 
ATOM      4  C   UNL     1       3.375   0.783   1.078  0.00  0.00    +0.057 C 
ATOM      5  C   UNL     1       2.971  -0.230   2.174  0.00  0.00    +0.002 C 
ATOM      6  C   UNL     1       1.455  -0.430   1.921  0.00  0.00    -0.077 C 
ATOM      7  N   UNL     1       1.353  -0.408   0.424  0.00  0.00    +0.383 N 
ATOM      8  C   UNL     1       0.002  -0.004   0.002  0.00  0.00    -0.078 C 
ATOM      9  H   UNL     1       1.621  -1.296   0.025  0.00  0.00    -0.081 HD
ENDROOT
BRANCH   4  10
ATOM     10  N   UNL     1       4.682   0.432   0.517  0.00  0.00    -0.321 N 
ATOM     11  C   UNL     1       5.843   0.935   1.093  0.00  0.00    +0.183 A 
ATOM     12  N   UNL     1       5.982   1.727   2.138  0.00  0.00    -0.125 NA
ATOM     13  N   UNL     1       7.239   2.109   2.545  0.00  0.00    -0.132 NA
ATOM     14  C   UNL     1       8.300   1.681   1.889  0.00  0.00    +0.171 A 
ATOM     15  S   UNL     1       7.546   0.674   0.620  0.00  0.00    -0.024 S 
ATOM     16  S   UNL     1      10.005   2.009   2.187  0.00  0.00    -0.021 SA
ATOM     17  H   UNL     1       4.738  -0.150  -0.256  0.00  0.00    +0.148 HD
ENDBRANCH   4  10
TORSDOF 1
