REMARK  Name = ZINC50200181
REMARK  4 active torsions:
REMARK  status: ('A' for Active; 'I' for Inactive)
REMARK    1  A    between atoms: C_7  and  C_20
REMARK    2  A    between atoms: C_8  and  N_10
REMARK    3  A    between atoms: N_10  and  S_11
REMARK    4  A    between atoms: S_11  and  C_14
REMARK                            x       y       z     vdW  Elec       q    Type
REMARK                         _______ _______ _______ _____ _____    ______ ____
ROOT
ATOM      1  C   UNL     1      -0.019   1.518   0.010  0.00  0.00    +0.018 C 
ATOM      2  C   UNL     1       1.433   2.008  -0.001  0.00  0.00    -0.077 C 
ATOM      3  N   UNL     1       2.175   1.370  -1.095  0.00  0.00    +0.382 N 
ATOM      4  C   UNL     1       2.424  -0.046  -0.766  0.00  0.00    -0.039 C 
ATOM      5  C   UNL     1       1.126  -0.667  -0.353  0.00  0.00    -0.021 A 
ATOM      6  C   UNL     1       0.002  -0.004   0.002  0.00  0.00    -0.021 A 
ATOM      7  C   UNL     1      -1.112  -0.864   0.352  0.00  0.00    +0.087 A 
ATOM      8  C   UNL     1      -0.897  -2.234   0.286  0.00  0.00    +0.129 A 
ATOM      9  S   UNL     1       0.700  -2.376  -0.214  0.00  0.00    -0.076 S 
ATOM     10  H   UNL     1       1.635   1.427  -1.946  0.00  0.00    -0.085 HD
ATOM     11  H   UNL     1       3.057   1.844  -1.225  0.00  0.00    -0.085 HD
ENDROOT
BRANCH   7  12
ATOM     12  C   UNL     1      -2.377  -0.324   0.747  0.00  0.00    +0.102 C 
ATOM     13  N   UNL     1      -3.382   0.104   1.061  0.00  0.00    -0.191 NA
ENDBRANCH   7  12
BRANCH   8  14
ATOM     14  N   UNL     1      -1.794  -3.249   0.569  0.00  0.00    -0.094 NA
BRANCH  14  15
ATOM     15  S   UNL     1      -1.325  -4.831   0.424  0.00  0.00    +0.066 S 
ATOM     16  O   UNL     1      -1.043  -5.000  -0.959  0.00  0.00    -0.153 OA
ATOM     17  O   UNL     1      -0.303  -4.997   1.397  0.00  0.00    -0.153 OA
BRANCH  15  18
ATOM     18  C   UNL     1      -2.791  -5.795   0.885  0.00  0.00    +0.157 C 
ATOM     19  C   UNL     1      -3.264  -5.373   2.279  0.00  0.00    +0.056 C 
ATOM     20  C   UNL     1      -4.452  -6.246   2.692  0.00  0.00    +0.162 C 
ATOM     21  O   UNL     1      -4.064  -7.621   2.663  0.00  0.00    -0.380 OA
ATOM     22  C   UNL     1      -3.657  -8.085   1.374  0.00  0.00    +0.162 C 
ATOM     23  C   UNL     1      -2.437  -7.286   0.908  0.00  0.00    +0.056 C 
ENDBRANCH  15  18
ENDBRANCH  14  15
ENDBRANCH   8  14
TORSDOF 4
