REMARK  Name = ZINC32917719
REMARK  5 active torsions:
REMARK  status: ('A' for Active; 'I' for Inactive)
REMARK    1  A    between atoms: C_6  and  N_7
REMARK    2  A    between atoms: C_8  and  C_10
REMARK    3  A    between atoms: C_10  and  C_11
REMARK    4  A    between atoms: C_14  and  S_16
REMARK    5  A    between atoms: S_16  and  N_19
REMARK                            x       y       z     vdW  Elec       q    Type
REMARK                         _______ _______ _______ _____ _____    ______ ____
ROOT
ATOM      1  N   UNL     1      -8.076   3.201   2.256  0.00  0.00    -0.285 N 
ATOM      2  C   UNL     1      -8.611   2.056   2.725  0.00  0.00    +0.222 C 
ATOM      3  O   UNL     1      -7.943   1.044   2.756  0.00  0.00    -0.275 OA
ATOM      4  H   UNL     1      -8.651   4.137   2.308  0.00  0.00    +0.155 HD
ENDROOT
BRANCH   1  10
ATOM      5  C   UNL     1      -5.968   4.309   1.852  0.00  0.00    +0.027 A 
ATOM      6  C   UNL     1      -4.698   4.308   1.308  0.00  0.00    +0.051 A 
ATOM      7  C   UNL     1      -4.240   3.201   0.613  0.00  0.00    +0.167 A 
ATOM      8  C   UNL     1      -5.061   2.085   0.462  0.00  0.00    +0.169 A 
ATOM      9  C   UNL     1      -6.334   2.087   1.008  0.00  0.00    +0.072 A 
ATOM     10  C   UNL     1      -6.789   3.199   1.704  0.00  0.00    +0.037 A 
ATOM     11  O   UNL     1      -4.387   1.139  -0.255  0.00  0.00    -0.447 OA
ATOM     12  C   UNL     1      -3.008   1.533  -0.209  0.00  0.00    +0.254 C 
ATOM     13  O   UNL     1      -3.049   2.953  -0.011  0.00  0.00    -0.448 OA
ATOM     14  C   UNL     1      -2.320   1.202  -1.530  0.00  0.00    +0.093 C 
ATOM     15  C   UNL     1      -0.859   1.655  -1.474  0.00  0.00    +0.008 C 
ATOM     16  C   UNL     1      -0.151   0.943  -0.320  0.00  0.00    +0.000 C 
ATOM     17  C   UNL     1      -0.836   1.303   1.000  0.00  0.00    +0.008 C 
ATOM     18  C   UNL     1      -2.298   0.851   0.955  0.00  0.00    +0.093 C 
ENDBRANCH   1  10
BRANCH   2  19
ATOM     19  C   UNL     1     -10.037   2.033   3.209  0.00  0.00    +0.138 C 
BRANCH  19  20
ATOM     20  C   UNL     1     -10.386   0.643   3.677  0.00  0.00    +0.000 A 
ATOM     21  C   UNL     1     -10.258   0.101   4.913  0.00  0.00    +0.013 A 
ATOM     22  C   UNL     1     -10.649  -1.209   5.114  0.00  0.00    +0.036 A 
ATOM     23  C   UNL     1     -11.149  -1.914   4.069  0.00  0.00    +0.142 A 
ATOM     24  S   UNL     1     -11.084  -0.714   2.750  0.00  0.00    -0.073 S 
BRANCH  23  25
ATOM     25  S   UNL     1     -11.720  -3.580   4.027  0.00  0.00    +0.062 S 
ATOM     26  O   UNL     1     -11.607  -4.014   2.678  0.00  0.00    -0.153 OA
ATOM     27  O   UNL     1     -11.080  -4.256   5.101  0.00  0.00    -0.153 OA
BRANCH  25  28
ATOM     28  N   UNL     1     -13.337  -3.552   4.381  0.00  0.00    -0.203 NA
ATOM     29  H   UNL     1     -13.734  -4.578   4.365  0.00  0.00    +0.144 HD
ATOM     30  H   UNL     1     -13.866  -2.943   3.634  0.00  0.00    +0.144 HD
ENDBRANCH  25  28
ENDBRANCH  23  25
ENDBRANCH  19  20
ENDBRANCH   2  19
TORSDOF 5
