REMARK  Name = ZINC37716927
REMARK  5 active torsions:
REMARK  status: ('A' for Active; 'I' for Inactive)
REMARK    1  A    between atoms: C_3  and  C_8
REMARK    2  A    between atoms: C_8  and  C_9
REMARK    3  A    between atoms: C_11  and  C_14
REMARK    4  A    between atoms: C_18  and  C_20
REMARK    5  A    between atoms: C_20  and  N_21
REMARK                            x       y       z     vdW  Elec       q    Type
REMARK                         _______ _______ _______ _____ _____    ______ ____
ROOT
ATOM      1  C   UNL     1       4.117   2.433   1.396  0.00  0.00    +0.176 A 
ATOM      2  N   UNL     1       3.785   3.493   2.136  0.00  0.00    -0.191 NA
ATOM      3  C   UNL     1       4.340   3.402   3.324  0.00  0.00    +0.258 A 
ATOM      4  O   UNL     1       5.050   2.262   3.365  0.00  0.00    -0.333 OA
ATOM      5  N   UNL     1       4.884   1.646   2.096  0.00  0.00    -0.061 NA
ENDROOT
BRANCH   3   6
ATOM      6  C   UNL     1       4.207   4.383   4.422  0.00  0.00    +0.040 A 
ATOM      7  C   UNL     1       3.430   5.529   4.247  0.00  0.00    +0.013 A 
ATOM      8  C   UNL     1       3.309   6.440   5.276  0.00  0.00    +0.001 A 
ATOM      9  C   UNL     1       3.957   6.220   6.479  0.00  0.00    +0.002 A 
ATOM     10  C   UNL     1       4.729   5.086   6.659  0.00  0.00    -0.064 A 
ATOM     11  C   UNL     1       4.852   4.163   5.640  0.00  0.00    +0.015 A 
BRANCH  10  12
ATOM     12  C   UNL     1       5.431   4.854   7.972  0.00  0.00    -0.051 C 
BRANCH  12  13
ATOM     13  N   UNL     1       4.549   4.098   8.871  0.00  0.00    +0.381 N 
ATOM     14  H   UNL     1       5.019   3.943   9.751  0.00  0.00    -0.090 HD
ATOM     15  H   UNL     1       3.702   4.623   9.031  0.00  0.00    -0.090 HD
ATOM     16  H   UNL     1       4.321   3.210   8.451  0.00  0.00    -0.090 HD
ENDBRANCH  12  13
ENDBRANCH  10  12
ENDBRANCH   3   6
BRANCH   1  17
ATOM     17  C   UNL     1       3.672   2.183  -0.022  0.00  0.00    +0.115 C 
BRANCH  17  20
ATOM     18  C   UNL     1      -0.017   1.378   0.010  0.00  0.00    +0.001 A 
ATOM     19  C   UNL     1       1.171   2.086   0.002  0.00  0.00    +0.004 A 
ATOM     20  C   UNL     1       2.378   1.411  -0.013  0.00  0.00    -0.039 A 
ATOM     21  C   UNL     1       2.397   0.029  -0.022  0.00  0.00    +0.019 A 
ATOM     22  C   UNL     1       1.210  -0.679  -0.014  0.00  0.00    +0.018 A 
ATOM     23  C   UNL     1       0.002  -0.004   0.002  0.00  0.00    +0.015 A 
ATOM     24 BR   UNL     1       1.236  -2.570  -0.025  0.00  0.00    -0.050 Br
ENDBRANCH  17  20
ENDBRANCH   1  17
TORSDOF 5
