REMARK  Name = ZINC39707849
REMARK  7 active torsions:
REMARK  status: ('A' for Active; 'I' for Inactive)
REMARK    1  A    between atoms: C_1  and  C_2
REMARK    2  A    between atoms: C_2  and  C_34
REMARK    3  A    between atoms: C_4  and  N_10
REMARK    4  A    between atoms: C_6  and  C_8
REMARK    5  A    between atoms: C_6  and  C_9
REMARK    6  A    between atoms: C_11  and  C_13
REMARK    7  A    between atoms: C_15  and  C_31
REMARK                            x       y       z     vdW  Elec       q    Type
REMARK                         _______ _______ _______ _____ _____    ______ ____
ROOT
ATOM      1  C   UNL     1       4.312  -0.866  -4.426  0.00  0.00    +0.101 C 
ATOM      2  C   UNL     1       4.542  -2.369  -4.295  0.00  0.00    +0.126 C 
ATOM      3  C   UNL     1       6.022  -2.734  -4.542  0.00  0.00    +0.064 C 
ATOM      4  C   UNL     1       6.354  -2.164  -5.912  0.00  0.00    -0.035 A 
ATOM      5  C   UNL     1       6.820  -2.894  -6.968  0.00  0.00    +0.004 A 
ATOM      6  C   UNL     1       7.083  -2.243  -8.167  0.00  0.00    +0.000 A 
ATOM      7  C   UNL     1       6.875  -0.881  -8.285  0.00  0.00    +0.000 A 
ATOM      8  C   UNL     1       6.401  -0.145  -7.206  0.00  0.00    +0.004 A 
ATOM      9  C   UNL     1       6.144  -0.792  -6.031  0.00  0.00    -0.035 A 
ATOM     10  C   UNL     1       5.623  -0.125  -4.768  0.00  0.00    +0.062 C 
ATOM     11  C   UNL     1       6.605  -0.519  -3.676  0.00  0.00    -0.035 A 
ATOM     12  C   UNL     1       6.816  -1.889  -3.558  0.00  0.00    -0.035 A 
ATOM     13  C   UNL     1       7.674  -2.385  -2.619  0.00  0.00    +0.004 A 
ATOM     14  C   UNL     1       8.336  -1.496  -1.782  0.00  0.00    +0.000 A 
ATOM     15  C   UNL     1       8.127  -0.134  -1.899  0.00  0.00    +0.000 A 
ATOM     16  C   UNL     1       7.253   0.360  -2.856  0.00  0.00    +0.004 A 
ENDROOT
BRANCH   1  18
ATOM     17  N   UNL     1       2.615  -0.819  -2.626  0.00  0.00    -0.312 N 
ATOM     18  C   UNL     1       3.770  -0.334  -3.123  0.00  0.00    +0.218 C 
ATOM     19  O   UNL     1       4.374   0.530  -2.523  0.00  0.00    -0.275 OA
ATOM     20  H   UNL     1       2.133  -1.510  -3.106  0.00  0.00    +0.149 HD
BRANCH  17  24
ATOM     21  C   UNL     1      -0.019   1.528   0.010  0.00  0.00    -0.010 C 
ATOM     22  C   UNL     1       0.002  -0.004   0.002  0.00  0.00    -0.072 C 
ATOM     23  C   UNL     1       0.573  -0.505  -1.321  0.00  0.00    +0.009 C 
ATOM     24  C   UNL     1       2.088  -0.301  -1.357  0.00  0.00    +0.070 C 
ATOM     25  C   UNL     1       2.703  -1.086  -0.198  0.00  0.00    +0.009 C 
ATOM     26  C   UNL     1       2.147  -0.590   1.133  0.00  0.00    -0.072 C 
ATOM     27  N   UNL     1       0.697  -0.529   1.164  0.00  0.00    +0.386 N 
ATOM     28  C   UNL     1       2.769   0.766   1.481  0.00  0.00    -0.010 C 
ATOM     29  C   UNL     1       2.600  -1.589   2.223  0.00  0.00    -0.010 C 
ATOM     30  C   UNL     1      -1.468  -0.478   0.079  0.00  0.00    -0.010 C 
ATOM     31  H   UNL     1       0.416   0.021   1.982  0.00  0.00    -0.084 HD
ATOM     32  H   UNL     1       0.341  -1.472   1.351  0.00  0.00    -0.084 HD
ENDBRANCH  17  24
ENDBRANCH   1  18
BRANCH   2  33
ATOM     33  C   UNL     1       3.683  -3.089  -5.301  0.00  0.00    +0.361 C 
ATOM     34  O   UNL     1       4.052  -4.154  -5.768  0.00  0.00    -0.246 OA
ATOM     35  O   UNL     1       2.618  -2.608  -5.649  0.00  0.00    -0.246 OA
ENDBRANCH   2  33
TORSDOF 3
