REMARK  Name = ZINC39665356
REMARK  9 active torsions:
REMARK  status: ('A' for Active; 'I' for Inactive)
REMARK    1  A    between atoms: C_1  and  C_2
REMARK    2  A    between atoms: C_4  and  C_11
REMARK    3  A    between atoms: C_5  and  C_7
REMARK    4  A    between atoms: C_15  and  C_24
REMARK    5  A    between atoms: N_26  and  C_27
REMARK    6  A    between atoms: C_27  and  C_28
REMARK    7  A    between atoms: C_28  and  C_30
REMARK    8  A    between atoms: C_28  and  O_31
REMARK    9  A    between atoms: O_31  and  C_32
REMARK                            x       y       z     vdW  Elec       q    Type
REMARK                         _______ _______ _______ _____ _____    ______ ____
ROOT
ATOM      1  C   UNL     1      -1.396  -3.489   0.088  0.00  0.00    +0.250 C 
ATOM      2  O   UNL     1      -0.849  -4.571  -0.010  0.00  0.00    -0.270 OA
ATOM      3  N   UNL     1      -2.739  -3.419   0.182  0.00  0.00    -0.296 N 
ATOM      4  C   UNL     1      -3.587  -2.204   0.186  0.00  0.00    +0.121 C 
ATOM      5  C   UNL     1      -4.824  -2.588  -0.656  0.00  0.00    +0.100 C 
ATOM      6  C   UNL     1      -4.894  -4.122  -0.572  0.00  0.00    -0.004 C 
ATOM      7  C   UNL     1      -3.701  -4.540   0.299  0.00  0.00    +0.115 C 
ATOM      8  C   UNL     1      -4.763  -4.734  -1.964  0.00  0.00    -0.010 C 
ATOM      9  C   UNL     1      -4.894  -6.256  -1.861  0.00  0.00    -0.082 C 
ATOM     10  N   UNL     1      -6.194  -6.599  -1.274  0.00  0.00    +0.379 N 
ATOM     11  C   UNL     1      -6.276  -6.086   0.099  0.00  0.00    -0.082 C 
ATOM     12  C   UNL     1      -6.204  -4.556   0.079  0.00  0.00    -0.010 C 
ATOM     13  H   UNL     1      -6.931  -6.190  -1.829  0.00  0.00    -0.086 HD
ATOM     14  H   UNL     1      -6.303  -7.603  -1.263  0.00  0.00    -0.086 HD
ENDROOT
BRANCH   1  18
ATOM     15  C   UNL     1       0.169   1.297   0.906  0.00  0.00    +0.086 C 
ATOM     16  C   UNL     1       0.082  -0.144   0.474  0.00  0.00    +0.103 A 
ATOM     17  C   UNL     1      -0.954  -0.964   0.707  0.00  0.00    +0.058 A 
ATOM     18  C   UNL     1      -0.591  -2.255   0.104  0.00  0.00    +0.087 A 
ATOM     19  C   UNL     1       0.648  -2.071  -0.438  0.00  0.00    +0.220 A 
ATOM     20  O   UNL     1       1.025  -0.809  -0.210  0.00  0.00    -0.455 OA
BRANCH  19  21
ATOM     21  C   UNL     1       1.452  -3.113  -1.172  0.00  0.00    +0.451 C 
ATOM     22  F   UNL     1       1.148  -3.060  -2.537  0.00  0.00    -0.163 F 
ATOM     23  F   UNL     1       2.816  -2.864  -0.988  0.00  0.00    -0.163 F 
ATOM     24  F   UNL     1       1.138  -4.382  -0.673  0.00  0.00    -0.163 F 
ENDBRANCH  19  21
ENDBRANCH   1  18
BRANCH   5  25
ATOM     25  C   UNL     1      -6.068  -1.970  -0.073  0.00  0.00    +0.218 C 
ATOM     26  O   UNL     1      -6.110  -1.687   1.105  0.00  0.00    -0.275 OA
ATOM     27  N   UNL     1      -7.136  -1.733  -0.861  0.00  0.00    -0.312 N 
ATOM     28  H   UNL     1      -7.103  -1.960  -1.804  0.00  0.00    +0.149 HD
BRANCH  27  29
ATOM     29  C   UNL     1      -8.346  -1.133  -0.294  0.00  0.00    +0.148 C 
BRANCH  29  30
ATOM     30  C   UNL     1      -9.398  -0.972  -1.393  0.00  0.00    +0.187 C 
ATOM     31  C   UNL     1     -10.614  -0.233  -0.831  0.00  0.00    +0.053 C 
BRANCH  30  32
ATOM     32  O   UNL     1      -9.800  -2.261  -1.861  0.00  0.00    -0.488 OA
BRANCH  32  33
ATOM     33  C   UNL     1     -10.308  -2.330  -3.119  0.00  0.00    +0.121 A 
ATOM     34  C   UNL     1     -10.324  -1.201  -3.925  0.00  0.00    +0.045 A 
ATOM     35  C   UNL     1     -10.841  -1.274  -5.204  0.00  0.00    +0.004 A 
ATOM     36  C   UNL     1     -11.341  -2.471  -5.681  0.00  0.00    +0.000 A 
ATOM     37  C   UNL     1     -11.326  -3.598  -4.880  0.00  0.00    +0.004 A 
ATOM     38  C   UNL     1     -10.805  -3.532  -3.603  0.00  0.00    +0.045 A 
ENDBRANCH  32  33
ENDBRANCH  30  32
ENDBRANCH  29  30
ENDBRANCH  27  29
ENDBRANCH   5  25
TORSDOF 7
