REMARK  Name = ZINC19852820
REMARK  4 active torsions:
REMARK  status: ('A' for Active; 'I' for Inactive)
REMARK    1  A    between atoms: C_1  and  C_2
REMARK    2  A    between atoms: C_4  and  C_15
REMARK    3  A    between atoms: C_5  and  C_14
REMARK    4  A    between atoms: N_6  and  C_7
REMARK                            x       y       z     vdW  Elec       q    Type
REMARK                         _______ _______ _______ _____ _____    ______ ____
ROOT
ATOM      1  C   UNL     1       3.634   0.625  -0.029  0.00  0.00    +0.064 C 
ATOM      2  C   UNL     1       2.128   0.679  -0.015  0.00  0.00    +0.022 A 
ATOM      3  C   UNL     1       1.389   1.802  -0.002  0.00  0.00    +0.031 A 
ATOM      4  C   UNL     1      -0.017   1.377   0.010  0.00  0.00    -0.003 A 
ATOM      5  C   UNL     1       0.002  -0.004   0.002  0.00  0.00    +0.028 A 
ATOM      6  N   UNL     1       1.297  -0.406  -0.013  0.00  0.00    -0.317 N 
ATOM      7  C   UNL     1      -1.205  -0.906   0.009  0.00  0.00    +0.064 C 
ENDROOT
BRANCH   4   8
ATOM      8  C   UNL     1      -1.199   2.244   0.020  0.00  0.00    +0.030 C 
ATOM      9  C   UNL     1      -1.052   3.595   0.027  0.00  0.00    +0.079 C 
ATOM     10  C   UNL     1      -2.078   4.659   0.038  0.00  0.00    +0.276 C 
ATOM     11  O   UNL     1      -3.272   4.402   0.042  0.00  0.00    -0.267 OA
ATOM     12  N   UNL     1      -1.636   5.898   0.042  0.00  0.00    -0.155 NA
ATOM     13  C   UNL     1      -0.345   6.190   0.037  0.00  0.00    +0.149 C 
ATOM     14  S   UNL     1       0.438   4.585   0.033  0.00  0.00    -0.052 S 
ATOM     15  N   UNL     1       0.248   7.426   0.041  0.00  0.00    -0.339 N 
ATOM     16  H   UNL     1       1.345   7.510   0.036  0.00  0.00    +0.144 HD
ATOM     17  H   UNL     1      -0.373   8.334   0.049  0.00  0.00    +0.144 HD
ENDBRANCH   4   8
BRANCH   6  18
ATOM     18  C   UNL     1       1.722  -1.742  -0.023  0.00  0.00    +0.047 A 
ATOM     19  C   UNL     1       1.465  -2.562   1.067  0.00  0.00    +0.027 A 
ATOM     20  C   UNL     1       1.880  -3.879   1.052  0.00  0.00    +0.017 A 
ATOM     21  C   UNL     1       2.562  -4.378  -0.043  0.00  0.00    +0.018 A 
ATOM     22  C   UNL     1       2.825  -3.561  -1.129  0.00  0.00    +0.017 A 
ATOM     23  C   UNL     1       2.407  -2.245  -1.121  0.00  0.00    +0.027 A 
ATOM     24 BR   UNL     1       3.136  -6.180  -0.057  0.00  0.00    -0.050 Br
ENDBRANCH   6  18
TORSDOF 2
