REMARK  Name = ZINC44792991
REMARK  8 active torsions:
REMARK  status: ('A' for Active; 'I' for Inactive)
REMARK    1  A    between atoms: C_1  and  S_2
REMARK    2  A    between atoms: S_2  and  C_5
REMARK    3  A    between atoms: C_5  and  C_6
REMARK    4  A    between atoms: C_6  and  C_7
REMARK    5  A    between atoms: C_7  and  N_8
REMARK    6  A    between atoms: C_9  and  C_11
REMARK    7  A    between atoms: C_11  and  C_16
REMARK    8  A    between atoms: N_17  and  O_18
REMARK                            x       y       z     vdW  Elec       q    Type
REMARK                         _______ _______ _______ _____ _____    ______ ____
ROOT
ATOM      1  C   UNL     1       2.546  -5.673  -4.518  0.00  0.00    +0.105 C 
ATOM      2  C   UNL     1       1.138  -6.267  -4.734  0.00  0.00    +0.024 C 
ATOM      3  C   UNL     1       0.960  -6.271  -6.272  0.00  0.00    +0.001 C 
ATOM      4  C   UNL     1       2.373  -6.653  -6.779  0.00  0.00    +0.001 C 
ATOM      5  C   UNL     1       3.331  -5.919  -5.819  0.00  0.00    +0.024 C 
ENDROOT
BRANCH   1   6
ATOM      6  C   UNL     1       3.227  -6.365  -3.365  0.00  0.00    +0.147 C 
ATOM      7  N   UNL     1       4.369  -6.942  -3.542  0.00  0.00    -0.076 NA
ATOM      8  N   UNL     1       2.632  -6.381  -2.123  0.00  0.00    -0.343 N 
ATOM      9  H   UNL     1       1.812  -5.886  -1.972  0.00  0.00    +0.144 HD
ATOM     10  H   UNL     1       3.034  -6.888  -1.400  0.00  0.00    +0.144 HD
BRANCH   7  11
ATOM     11  O   UNL     1       5.010  -7.592  -2.459  0.00  0.00    -0.408 OA
ATOM     12  H   UNL     1       5.859  -7.994  -2.688  0.00  0.00    +0.328 HD
ENDBRANCH   7  11
ENDBRANCH   1   6
BRANCH   1  14
ATOM     13  N   UNL     1       3.565  -3.444  -4.183  0.00  0.00    -0.314 N 
ATOM     14  C   UNL     1       2.447  -4.194  -4.247  0.00  0.00    +0.226 C 
ATOM     15  O   UNL     1       1.361  -3.679  -4.085  0.00  0.00    -0.275 OA
ATOM     16  H   UNL     1       4.436  -3.867  -4.238  0.00  0.00    +0.149 HD
BRANCH  13  17
ATOM     17  C   UNL     1       3.464  -1.991  -4.031  0.00  0.00    +0.106 C 
BRANCH  17  18
ATOM     18  C   UNL     1       4.868  -1.384  -3.986  0.00  0.00    +0.041 C 
BRANCH  18  19
ATOM     19  C   UNL     1       4.762   0.134  -3.827  0.00  0.00    +0.167 C 
BRANCH  19  21
ATOM     20  C   UNL     1       6.092   2.626  -3.586  0.00  0.00    +0.194 C 
ATOM     21  S   UNL     1       6.427   0.853  -3.774  0.00  0.00    -0.034 S 
ATOM     22  O   UNL     1       7.047   0.645  -5.036  0.00  0.00    -0.175 OA
ATOM     23  O   UNL     1       7.079   0.392  -2.599  0.00  0.00    -0.175 OA
ENDBRANCH  19  21
ENDBRANCH  18  19
ENDBRANCH  17  18
ENDBRANCH  13  17
ENDBRANCH   1  14
TORSDOF 7
