REMARK  Name = ZINC37928503
REMARK  8 active torsions:
REMARK  status: ('A' for Active; 'I' for Inactive)
REMARK    1  A    between atoms: C_1  and  C_2
REMARK    2  A    between atoms: C_2  and  C_3
REMARK    3  A    between atoms: C_2  and  N_4
REMARK    4  A    between atoms: N_4  and  C_5
REMARK    5  A    between atoms: N_4  and  S_9
REMARK    6  A    between atoms: C_5  and  C_6
REMARK    7  A    between atoms: S_9  and  C_12
REMARK    8  A    between atoms: C_15  and  N_19
REMARK                            x       y       z     vdW  Elec       q    Type
REMARK                         _______ _______ _______ _____ _____    ______ ____
ROOT
ATOM      1  S   UNL     1      -1.913  -1.464  -1.230  0.00  0.00    +0.067 S 
ATOM      2  O   UNL     1      -3.328  -1.333  -1.256  0.00  0.00    -0.153 OA
ATOM      3  O   UNL     1      -1.099  -1.164  -2.355  0.00  0.00    -0.153 OA
ENDROOT
BRANCH   1   4
ATOM      4  C   UNL     1      -1.570  -3.136  -0.791  0.00  0.00    +0.176 A 
ATOM      5  C   UNL     1      -0.360  -3.709  -1.143  0.00  0.00    +0.154 A 
ATOM      6  C   UNL     1      -0.089  -5.021  -0.800  0.00  0.00    +0.063 A 
ATOM      7  C   UNL     1      -1.032  -5.764  -0.102  0.00  0.00    +0.030 A 
ATOM      8  C   UNL     1      -2.245  -5.187   0.251  0.00  0.00    +0.063 A 
ATOM      9  C   UNL     1      -2.510  -3.873  -0.089  0.00  0.00    +0.154 A 
ATOM     10  F   UNL     1      -3.687  -3.309   0.258  0.00  0.00    -0.203 F 
ATOM     11  F   UNL     1       0.557  -2.986  -1.823  0.00  0.00    -0.203 F 
BRANCH   7  12
ATOM     12  N   UNL     1      -0.761  -7.090   0.245  0.00  0.00    -0.358 N 
ATOM     13  H   UNL     1       0.086  -7.492  -0.002  0.00  0.00    +0.142 HD
ATOM     14  H   UNL     1      -1.420  -7.608   0.733  0.00  0.00    +0.142 HD
ENDBRANCH   7  12
ENDBRANCH   1   4
BRANCH   1  15
ATOM     15  N   UNL     1      -1.372  -0.511   0.012  0.00  0.00    -0.165 NA
BRANCH  15  17
ATOM     16  C   UNL     1      -0.019   1.526   0.010  0.00  0.00    +0.025 C 
ATOM     17  C   UNL     1       0.002  -0.004   0.002  0.00  0.00    +0.074 C 
ATOM     18  C   UNL     1       0.742  -0.511   1.242  0.00  0.00    +0.025 C 
ENDBRANCH  15  17
BRANCH  15  19
ATOM     19  C   UNL     1      -2.269  -0.175   1.122  0.00  0.00    +0.205 C 
BRANCH  19  20
ATOM     20  C   UNL     1      -2.916   1.159   0.858  0.00  0.00    +0.226 C 
ATOM     21  O   UNL     1      -2.655   1.770  -0.157  0.00  0.00    -0.275 OA
ATOM     22  N   UNL     1      -3.786   1.674   1.749  0.00  0.00    -0.328 N 
ATOM     23  H   UNL     1      -3.995   1.186   2.561  0.00  0.00    +0.145 HD
ATOM     24  H   UNL     1      -4.203   2.534   1.579  0.00  0.00    +0.145 HD
ENDBRANCH  19  20
ENDBRANCH  15  19
ENDBRANCH   1  15
TORSDOF 6
