REMARK  Name = ZINC60331551
REMARK  8 active torsions:
REMARK  status: ('A' for Active; 'I' for Inactive)
REMARK    1  A    between atoms: C_1  and  C_2
REMARK    2  A    between atoms: C_2  and  C_3
REMARK    3  A    between atoms: C_4  and  C_12
REMARK    4  A    between atoms: C_13  and  C_14
REMARK    5  A    between atoms: N_16  and  C_17
REMARK    6  A    between atoms: C_22  and  C_23
REMARK    7  A    between atoms: C_23  and  N_24
REMARK    8  A    between atoms: C_28  and  C_31
REMARK                            x       y       z     vdW  Elec       q    Type
REMARK                         _______ _______ _______ _____ _____    ______ ____
ROOT
ATOM      1  C   UNL     1       6.772  -2.330   2.203  0.00  0.00    +0.035 A 
ATOM      2  C   UNL     1       6.880  -1.176   2.970  0.00  0.00    +0.023 A 
ATOM      3  C   UNL     1       7.902  -1.054   3.890  0.00  0.00    +0.002 A 
ATOM      4  C   UNL     1       8.818  -2.078   4.050  0.00  0.00    +0.000 A 
ATOM      5  C   UNL     1       8.714  -3.227   3.289  0.00  0.00    +0.003 A 
ATOM      6  C   UNL     1       7.691  -3.359   2.370  0.00  0.00    -0.043 A 
ENDROOT
BRANCH   1   9
ATOM      7  C   UNL     1       5.304  -1.376   0.595  0.00  0.00    +0.241 C 
ATOM      8  O   UNL     1       5.752  -0.274   0.855  0.00  0.00    -0.270 OA
ATOM      9  N   UNL     1       5.739  -2.458   1.270  0.00  0.00    -0.282 N 
ATOM     10  H   UNL     1       5.336  -3.325   1.109  0.00  0.00    +0.155 HD
BRANCH   7  12
ATOM     11  C   UNL     1       3.887  -0.433  -1.096  0.00  0.00    +0.017 C 
ATOM     12  C   UNL     1       4.324  -1.520  -0.418  0.00  0.00    +0.068 C 
BRANCH  11  14
ATOM     13  C   UNL     1       1.722   0.133  -2.283  0.00  0.00    +0.113 A 
ATOM     14  C   UNL     1       2.874  -0.583  -2.144  0.00  0.00    +0.024 A 
ATOM     15  C   UNL     1       2.888  -1.539  -3.270  0.00  0.00    +0.028 A 
ATOM     16  C   UNL     1       3.770  -2.530  -3.690  0.00  0.00    +0.012 A 
ATOM     17  C   UNL     1       3.480  -3.267  -4.818  0.00  0.00    +0.001 A 
ATOM     18  C   UNL     1       2.315  -3.023  -5.530  0.00  0.00    +0.004 A 
ATOM     19  C   UNL     1       1.434  -2.044  -5.122  0.00  0.00    +0.047 A 
ATOM     20  C   UNL     1       1.710  -1.291  -3.987  0.00  0.00    +0.136 A 
ATOM     21  O   UNL     1       1.050  -0.295  -3.360  0.00  0.00    -0.459 OA
BRANCH  13  23
ATOM     22  C   UNL     1       1.808   2.575  -1.864  0.00  0.00    +0.012 C 
ATOM     23  C   UNL     1       1.268   1.235  -1.361  0.00  0.00    +0.071 C 
ENDBRANCH  13  23
ENDBRANCH  11  14
ENDBRANCH   7  12
ENDBRANCH   1   9
BRANCH   6  24
ATOM     24  C   UNL     1       7.574  -4.615   1.546  0.00  0.00    -0.041 C 
BRANCH  24  25
ATOM     25  N   UNL     1       8.138  -4.378   0.210  0.00  0.00    +0.383 N 
ATOM     26  C   UNL     1       9.577  -4.113   0.328  0.00  0.00    -0.078 C 
ATOM     27  C   UNL     1      10.154  -3.786  -1.051  0.00  0.00    -0.018 C 
ATOM     28  C   UNL     1       9.927  -4.975  -1.989  0.00  0.00    +0.009 C 
ATOM     29  C   UNL     1       8.430  -5.290  -2.046  0.00  0.00    +0.058 C 
ATOM     30  C   UNL     1       7.917  -5.561  -0.630  0.00  0.00    -0.066 C 
ATOM     31  H   UNL     1       7.684  -3.580  -0.209  0.00  0.00    -0.081 HD
BRANCH  29  32
ATOM     32  C   UNL     1       8.204  -6.506  -2.906  0.00  0.00    +0.212 C 
ATOM     33  O   UNL     1       7.679  -7.493  -2.434  0.00  0.00    -0.276 OA
ATOM     34  N   UNL     1       8.583  -6.498  -4.199  0.00  0.00    -0.329 N 
ATOM     35  H   UNL     1       9.002  -5.708  -4.576  0.00  0.00    +0.145 HD
ATOM     36  H   UNL     1       8.438  -7.281  -4.753  0.00  0.00    +0.145 HD
ENDBRANCH  29  32
ENDBRANCH  24  25
ENDBRANCH   6  24
TORSDOF 7
