REMARK  Name = ZINC59170606
REMARK  5 active torsions:
REMARK  status: ('A' for Active; 'I' for Inactive)
REMARK    1  A    between atoms: C_8  and  C_22
REMARK    2  A    between atoms: N_10  and  C_11
REMARK    3  A    between atoms: C_14  and  S_17
REMARK    4  A    between atoms: S_17  and  N_20
REMARK    5  A    between atoms: N_24  and  C_25
REMARK                            x       y       z     vdW  Elec       q    Type
REMARK                         _______ _______ _______ _____ _____    ______ ____
ROOT
ATOM      1  C   UNL     1       0.132   1.289  -0.802  0.00  0.00    +0.001 A 
ATOM      2  C   UNL     1       1.068   2.024  -0.089  0.00  0.00    +0.004 A 
ATOM      3  C   UNL     1       2.250   1.445   0.326  0.00  0.00    +0.047 A 
ATOM      4  C   UNL     1       2.507   0.115   0.031  0.00  0.00    +0.137 A 
ATOM      5  C   UNL     1       1.555  -0.632  -0.689  0.00  0.00    +0.018 A 
ATOM      6  C   UNL     1       0.363  -0.024  -1.103  0.00  0.00    +0.011 A 
ATOM      7  C   UNL     1       1.823  -2.039  -0.991  0.00  0.00    +0.030 A 
ATOM      8  C   UNL     1       2.880  -2.645  -0.323  0.00  0.00    +0.098 A 
ATOM      9  C   UNL     1       3.637  -1.812   0.633  0.00  0.00    +0.212 A 
ATOM     10  N   UNL     1       4.267  -2.353   1.653  0.00  0.00    -0.325 N 
ATOM     11  O   UNL     1       3.664  -0.470   0.426  0.00  0.00    -0.439 OA
ATOM     12  H   UNL     1       4.157  -3.298   1.845  0.00  0.00    +0.169 HD
ENDROOT
BRANCH  10  13
ATOM     13  C   UNL     1       5.076  -1.584   2.443  0.00  0.00    +0.042 A 
ATOM     14  C   UNL     1       5.971  -0.682   1.863  0.00  0.00    +0.027 A 
ATOM     15  C   UNL     1       6.784   0.090   2.667  0.00  0.00    +0.030 A 
ATOM     16  C   UNL     1       6.714  -0.027   4.044  0.00  0.00    +0.105 A 
ATOM     17  C   UNL     1       5.829  -0.918   4.625  0.00  0.00    +0.030 A 
ATOM     18  C   UNL     1       5.007  -1.693   3.834  0.00  0.00    +0.027 A 
BRANCH  16  19
ATOM     19  S   UNL     1       7.757   0.963   5.062  0.00  0.00    +0.056 S 
ATOM     20  O   UNL     1       7.888   0.276   6.299  0.00  0.00    -0.153 OA
ATOM     21  O   UNL     1       8.879   1.322   4.267  0.00  0.00    -0.153 OA
BRANCH  19  22
ATOM     22  N   UNL     1       6.937   2.366   5.384  0.00  0.00    -0.204 NA
ATOM     23  H   UNL     1       6.048   2.502   5.021  0.00  0.00    +0.144 HD
ATOM     24  H   UNL     1       7.346   3.050   5.936  0.00  0.00    +0.144 HD
ENDBRANCH  19  22
ENDBRANCH  16  19
ENDBRANCH  10  13
BRANCH   8  25
ATOM     25  C   UNL     1       3.229  -4.056  -0.556  0.00  0.00    +0.253 C 
ATOM     26  O   UNL     1       2.515  -4.752  -1.254  0.00  0.00    -0.270 OA
ATOM     27  N   UNL     1       4.339  -4.577   0.002  0.00  0.00    -0.280 N 
ATOM     28  H   UNL     1       4.879  -4.038   0.601  0.00  0.00    +0.155 HD
BRANCH  27  29
ATOM     29  C   UNL     1       4.714  -5.894  -0.283  0.00  0.00    +0.054 A 
ATOM     30  C   UNL     1       3.748  -6.836  -0.614  0.00  0.00    +0.025 A 
ATOM     31  C   UNL     1       4.120  -8.136  -0.895  0.00  0.00    +0.003 A 
ATOM     32  C   UNL     1       5.453  -8.502  -0.848  0.00  0.00    +0.021 A 
ATOM     33  C   UNL     1       6.418  -7.567  -0.519  0.00  0.00    +0.061 A 
ATOM     34  C   UNL     1       6.053  -6.262  -0.242  0.00  0.00    +0.080 A 
ATOM     35 CL   UNL     1       7.265  -5.087   0.163  0.00  0.00    -0.080 Cl
ATOM     36 CL   UNL     1       8.090  -8.031  -0.460  0.00  0.00    -0.082 Cl
ENDBRANCH  27  29
ENDBRANCH   8  25
TORSDOF 5
