REMARK  Name = ZINC04831461
REMARK  8 active torsions:
REMARK  status: ('A' for Active; 'I' for Inactive)
REMARK    1  A    between atoms: C_1  and  C_2
REMARK    2  A    between atoms: C_5  and  O_30
REMARK    3  A    between atoms: C_17  and  C_29
REMARK    4  A    between atoms: C_22  and  C_23
REMARK    5  A    between atoms: C_22  and  O_28
REMARK    6  A    between atoms: C_23  and  C_24
REMARK    7  A    between atoms: C_24  and  O_26
REMARK    8  A    between atoms: O_26  and  C_27
REMARK                            x       y       z     vdW  Elec       q    Type
REMARK                         _______ _______ _______ _____ _____    ______ ____
ROOT
ATOM      1  C   UNL     1      -6.985  -3.528   1.344  0.00  0.00    +0.016 C 
ATOM      2  C   UNL     1      -6.098  -4.694   0.919  0.00  0.00    -0.008 C 
ATOM      3  C   UNL     1      -6.728  -5.388  -0.290  0.00  0.00    +0.014 C 
ATOM      4  C   UNL     1      -8.023  -6.098   0.091  0.00  0.00    +0.032 C 
ATOM      5  C   UNL     1      -7.755  -7.152   1.166  0.00  0.00    +0.119 C 
ATOM      6  C   UNL     1      -7.241  -6.460   2.432  0.00  0.00    +0.062 C 
ATOM      7  C   UNL     1      -5.997  -5.671   2.062  0.00  0.00    -0.065 C 
ATOM      8  C   UNL     1      -4.912  -5.893   2.747  0.00  0.00    -0.027 C 
ATOM      9  C   UNL     1      -3.599  -5.200   2.485  0.00  0.00    +0.031 C 
ATOM     10  C   UNL     1      -3.913  -3.870   1.803  0.00  0.00    +0.000 C 
ATOM     11  C   UNL     1      -4.721  -4.170   0.539  0.00  0.00    +0.003 C 
ATOM     12  C   UNL     1      -4.754  -2.943  -0.356  0.00  0.00    +0.005 C 
ATOM     13  C   UNL     1      -3.355  -2.674  -0.943  0.00  0.00    +0.010 C 
ATOM     14  C   UNL     1      -2.278  -3.120   0.007  0.00  0.00    +0.000 C 
ATOM     15  C   UNL     1      -2.717  -3.026   1.481  0.00  0.00    +0.001 C 
ATOM     16  C   UNL     1      -1.417  -3.363   2.228  0.00  0.00    +0.007 C 
ATOM     17  C   UNL     1      -0.312  -2.699   1.364  0.00  0.00    +0.036 C 
ATOM     18  C   UNL     1      -0.990  -2.276   0.033  0.00  0.00    +0.082 C 
ATOM     19  C   UNL     1      -1.831  -4.548  -0.354  0.00  0.00    +0.014 C 
ENDROOT
BRANCH  18  20
ATOM     20  O   UNL     1      -0.162  -2.623  -1.076  0.00  0.00    -0.387 OA
ATOM     21  H   UNL     1       0.693  -2.171  -1.086  0.00  0.00    +0.210 HD
ENDBRANCH  18  20
BRANCH   5  22
ATOM     22  O   UNL     1      -8.965  -7.852   1.462  0.00  0.00    -0.391 OA
ATOM     23  H   UNL     1      -8.867  -8.537   2.138  0.00  0.00    +0.210 HD
ENDBRANCH   5  22
BRANCH  18  24
ATOM     24  C   UNL     1      -1.280  -0.781   0.048  0.00  0.00    +0.155 C 
BRANCH  24  25
ATOM     25  C   UNL     1       0.019  -0.017   0.073  0.00  0.00    +0.310 C 
ATOM     26  O   UNL     1       1.070  -0.613   0.079  0.00  0.00    -0.251 OA
BRANCH  25  27
ATOM     27  O   UNL     1       0.007   1.325   0.089  0.00  0.00    -0.468 OA
ATOM     28  C   UNL     1       1.296   1.995   0.114  0.00  0.00    +0.280 C 
ENDBRANCH  25  27
ENDBRANCH  24  25
ENDBRANCH  18  24
TORSDOF 5
