REMARK  Name = ZINC09116249
REMARK  7 active torsions:
REMARK  status: ('A' for Active; 'I' for Inactive)
REMARK    1  A    between atoms: C_1  and  C_2
REMARK    2  A    between atoms: C_5  and  C_8
REMARK    3  A    between atoms: C_8  and  O_9
REMARK    4  A    between atoms: C_14  and  C_22
REMARK    5  A    between atoms: C_16  and  S_17
REMARK    6  A    between atoms: S_17  and  C_18
REMARK    7  A    between atoms: C_18  and  C_19
REMARK                            x       y       z     vdW  Elec       q    Type
REMARK                         _______ _______ _______ _____ _____    ______ ____
ROOT
ATOM      1  C   UNL     1       3.581  -0.847  -0.040  0.00  0.00    +0.069 C 
ATOM      2  C   UNL     1       2.306  -0.043  -0.022  0.00  0.00    +0.081 A 
ATOM      3  C   UNL     1       2.368   1.345  -0.014  0.00  0.00    +0.155 A 
ATOM      4  C   UNL     1       1.185   2.068   0.002  0.00  0.00    +0.008 A 
ATOM      5  C   UNL     1      -0.017   1.378   0.010  0.00  0.00    +0.003 A 
ATOM      6  C   UNL     1       0.002  -0.004   0.002  0.00  0.00    +0.117 A 
ATOM      7  N   UNL     1       1.144  -0.664  -0.013  0.00  0.00    -0.256 NA
ATOM      8  C   UNL     1       1.194   3.570   0.013  0.00  0.00    +0.082 C 
ATOM      9  C   UNL     1       2.545   4.087  -0.394  0.00  0.00    +0.051 A 
ATOM     10  C   UNL     1       3.659   3.263  -0.389  0.00  0.00    +0.229 A 
ATOM     11  N   UNL     1       4.835   3.767  -0.756  0.00  0.00    -0.193 NA
ATOM     12  C   UNL     1       4.947   5.036  -1.121  0.00  0.00    +0.165 A 
ATOM     13  N   UNL     1       3.903   5.852  -1.137  0.00  0.00    -0.221 NA
ATOM     14  C   UNL     1       2.696   5.417  -0.783  0.00  0.00    +0.108 A 
ATOM     15  O   UNL     1       3.570   1.967  -0.021  0.00  0.00    -0.436 OA
ENDROOT
BRANCH  12  16
ATOM     16  C   UNL     1       6.277   5.557  -1.522  0.00  0.00    +0.019 A 
ATOM     17  C   UNL     1       6.417   6.887  -1.914  0.00  0.00    +0.013 A 
ATOM     18  C   UNL     1       7.657   7.369  -2.280  0.00  0.00    +0.021 A 
ATOM     19  C   UNL     1       8.759   6.530  -2.269  0.00  0.00    +0.041 A 
ATOM     20  C   UNL     1       8.623   5.207  -1.885  0.00  0.00    +0.021 A 
ATOM     21  C   UNL     1       7.389   4.717  -1.512  0.00  0.00    +0.013 A 
ATOM     22 CL   UNL     1      10.315   7.140  -2.738  0.00  0.00    -0.084 Cl
ENDBRANCH  12  16
BRANCH   5  23
ATOM     23  C   UNL     1      -1.326   2.125   0.020  0.00  0.00    +0.193 C 
BRANCH  23  24
ATOM     24  O   UNL     1      -2.407   1.190   0.020  0.00  0.00    -0.390 OA
ATOM     25  H   UNL     1      -3.446   1.551   0.027  0.00  0.00    +0.210 HD
ENDBRANCH  23  24
ENDBRANCH   5  23
BRANCH  14  26
ATOM     26  S   UNL     1       1.311   6.505  -0.806  0.00  0.00    -0.096 S 
BRANCH  26  27
ATOM     27  C   UNL     1       2.114   8.024  -1.375  0.00  0.00    +0.171 C 
BRANCH  27  28
ATOM     28  C   UNL     1       1.091   9.127  -1.473  0.00  0.00    +0.221 C 
ATOM     29  O   UNL     1      -0.067   8.907  -1.187  0.00  0.00    -0.275 OA
ATOM     30  N   UNL     1       1.463  10.357  -1.879  0.00  0.00    -0.329 N 
ATOM     31  H   UNL     1       0.716  11.162  -1.951  0.00  0.00    +0.145 HD
ATOM     32  H   UNL     1       2.513  10.556  -2.139  0.00  0.00    +0.145 HD
ENDBRANCH  27  28
ENDBRANCH  26  27
ENDBRANCH  14  26
TORSDOF 6
