REMARK  Name = ZINC35308579
REMARK  3 active torsions:
REMARK  status: ('A' for Active; 'I' for Inactive)
REMARK    1  A    between atoms: N_10  and  C_11
REMARK    2  A    between atoms: C_11  and  C_12
REMARK    3  A    between atoms: C_17  and  N_18
REMARK                            x       y       z     vdW  Elec       q    Type
REMARK                         _______ _______ _______ _____ _____    ______ ____
ROOT
ATOM      1  C   UNL     1       4.887  -0.462  -0.048  0.00  0.00    +0.150 C 
ENDROOT
BRANCH   1  11
ATOM      2  C   UNL     1       0.002   1.420  -0.037  0.00  0.00    +0.000 A 
ATOM      3  C   UNL     1       1.199   2.113  -0.048  0.00  0.00    +0.002 A 
ATOM      4  C   UNL     1       2.399   1.433  -0.049  0.00  0.00    +0.024 A 
ATOM      5  C   UNL     1       2.413   0.039  -0.039  0.00  0.00    +0.040 A 
ATOM      6  C   UNL     1       1.205  -0.645  -0.028  0.00  0.00    -0.017 A 
ATOM      7  C   UNL     1       0.008   0.036  -0.027  0.00  0.00    +0.006 A 
ATOM      8  C   UNL     1       1.549  -2.117  -0.018  0.00  0.00    +0.133 C 
ATOM      9  C   UNL     1       3.063  -2.140  -0.026  0.00  0.00    +0.224 C 
ATOM     10  O   UNL     1       3.768  -3.127  -0.022  0.00  0.00    -0.275 OA
ATOM     11  N   UNL     1       3.478  -0.862  -0.038  0.00  0.00    -0.266 N 
ENDBRANCH   1  11
BRANCH   1  12
ATOM     12  C   UNL     1       5.347  -0.206   1.364  0.00  0.00    -0.006 A 
ATOM     13  C   UNL     1       4.505  -0.475   2.425  0.00  0.00    +0.045 A 
ATOM     14  C   UNL     1       4.927  -0.241   3.722  0.00  0.00    +0.124 A 
ATOM     15  C   UNL     1       6.194   0.265   3.960  0.00  0.00    +0.040 A 
ATOM     16  C   UNL     1       7.039   0.536   2.902  0.00  0.00    +0.026 A 
ATOM     17  C   UNL     1       6.620   0.296   1.600  0.00  0.00    +0.029 A 
ATOM     18  F   UNL     1       4.101  -0.506   4.758  0.00  0.00    -0.205 F 
BRANCH  17  19
ATOM     19  N   UNL     1       7.477   0.564   0.528  0.00  0.00    -0.358 N 
ATOM     20  H   UNL     1       7.157   0.471  -0.383  0.00  0.00    +0.142 HD
ATOM     21  H   UNL     1       8.390   0.844   0.695  0.00  0.00    +0.142 HD
ENDBRANCH  17  19
ENDBRANCH   1  12
TORSDOF 3
