REMARK  Name = ZINC36899385
REMARK  2 active torsions:
REMARK  status: ('A' for Active; 'I' for Inactive)
REMARK    1  A    between atoms: C_1  and  C_2
REMARK    2  A    between atoms: C_7  and  N_8
REMARK                            x       y       z     vdW  Elec       q    Type
REMARK                         _______ _______ _______ _____ _____    ______ ____
ROOT
ATOM      1  N   UNL     1       0.025  -0.013   2.419  0.00  0.00    -0.279 N 
ATOM      2  C   UNL     1      -1.091   0.373   3.148  0.00  0.00    +0.093 A 
ATOM      3  C   UNL     1      -0.603   1.033   4.288  0.00  0.00    +0.093 A 
ATOM      4  C   UNL     1      -1.504   1.543   5.226  0.00  0.00    +0.030 A 
ATOM      5  C   UNL     1      -2.858   1.395   5.024  0.00  0.00    +0.004 A 
ATOM      6  C   UNL     1      -3.335   0.743   3.897  0.00  0.00    +0.022 A 
ATOM      7  C   UNL     1      -2.458   0.234   2.960  0.00  0.00    +0.067 A 
ATOM      8 CL   UNL     1      -3.064  -0.580   1.552  0.00  0.00    -0.081 Cl
ATOM      9  N   UNL     1       0.754   1.021   4.208  0.00  0.00    -0.214 NA
ATOM     10  C   UNL     1       1.126   0.403   3.115  0.00  0.00    +0.199 A 
ATOM     11  N   UNL     1       2.433   0.204   2.722  0.00  0.00    -0.329 N 
ATOM     12  H   UNL     1       2.625  -0.263   1.894  0.00  0.00    +0.145 HD
ATOM     13  H   UNL     1       3.160   0.532   3.274  0.00  0.00    +0.145 HD
ENDROOT
BRANCH   1  20
ATOM     14  C   UNL     1      -0.018   1.503   0.010  0.00  0.00    +0.046 C 
ATOM     15  C   UNL     1       0.002  -0.004   0.002  0.00  0.00    -0.025 A 
ATOM     16  C   UNL     1       0.006  -0.689  -1.198  0.00  0.00    +0.020 A 
ATOM     17  C   UNL     1       0.025  -2.072  -1.206  0.00  0.00    +0.018 A 
ATOM     18  C   UNL     1       0.040  -2.773  -0.013  0.00  0.00    +0.017 A 
ATOM     19  C   UNL     1       0.037  -2.094   1.189  0.00  0.00    +0.027 A 
ATOM     20  C   UNL     1       0.023  -0.705   1.200  0.00  0.00    +0.053 A 
ATOM     21 BR   UNL     1       0.028  -3.006  -2.850  0.00  0.00    -0.050 Br
ENDBRANCH   1  20
TORSDOF 1
