REMARK  Name = ZINC08746518
REMARK  5 active torsions:
REMARK  status: ('A' for Active; 'I' for Inactive)
REMARK    1  A    between atoms: C_8  and  C_10
REMARK    2  A    between atoms: C_10  and  C_11
REMARK    3  A    between atoms: C_11  and  N_24
REMARK    4  A    between atoms: C_12  and  C_13
REMARK    5  A    between atoms: C_12  and  C_15
REMARK                            x       y       z     vdW  Elec       q    Type
REMARK                         _______ _______ _______ _____ _____    ______ ____
ROOT
ATOM      1  C   UNL     1       2.819   7.703   0.120  0.00  0.00    +0.028 C 
ATOM      2  C   UNL     1       1.525   7.274   0.157  0.00  0.00    +0.101 C 
ENDROOT
BRANCH   2   3
ATOM      3  C   UNL     1       1.229   5.842   0.344  0.00  0.00    +0.121 A 
ATOM      4  N   UNL     1       2.060   4.853   0.599  0.00  0.00    -0.238 NA
ATOM      5  C   UNL     1       1.644   3.579   0.748  0.00  0.00    +0.079 A 
ATOM      6  C   UNL     1       2.426   2.431   1.021  0.00  0.00    +0.029 A 
ATOM      7  C   UNL     1       1.841   1.199   1.149  0.00  0.00    +0.002 A 
ATOM      8  C   UNL     1       0.471   1.029   1.004  0.00  0.00    +0.001 A 
ATOM      9  C   UNL     1      -0.324   2.128   0.737  0.00  0.00    +0.017 A 
ATOM     10  C   UNL     1       0.252   3.367   0.613  0.00  0.00    +0.040 A 
ATOM     11  S   UNL     1      -0.350   5.006   0.284  0.00  0.00    -0.066 S 
ENDBRANCH   2   3
BRANCH   1  12
ATOM     12  N   UNL     1       3.838   6.798   0.107  0.00  0.00    -0.360 N 
ATOM     13  H   UNL     1       3.616   5.720   0.125  0.00  0.00    +0.142 HD
ATOM     14  H   UNL     1       4.882   7.144   0.078  0.00  0.00    +0.142 HD
ENDBRANCH   1  12
BRANCH   2  15
ATOM     15  C   UNL     1       0.454   8.213   0.013  0.00  0.00    +0.103 C 
ATOM     16  N   UNL     1      -0.395   8.959  -0.101  0.00  0.00    -0.191 NA
ENDBRANCH   2  15
BRANCH   1  17
ATOM     17  C   UNL     1       3.123   9.179   0.095  0.00  0.00    +0.114 C 
BRANCH  17  25
ATOM     18  C   UNL     1       5.649  10.786   5.493  0.00  0.00    +0.002 A 
ATOM     19  C   UNL     1       4.430  11.188   6.023  0.00  0.00    +0.001 A 
ATOM     20  C   UNL     1       3.288  11.087   5.251  0.00  0.00    +0.017 A 
ATOM     21  C   UNL     1       3.380  10.592   3.973  0.00  0.00    +0.039 A 
ATOM     22  C   UNL     1       4.606  10.176   3.407  0.00  0.00    +0.078 A 
ATOM     23  C   UNL     1       5.750  10.295   4.228  0.00  0.00    +0.029 A 
ATOM     24  N   UNL     1       4.512   9.716   2.142  0.00  0.00    -0.244 NA
ATOM     25  C   UNL     1       3.379   9.663   1.499  0.00  0.00    +0.085 A 
ATOM     26  S   UNL     1       2.238  10.291   2.647  0.00  0.00    -0.072 S 
ENDBRANCH  17  25
ENDBRANCH   1  17
TORSDOF 5
