REMARK  Name = ZINC12464871
REMARK  5 active torsions:
REMARK  status: ('A' for Active; 'I' for Inactive)
REMARK    1  A    between atoms: C_1  and  C_2
REMARK    2  A    between atoms: C_2  and  C_19
REMARK    3  A    between atoms: C_4  and  C_17
REMARK    4  A    between atoms: C_4  and  C_18
REMARK    5  A    between atoms: N_13  and  N_14
REMARK                            x       y       z     vdW  Elec       q    Type
REMARK                         _______ _______ _______ _____ _____    ______ ____
ROOT
ATOM      1  C   UNL     1       0.241   1.494   0.115  0.00  0.00    +0.021 C 
ATOM      2  C   UNL     1       0.015  -0.013  -0.026  0.00  0.00    +0.022 C 
ATOM      3  C   UNL     1      -1.489  -0.306  -0.020  0.00  0.00    +0.041 C 
ATOM      4  C   UNL     1      -2.146   0.088   1.308  0.00  0.00    +0.038 C 
ATOM      5  N   UNL     1      -1.440  -0.604   2.399  0.00  0.00    -0.260 N 
ATOM      6  C   UNL     1      -0.110  -0.964   2.247  0.00  0.00    +0.051 A 
ATOM      7  C   UNL     1       0.672  -0.726   1.120  0.00  0.00    -0.015 A 
ATOM      8  C   UNL     1       1.973  -1.167   1.167  0.00  0.00    +0.006 A 
ATOM      9  C   UNL     1       2.466  -1.815   2.293  0.00  0.00    +0.001 A 
ATOM     10  C   UNL     1       1.693  -2.054   3.423  0.00  0.00    +0.012 A 
ATOM     11  C   UNL     1       0.374  -1.613   3.387  0.00  0.00    +0.029 A 
ATOM     12  C   UNL     1      -0.758  -1.650   4.320  0.00  0.00    +0.152 C 
ATOM     13  N   UNL     1      -0.778  -2.165   5.528  0.00  0.00    -0.184 NA
ATOM     14  C   UNL     1      -1.875  -0.983   3.608  0.00  0.00    +0.272 C 
ATOM     15  O   UNL     1      -2.997  -0.808   4.047  0.00  0.00    -0.268 OA
ATOM     16  C   UNL     1      -3.618  -0.330   1.299  0.00  0.00    +0.032 C 
ATOM     17  C   UNL     1      -2.042   1.602   1.505  0.00  0.00    +0.032 C 
ENDROOT
BRANCH   2  18
ATOM     18  C   UNL     1       0.614  -0.491  -1.323  0.00  0.00    -0.037 A 
ATOM     19  C   UNL     1       0.638  -1.842  -1.617  0.00  0.00    +0.004 A 
ATOM     20  C   UNL     1       1.187  -2.280  -2.808  0.00  0.00    +0.000 A 
ATOM     21  C   UNL     1       1.712  -1.368  -3.704  0.00  0.00    +0.000 A 
ATOM     22  C   UNL     1       1.686  -0.017  -3.411  0.00  0.00    +0.000 A 
ATOM     23  C   UNL     1       1.133   0.421  -2.223  0.00  0.00    +0.004 A 
ENDBRANCH   2  18
BRANCH  13  24
ATOM     24  N   UNL     1      -1.859  -2.120   6.231  0.00  0.00    -0.282 N 
ATOM     25  H   UNL     1      -2.656  -1.705   5.867  0.00  0.00    +0.164 HD
ATOM     26  H   UNL     1      -1.873  -2.500   7.123  0.00  0.00    +0.164 HD
ENDBRANCH  13  24
TORSDOF 2
