REMARK  Name = ZINC38715756
REMARK  3 active torsions:
REMARK  status: ('A' for Active; 'I' for Inactive)
REMARK    1  A    between atoms: C_4  and  N_11
REMARK    2  A    between atoms: C_5  and  C_7
REMARK    3  A    between atoms: N_14  and  C_15
REMARK                            x       y       z     vdW  Elec       q    Type
REMARK                         _______ _______ _______ _____ _____    ______ ____
ROOT
ATOM      1  C   UNL     1       7.093   0.192   0.104  0.00  0.00    +0.036 A 
ATOM      2  C   UNL     1       7.063   1.582   0.115  0.00  0.00    +0.027 A 
ATOM      3  C   UNL     1       8.240   2.302   0.115  0.00  0.00    +0.049 A 
ATOM      4  C   UNL     1       9.463   1.645   0.098  0.00  0.00    +0.141 A 
ATOM      5  C   UNL     1       9.501   0.247   0.065  0.00  0.00    +0.081 A 
ATOM      6  C   UNL     1       8.305  -0.477   0.086  0.00  0.00    +0.040 A 
ATOM      7  C   UNL     1      10.783  -0.466  -0.021  0.00  0.00    +0.252 C 
ATOM      8  O   UNL     1      10.826  -1.461  -0.719  0.00  0.00    -0.270 OA
ATOM      9  N   UNL     1      11.896  -0.108   0.605  0.00  0.00    -0.278 N 
ATOM     10  C   UNL     1      12.044   0.982   1.462  0.00  0.00    +0.078 A 
ATOM     11  C   UNL     1      12.824   0.837   2.604  0.00  0.00    +0.047 A 
ATOM     12  C   UNL     1      13.013   1.906   3.459  0.00  0.00    +0.043 A 
ATOM     13  C   UNL     1      12.427   3.128   3.181  0.00  0.00    +0.024 A 
ATOM     14  C   UNL     1      11.642   3.276   2.053  0.00  0.00    +0.049 A 
ATOM     15  C   UNL     1      11.437   2.203   1.198  0.00  0.00    +0.150 A 
ATOM     16  O   UNL     1      10.610   2.361   0.134  0.00  0.00    -0.453 OA
ATOM     17 CL   UNL     1      13.986   1.716   4.885  0.00  0.00    -0.083 Cl
ATOM     18  H   UNL     1      12.681  -0.656   0.451  0.00  0.00    +0.155 HD
ENDROOT
BRANCH   1  22
ATOM     19  N   UNL     1       4.710  -2.465   0.683  0.00  0.00    -0.269 N 
ATOM     20  C   UNL     1       5.829  -1.716   0.760  0.00  0.00    +0.308 C 
ATOM     21  O   UNL     1       6.779  -2.108   1.410  0.00  0.00    -0.252 OA
ATOM     22  N   UNL     1       5.894  -0.534   0.116  0.00  0.00    -0.269 N 
ATOM     23  H   UNL     1       3.983  -2.192   0.102  0.00  0.00    +0.156 HD
ATOM     24  H   UNL     1       5.112  -0.186  -0.338  0.00  0.00    +0.156 HD
BRANCH  19  28
ATOM     25  C   UNL     1       4.375  -5.949   2.942  0.00  0.00    +0.001 A 
ATOM     26  C   UNL     1       5.264  -4.961   3.325  0.00  0.00    +0.002 A 
ATOM     27  C   UNL     1       5.378  -3.805   2.579  0.00  0.00    +0.024 A 
ATOM     28  C   UNL     1       4.598  -3.635   1.442  0.00  0.00    +0.046 A 
ATOM     29  C   UNL     1       3.707  -4.629   1.060  0.00  0.00    +0.076 A 
ATOM     30  C   UNL     1       3.598  -5.783   1.811  0.00  0.00    +0.014 A 
BRANCH  29  31
ATOM     31  C   UNL     1       2.859  -4.449  -0.173  0.00  0.00    +0.419 C 
ATOM     32  F   UNL     1       2.048  -5.575  -0.350  0.00  0.00    -0.166 F 
ATOM     33  F   UNL     1       2.055  -3.313  -0.024  0.00  0.00    -0.166 F 
ATOM     34  F   UNL     1       3.687  -4.290  -1.290  0.00  0.00    -0.166 F 
ENDBRANCH  29  31
ENDBRANCH  19  28
ENDBRANCH   1  22
TORSDOF 3
