REMARK  Name = ZINC42038936
REMARK  7 active torsions:
REMARK  status: ('A' for Active; 'I' for Inactive)
REMARK    1  A    between atoms: C_1  and  C_2
REMARK    2  A    between atoms: C_5  and  C_12
REMARK    3  A    between atoms: N_6  and  C_7
REMARK    4  A    between atoms: C_12  and  C_14
REMARK    5  A    between atoms: C_12  and  N_22
REMARK    6  A    between atoms: C_14  and  C_15
REMARK    7  A    between atoms: C_18  and  O_21
REMARK                            x       y       z     vdW  Elec       q    Type
REMARK                         _______ _______ _______ _____ _____    ______ ____
ROOT
ATOM      1  C   UNL     1       0.152  -3.343   1.430  0.00  0.00    -0.001 C 
ENDROOT
BRANCH   1   6
ATOM      2  C   UNL     1       0.011   1.503   0.007  0.00  0.00    +0.088 C 
ATOM      3  C   UNL     1       0.015  -0.004   0.001  0.00  0.00    +0.131 A 
ATOM      4  N   UNL     1      -0.076  -0.773  -1.050  0.00  0.00    -0.135 NA
ATOM      5  N   UNL     1      -0.040  -2.006  -0.688  0.00  0.00    -0.136 NA
ATOM      6  C   UNL     1       0.075  -2.080   0.610  0.00  0.00    +0.119 A 
ATOM      7  N   UNL     1       0.118  -0.811   1.084  0.00  0.00    -0.313 N 
BRANCH   7   8
ATOM      8  C   UNL     1       0.248  -0.397   2.483  0.00  0.00    +0.090 C 
ATOM      9  C   UNL     1      -1.009   0.383   2.921  0.00  0.00    +0.025 C 
ATOM     10  C   UNL     1      -0.463   1.489   3.857  0.00  0.00    +0.002 C 
ATOM     11  C   UNL     1       0.864   1.895   3.168  0.00  0.00    +0.002 C 
ATOM     12  C   UNL     1       1.439   0.565   2.640  0.00  0.00    +0.025 C 
ENDBRANCH   7   8
ENDBRANCH   1   6
BRANCH   1  13
ATOM     13  N   UNL     1       1.082  -4.284   0.793  0.00  0.00    +0.385 N 
ATOM     14  H   UNL     1       0.754  -4.505  -0.136  0.00  0.00    -0.089 HD
ATOM     15  H   UNL     1       1.998  -3.865   0.735  0.00  0.00    -0.089 HD
ATOM     16  H   UNL     1       1.133  -5.130   1.341  0.00  0.00    -0.089 HD
ENDBRANCH   1  13
BRANCH   1  17
ATOM     17  C   UNL     1      -1.237  -3.978   1.518  0.00  0.00    +0.026 C 
BRANCH  17  18
ATOM     18  C   UNL     1      -1.186  -5.172   2.437  0.00  0.00    -0.048 A 
ATOM     19  C   UNL     1      -0.892  -6.423   1.928  0.00  0.00    +0.007 A 
ATOM     20  C   UNL     1      -0.845  -7.519   2.768  0.00  0.00    +0.045 A 
ATOM     21  C   UNL     1      -1.092  -7.362   4.124  0.00  0.00    +0.117 A 
ATOM     22  C   UNL     1      -1.385  -6.105   4.633  0.00  0.00    +0.045 A 
ATOM     23  C   UNL     1      -1.426  -5.012   3.789  0.00  0.00    +0.007 A 
BRANCH  21  24
ATOM     24  O   UNL     1      -1.047  -8.438   4.953  0.00  0.00    -0.507 OA
ATOM     25  H   UNL     1      -0.173  -8.606   5.333  0.00  0.00    +0.292 HD
ENDBRANCH  21  24
ENDBRANCH  17  18
ENDBRANCH   1  17
TORSDOF 6
