REMARK  Name = ZINC36890046
REMARK  2 active torsions:
REMARK  status: ('A' for Active; 'I' for Inactive)
REMARK    1  A    between atoms: C_1  and  C_2
REMARK    2  A    between atoms: C_4  and  N_9
REMARK                            x       y       z     vdW  Elec       q    Type
REMARK                         _______ _______ _______ _____ _____    ______ ____
ROOT
ATOM      1  N   UNL     1       0.028  -2.772  -2.422  0.00  0.00    -0.281 N 
ATOM      2  C   UNL     1      -0.978  -3.599  -2.900  0.00  0.00    +0.075 A 
ATOM      3  C   UNL     1      -2.211  -3.996  -2.406  0.00  0.00    +0.030 A 
ATOM      4  C   UNL     1      -3.002  -4.854  -3.143  0.00  0.00    +0.022 A 
ATOM      5  C   UNL     1      -2.570  -5.324  -4.376  0.00  0.00    +0.043 A 
ATOM      6  C   UNL     1      -1.347  -4.939  -4.881  0.00  0.00    +0.050 A 
ATOM      7  C   UNL     1      -0.536  -4.071  -4.147  0.00  0.00    +0.093 A 
ATOM      8  N   UNL     1       0.689  -3.524  -4.371  0.00  0.00    -0.214 NA
ATOM      9  C   UNL     1       1.020  -2.757  -3.363  0.00  0.00    +0.199 A 
ATOM     10  N   UNL     1       2.196  -2.043  -3.263  0.00  0.00    -0.329 N 
ATOM     11 CL   UNL     1      -3.579  -6.403  -5.288  0.00  0.00    -0.083 Cl
ATOM     12  H   UNL     1       2.368  -1.498  -2.480  0.00  0.00    +0.145 HD
ATOM     13  H   UNL     1       2.852  -2.087  -3.977  0.00  0.00    +0.145 HD
ENDROOT
BRANCH   1  17
ATOM     14  C   UNL     1      -0.018   1.503   0.010  0.00  0.00    +0.045 C 
ATOM     15  C   UNL     1       0.002  -0.004   0.002  0.00  0.00    -0.035 A 
ATOM     16  C   UNL     1       0.006  -0.688  -1.198  0.00  0.00    +0.030 A 
ATOM     17  C   UNL     1       0.025  -2.076  -1.205  0.00  0.00    +0.050 A 
ATOM     18  C   UNL     1       0.040  -2.773  -0.005  0.00  0.00    +0.027 A 
ATOM     19  C   UNL     1       0.036  -2.085   1.192  0.00  0.00    +0.017 A 
ATOM     20  C   UNL     1       0.023  -0.702   1.196  0.00  0.00    +0.021 A 
ATOM     21 BR   UNL     1       0.026   0.238   2.838  0.00  0.00    -0.050 Br
ENDBRANCH   1  17
TORSDOF 1
