REMARK  Name = ZINC45702871
REMARK  5 active torsions:
REMARK  status: ('A' for Active; 'I' for Inactive)
REMARK    1  A    between atoms: C_4  and  C_7
REMARK    2  A    between atoms: C_7  and  C_9
REMARK    3  A    between atoms: C_14  and  C_15
REMARK    4  A    between atoms: N_17  and  N_18
REMARK    5  A    between atoms: C_19  and  C_21
REMARK                            x       y       z     vdW  Elec       q    Type
REMARK                         _______ _______ _______ _____ _____    ______ ____
ROOT
ATOM      1  C   UNL     1       6.316  -1.914   0.011  0.00  0.00    +0.261 C 
ATOM      2  O   UNL     1       6.216  -0.709   0.137  0.00  0.00    -0.269 OA
ATOM      3  N   UNL     1       7.534  -2.484  -0.068  0.00  0.00    -0.230 N 
ATOM      4  H   UNL     1       7.614  -3.446  -0.168  0.00  0.00    +0.173 HD
ENDROOT
BRANCH   1  10
ATOM      5  C   UNL     1       3.825  -2.156  -0.054  0.00  0.00    +0.034 A 
ATOM      6  C   UNL     1       2.689  -2.959  -0.121  0.00  0.00    +0.012 A 
ATOM      7  C   UNL     1       2.817  -4.334  -0.181  0.00  0.00    +0.001 A 
ATOM      8  C   UNL     1       4.071  -4.921  -0.176  0.00  0.00    +0.001 A 
ATOM      9  C   UNL     1       5.209  -4.140  -0.110  0.00  0.00    +0.014 A 
ATOM     10  C   UNL     1       5.100  -2.754  -0.054  0.00  0.00    +0.049 A 
BRANCH   5  11
ATOM     11  C   UNL     1       3.694  -0.685   0.011  0.00  0.00    +0.194 C 
ATOM     12  O   UNL     1       3.423  -0.054  -0.992  0.00  0.00    -0.287 OA
BRANCH  11  16
ATOM     13  C   UNL     1       4.261   1.338   3.702  0.00  0.00    +0.000 A 
ATOM     14  C   UNL     1       4.064   2.065   2.541  0.00  0.00    +0.001 A 
ATOM     15  C   UNL     1       3.880   1.415   1.339  0.00  0.00    +0.012 A 
ATOM     16  C   UNL     1       3.892   0.019   1.295  0.00  0.00    +0.022 A 
ATOM     17  C   UNL     1       4.091  -0.709   2.470  0.00  0.00    +0.012 A 
ATOM     18  C   UNL     1       4.274  -0.046   3.665  0.00  0.00    +0.001 A 
ENDBRANCH  11  16
ENDBRANCH   5  11
ENDBRANCH   1  10
BRANCH   3  19
ATOM     19  N   UNL     1       8.686  -1.688  -0.006  0.00  0.00    -0.229 N 
ATOM     20  C   UNL     1       9.904  -2.259  -0.086  0.00  0.00    +0.276 C 
ATOM     21  O   UNL     1      10.004  -3.465  -0.211  0.00  0.00    -0.267 OA
ATOM     22  H   UNL     1       8.606  -0.727   0.094  0.00  0.00    +0.173 HD
BRANCH  20  23
ATOM     23  C   UNL     1      11.110  -1.426  -0.021  0.00  0.00    +0.104 A 
ATOM     24  C   UNL     1      12.413  -1.871  -0.095  0.00  0.00    +0.047 A 
ATOM     25  C   UNL     1      13.238  -0.747   0.009  0.00  0.00    +0.036 A 
ATOM     26  C   UNL     1      12.442   0.342   0.141  0.00  0.00    +0.098 A 
ATOM     27  N   UNL     1      11.146  -0.057   0.119  0.00  0.00    -0.356 N 
ATOM     28  H   UNL     1      10.373   0.525   0.191  0.00  0.00    +0.166 HD
ATOM     29 BR   UNL     1      15.129  -0.745  -0.029  0.00  0.00    -0.049 Br
ENDBRANCH  20  23
ENDBRANCH   3  19
TORSDOF 5
