REMARK  Name = ZINC01880900
REMARK  6 active torsions:
REMARK  status: ('A' for Active; 'I' for Inactive)
REMARK    1  A    between atoms: C_4  and  C_7
REMARK    2  A    between atoms: C_8  and  C_13
REMARK    3  A    between atoms: N_14  and  N_15
REMARK    4  A    between atoms: C_16  and  C_18
REMARK    5  A    between atoms: C_18  and  N_19
REMARK    6  A    between atoms: C_20  and  C_22
REMARK                            x       y       z     vdW  Elec       q    Type
REMARK                         _______ _______ _______ _____ _____    ______ ____
ROOT
ATOM      1  N   UNL     1       3.680   1.229   0.124  0.00  0.00    -0.206 N 
ATOM      2  C   UNL     1       2.429   0.777   0.342  0.00  0.00    +0.249 C 
ATOM      3  O   UNL     1       2.237  -0.404   0.539  0.00  0.00    -0.272 OA
ATOM      4  H   UNL     1       3.855   2.300  -0.055  0.00  0.00    +0.177 HD
ENDROOT
BRANCH   1   6
ATOM      5  C   UNL     1       5.963   0.769  -0.083  0.00  0.00    +0.142 C 
ATOM      6  N   UNL     1       4.758   0.334   0.126  0.00  0.00    -0.188 NA
BRANCH   5   8
ATOM      7  C   UNL     1       7.024  -1.630   0.035  0.00  0.00    +0.101 A 
ATOM      8  C   UNL     1       7.098  -0.172  -0.082  0.00  0.00    +0.040 A 
ATOM      9  C   UNL     1       8.424   0.147  -0.182  0.00  0.00    +0.115 A 
ATOM     10  N   UNL     1       9.132  -0.997  -0.140  0.00  0.00    -0.284 N 
ATOM     11  H   UNL     1      10.229  -0.968  -0.205  0.00  0.00    +0.188 HD
ATOM     12  N   UNL     1       8.259  -2.082  -0.010  0.00  0.00    -0.173 NA
BRANCH   7  16
ATOM     13  C   UNL     1       3.492  -3.962   0.429  0.00  0.00    +0.000 A 
ATOM     14  C   UNL     1       3.538  -2.932  -0.493  0.00  0.00    +0.001 A 
ATOM     15  C   UNL     1       4.682  -2.172  -0.626  0.00  0.00    +0.010 A 
ATOM     16  C   UNL     1       5.792  -2.443   0.172  0.00  0.00    +0.003 A 
ATOM     17  C   UNL     1       5.742  -3.485   1.097  0.00  0.00    +0.010 A 
ATOM     18  C   UNL     1       4.590  -4.236   1.224  0.00  0.00    +0.001 A 
ENDBRANCH   7  16
ENDBRANCH   5   8
ENDBRANCH   1   6
BRANCH   2  19
ATOM     19  C   UNL     1       1.270   1.739   0.340  0.00  0.00    +0.202 C 
BRANCH  19  20
ATOM     20  N   UNL     1       0.027   1.007   0.598  0.00  0.00    -0.303 N 
ATOM     21  C   UNL     1      -1.148   1.667   0.637  0.00  0.00    +0.246 C 
ATOM     22  O   UNL     1      -1.176   2.869   0.463  0.00  0.00    -0.270 OA
ATOM     23  H   UNL     1       0.053  -0.080   0.760  0.00  0.00    +0.150 HD
BRANCH  21  24
ATOM     24  C   UNL     1      -2.402   0.927   0.891  0.00  0.00    +0.051 A 
ATOM     25  C   UNL     1      -2.374  -0.455   1.085  0.00  0.00    +0.014 A 
ATOM     26  C   UNL     1      -3.547  -1.139   1.326  0.00  0.00    +0.001 A 
ATOM     27  C   UNL     1      -4.753  -0.459   1.366  0.00  0.00    +0.001 A 
ATOM     28  C   UNL     1      -4.789   0.909   1.169  0.00  0.00    +0.016 A 
ATOM     29  C   UNL     1      -3.621   1.607   0.932  0.00  0.00    +0.030 A 
ATOM     30 BR   UNL     1      -3.673   3.478   0.662  0.00  0.00    -0.050 Br
ENDBRANCH  21  24
ENDBRANCH  19  20
ENDBRANCH   2  19
TORSDOF 6
