REMARK  Name = ZINC37034531
REMARK  4 active torsions:
REMARK  status: ('A' for Active; 'I' for Inactive)
REMARK    1  A    between atoms: C_6  and  C_7
REMARK    2  A    between atoms: C_7  and  C_9
REMARK    3  A    between atoms: C_7  and  N_16
REMARK    4  A    between atoms: C_9  and  C_10
REMARK                            x       y       z     vdW  Elec       q    Type
REMARK                         _______ _______ _______ _____ _____    ______ ____
ROOT
ATOM      1  C   UNL     1      -0.017   1.380   0.010  0.00  0.00    +0.007 A 
ATOM      2  C   UNL     1       1.167   2.093   0.002  0.00  0.00    +0.028 A 
ATOM      3  C   UNL     1       2.378   1.419  -0.013  0.00  0.00    +0.067 A 
ATOM      4  C   UNL     1       2.397   0.022  -0.021  0.00  0.00    +0.067 A 
ATOM      5  C   UNL     1       1.204  -0.684  -0.014  0.00  0.00    +0.033 A 
ATOM      6  C   UNL     1       0.002  -0.004   0.002  0.00  0.00    -0.023 A 
ATOM      7  N   UNL     1       3.736  -0.362  -0.035  0.00  0.00    -0.306 N 
ATOM      8  H   UNL     1       4.064  -1.275  -0.043  0.00  0.00    +0.170 HD
ATOM      9  C   UNL     1       4.496   0.749  -0.035  0.00  0.00    +0.325 A 
ATOM     10  O   UNL     1       5.713   0.766  -0.047  0.00  0.00    -0.247 OA
ATOM     11  N   UNL     1       3.706   1.839  -0.023  0.00  0.00    -0.306 N 
ATOM     12  H   UNL     1       4.010   2.760  -0.020  0.00  0.00    +0.170 HD
ENDROOT
BRANCH   6  13
ATOM     13  C   UNL     1      -1.294  -0.772   0.011  0.00  0.00    +0.161 C 
BRANCH  13  14
ATOM     14  C   UNL     1      -1.847  -0.824   1.437  0.00  0.00    +0.360 C 
ATOM     15  F   UNL     1      -0.922  -1.460   2.272  0.00  0.00    -0.194 F 
ATOM     16  F   UNL     1      -2.073   0.478   1.897  0.00  0.00    -0.194 F 
BRANCH  14  17
ATOM     17  C   UNL     1      -3.163  -1.604   1.445  0.00  0.00    +0.456 C 
ATOM     18  F   UNL     1      -2.937  -2.905   0.985  0.00  0.00    -0.165 F 
ATOM     19  F   UNL     1      -3.668  -1.651   2.749  0.00  0.00    -0.165 F 
ATOM     20  F   UNL     1      -4.088  -0.968   0.610  0.00  0.00    -0.165 F 
ENDBRANCH  14  17
ENDBRANCH  13  14
BRANCH  13  21
ATOM     21  N   UNL     1      -2.265  -0.104  -0.866  0.00  0.00    -0.319 NA
ATOM     22  H   UNL     1      -3.121  -0.634  -0.928  0.00  0.00    +0.119 HD
ATOM     23  H   UNL     1      -2.445   0.839  -0.555  0.00  0.00    +0.119 HD
ENDBRANCH  13  21
ENDBRANCH   6  13
TORSDOF 4
