REMARK  Name = ZINC20566498
REMARK  7 active torsions:
REMARK  status: ('A' for Active; 'I' for Inactive)
REMARK    1  A    between atoms: C_1  and  C_2
REMARK    2  A    between atoms: C_2  and  C_3
REMARK    3  A    between atoms: C_3  and  C_4
REMARK    4  A    between atoms: C_4  and  N_5
REMARK    5  A    between atoms: C_10  and  C_27
REMARK    6  A    between atoms: C_27  and  C_28
REMARK    7  A    between atoms: C_31  and  O_34
REMARK                            x       y       z     vdW  Elec       q    Type
REMARK                         _______ _______ _______ _____ _____    ______ ____
ROOT
ATOM      1  N   UNL     1       1.425  -2.500  -2.470  0.00  0.00    -0.242 N 
ATOM      2  C   UNL     1       0.784  -2.738  -3.621  0.00  0.00    +0.227 C 
ATOM      3  O   UNL     1      -0.406  -2.595  -3.803  0.00  0.00    -0.275 OA
ATOM      4  C   UNL     1       1.776  -3.212  -4.659  0.00  0.00    +0.107 C 
ATOM      5  C   UNL     1       1.500  -4.697  -4.982  0.00  0.00    +0.072 C 
ATOM      6  N   UNL     1       2.838  -5.345  -4.966  0.00  0.00    -0.295 NA
ATOM      7  C   UNL     1       3.543  -4.692  -3.847  0.00  0.00    +0.136 C 
ATOM      8  C   UNL     1       3.128  -3.200  -3.894  0.00  0.00    +0.122 C 
ATOM      9  C   UNL     1       2.744  -2.723  -2.512  0.00  0.00    +0.228 C 
ATOM     10  O   UNL     1       3.510  -2.569  -1.586  0.00  0.00    -0.275 OA
ATOM     11  C   UNL     1       3.197  -5.328  -2.531  0.00  0.00    +0.003 A 
ATOM     12  C   UNL     1       2.016  -5.513  -1.847  0.00  0.00    +0.008 A 
ATOM     13  C   UNL     1       2.018  -6.154  -0.622  0.00  0.00    +0.000 A 
ATOM     14  C   UNL     1       3.209  -6.610  -0.085  0.00  0.00    +0.002 A 
ATOM     15  C   UNL     1       4.394  -6.429  -0.767  0.00  0.00    +0.023 A 
ATOM     16  C   UNL     1       4.401  -5.783  -2.001  0.00  0.00    +0.039 A 
ATOM     17  N   UNL     1       5.455  -5.484  -2.868  0.00  0.00    -0.283 N 
ATOM     18  C   UNL     1       5.034  -4.844  -3.976  0.00  0.00    +0.243 C 
ATOM     19  O   UNL     1       5.724  -4.463  -4.898  0.00  0.00    -0.273 OA
ATOM     20  H   UNL     1       2.757  -6.338  -4.811  0.00  0.00    +0.124 HD
ATOM     21  H   UNL     1       6.381  -5.711  -2.692  0.00  0.00    +0.155 HD
ENDROOT
BRANCH   1  22
ATOM     22  C   UNL     1       0.739  -2.027  -1.265  0.00  0.00    +0.116 C 
BRANCH  22  23
ATOM     23  C   UNL     1       0.718  -0.497  -1.257  0.00  0.00    +0.019 C 
BRANCH  23  25
ATOM     24  C   UNL     1      -0.019   1.526   0.010  0.00  0.00    +0.004 C 
ATOM     25  C   UNL     1       0.002  -0.004   0.002  0.00  0.00    -0.002 C 
ENDBRANCH  23  25
ENDBRANCH  22  23
ENDBRANCH   1  22
BRANCH   5  26
ATOM     26  C   UNL     1       0.857  -4.831  -6.363  0.00  0.00    +0.054 C 
BRANCH  26  27
ATOM     27  C   UNL     1       0.485  -6.271  -6.606  0.00  0.00    -0.046 A 
ATOM     28  C   UNL     1       1.395  -7.129  -7.195  0.00  0.00    +0.007 A 
ATOM     29  C   UNL     1       1.056  -8.449  -7.420  0.00  0.00    +0.045 A 
ATOM     30  C   UNL     1      -0.199  -8.914  -7.053  0.00  0.00    +0.117 A 
ATOM     31  C   UNL     1      -1.110  -8.051  -6.462  0.00  0.00    +0.045 A 
ATOM     32  C   UNL     1      -0.764  -6.733  -6.235  0.00  0.00    +0.007 A 
BRANCH  30  33
ATOM     33  O   UNL     1      -0.535 -10.212  -7.273  0.00  0.00    -0.507 OA
ATOM     34  H   UNL     1      -0.319 -10.804  -6.539  0.00  0.00    +0.292 HD
ENDBRANCH  30  33
ENDBRANCH  26  27
ENDBRANCH   5  26
TORSDOF 6
