REMARK  Name = ZINC50545472
REMARK  6 active torsions:
REMARK  status: ('A' for Active; 'I' for Inactive)
REMARK    1  A    between atoms: C_1  and  C_2
REMARK    2  A    between atoms: C_4  and  C_9
REMARK    3  A    between atoms: C_9  and  N_10
REMARK    4  A    between atoms: N_10  and  C_11
REMARK    5  A    between atoms: C_14  and  S_18
REMARK    6  A    between atoms: S_18  and  N_21
REMARK                            x       y       z     vdW  Elec       q    Type
REMARK                         _______ _______ _______ _____ _____    ______ ____
ROOT
ATOM      1  C   UNL     1       1.669  -3.715  -4.143  0.00  0.00    +0.042 A 
ATOM      2  C   UNL     1       0.617  -4.172  -4.926  0.00  0.00    +0.026 A 
ATOM      3  C   UNL     1       0.875  -4.839  -6.107  0.00  0.00    +0.030 A 
ATOM      4  C   UNL     1       2.181  -5.053  -6.511  0.00  0.00    +0.106 A 
ATOM      5  C   UNL     1       3.231  -4.601  -5.734  0.00  0.00    +0.045 A 
ATOM      6  C   UNL     1       2.979  -3.927  -4.553  0.00  0.00    +0.041 A 
ATOM      7 BR   UNL     1       4.416  -3.302  -3.495  0.00  0.00    -0.048 Br
ENDROOT
BRANCH   4   8
ATOM      8  S   UNL     1       2.506  -5.906  -8.018  0.00  0.00    +0.056 S 
ATOM      9  O   UNL     1       3.810  -6.457  -7.899  0.00  0.00    -0.153 OA
ATOM     10  O   UNL     1       1.363  -6.706  -8.287  0.00  0.00    -0.153 OA
BRANCH   8  11
ATOM     11  N   UNL     1       2.581  -4.768  -9.218  0.00  0.00    -0.204 NA
ATOM     12  H   UNL     1       2.452  -3.830  -9.006  0.00  0.00    +0.144 HD
ATOM     13  H   UNL     1       2.753  -5.038 -10.133  0.00  0.00    +0.144 HD
ENDBRANCH   8  11
ENDBRANCH   4   8
BRANCH   1  14
ATOM     14  N   UNL     1       1.410  -3.039  -2.948  0.00  0.00    -0.339 N 
ATOM     15  H   UNL     1       2.146  -2.717  -2.404  0.00  0.00    +0.146 HD
BRANCH  14  16
ATOM     16  C   UNL     1       0.028  -2.816  -2.516  0.00  0.00    +0.137 C 
BRANCH  16  20
ATOM     17  C   UNL     1      -0.018   1.503   0.010  0.00  0.00    +0.047 C 
ATOM     18  C   UNL     1       0.002  -0.004   0.002  0.00  0.00    -0.015 A 
ATOM     19  C   UNL     1       0.006  -0.689  -1.199  0.00  0.00    +0.011 A 
ATOM     20  C   UNL     1       0.025  -2.071  -1.206  0.00  0.00    -0.030 A 
ATOM     21  C   UNL     1       0.040  -2.770  -0.014  0.00  0.00    +0.008 A 
ATOM     22  C   UNL     1       0.036  -2.088   1.188  0.00  0.00    +0.039 A 
ATOM     23  C   UNL     1       0.023  -0.703   1.197  0.00  0.00    +0.126 A 
ATOM     24  F   UNL     1       0.025  -0.035   2.371  0.00  0.00    -0.205 F 
ENDBRANCH  16  20
ENDBRANCH  14  16
ENDBRANCH   1  14
TORSDOF 5
