REMARK  Name = ZINC38050171
REMARK  4 active torsions:
REMARK  status: ('A' for Active; 'I' for Inactive)
REMARK    1  A    between atoms: C_5  and  S_8
REMARK    2  A    between atoms: S_8  and  N_11
REMARK    3  A    between atoms: N_11  and  C_12
REMARK    4  A    between atoms: C_18  and  N_20
REMARK                            x       y       z     vdW  Elec       q    Type
REMARK                         _______ _______ _______ _____ _____    ______ ____
ROOT
ATOM      1  S   UNL     1       1.233  -2.441  -0.024  0.00  0.00    +0.061 S 
ATOM      2  O   UNL     1      -0.012  -2.861  -0.564  0.00  0.00    -0.153 OA
ATOM      3  O   UNL     1       2.479  -2.827  -0.589  0.00  0.00    -0.153 OA
ENDROOT
BRANCH   1   8
ATOM      4  C   UNL     1      -0.017   1.379   0.010  0.00  0.00    +0.037 A 
ATOM      5  C   UNL     1       1.171   2.087   0.002  0.00  0.00    +0.021 A 
ATOM      6  C   UNL     1       2.379   1.412  -0.014  0.00  0.00    +0.037 A 
ATOM      7  C   UNL     1       2.398   0.029  -0.021  0.00  0.00    +0.070 A 
ATOM      8  C   UNL     1       1.209  -0.679  -0.013  0.00  0.00    +0.142 A 
ATOM      9  C   UNL     1       0.002  -0.004   0.002  0.00  0.00    +0.070 A 
ATOM     10 CL   UNL     1      -1.489  -0.892   0.012  0.00  0.00    -0.081 Cl
ATOM     11 CL   UNL     1       3.913  -0.818  -0.041  0.00  0.00    -0.081 Cl
ATOM     12 BR   UNL     1       1.146   3.978   0.013  0.00  0.00    -0.050 Br
ENDBRANCH   1   8
BRANCH   1  13
ATOM     13  N   UNL     1       1.256  -2.940   1.556  0.00  0.00    -0.188 NA
ATOM     14  H   UNL     1       2.028  -3.414   1.903  0.00  0.00    +0.148 HD
BRANCH  13  15
ATOM     15  C   UNL     1       0.111  -2.665   2.427  0.00  0.00    +0.062 C 
ATOM     16  C   UNL     1      -0.823  -3.877   2.439  0.00  0.00    +0.019 C 
ATOM     17  C   UNL     1      -0.066  -5.099   2.963  0.00  0.00    +0.001 C 
ATOM     18  C   UNL     1       0.430  -4.822   4.383  0.00  0.00    -0.001 C 
ATOM     19  C   UNL     1       1.364  -3.610   4.371  0.00  0.00    -0.015 C 
ATOM     20  C   UNL     1       0.607  -2.388   3.848  0.00  0.00    -0.056 C 
BRANCH  20  21
ATOM     21  N   UNL     1       1.503  -1.225   3.836  0.00  0.00    +0.381 N 
ATOM     22  H   UNL     1       1.004  -0.419   3.491  0.00  0.00    -0.090 HD
ATOM     23  H   UNL     1       1.830  -1.042   4.773  0.00  0.00    -0.090 HD
ATOM     24  H   UNL     1       2.292  -1.414   3.236  0.00  0.00    -0.090 HD
ENDBRANCH  20  21
ENDBRANCH  13  15
ENDBRANCH   1  13
TORSDOF 4
