REMARK  Name = ZINC26670382
REMARK  7 active torsions:
REMARK  status: ('A' for Active; 'I' for Inactive)
REMARK    1  A    between atoms: C_1  and  C_2
REMARK    2  A    between atoms: C_2  and  C_27
REMARK    3  A    between atoms: C_3  and  O_26
REMARK    4  A    between atoms: C_5  and  O_17
REMARK    5  A    between atoms: C_9  and  C_14
REMARK    6  A    between atoms: C_14  and  N_16
REMARK    7  A    between atoms: O_17  and  C_18
REMARK                            x       y       z     vdW  Elec       q    Type
REMARK                         _______ _______ _______ _____ _____    ______ ____
ROOT
ATOM      1  C   UNL     1      -0.048   1.543  -0.018  0.00  0.00    +0.058 C 
ATOM      2  C   UNL     1      -0.017   0.013  -0.022  0.00  0.00    +0.135 C 
ATOM      3  C   UNL     1      -1.450  -0.533   0.026  0.00  0.00    +0.202 C 
ATOM      4  C   UNL     1      -1.387  -2.058  -0.092  0.00  0.00    +0.239 C 
ATOM      5  C   UNL     1      -0.358  -2.599   0.868  0.00  0.00    +0.038 A 
ATOM      6  C   UNL     1      -0.400  -3.940   1.196  0.00  0.00    +0.021 A 
ATOM      7  C   UNL     1       0.539  -4.477   2.079  0.00  0.00    +0.004 A 
ATOM      8  C   UNL     1       1.522  -3.650   2.630  0.00  0.00    +0.014 A 
ATOM      9  C   UNL     1       1.557  -2.315   2.299  0.00  0.00    +0.047 A 
ATOM     10  C   UNL     1       0.617  -1.781   1.419  0.00  0.00    +0.128 A 
ATOM     11  O   UNL     1       0.683  -0.456   1.132  0.00  0.00    -0.483 OA
ATOM     12  C   UNL     1       0.684  -0.485  -1.287  0.00  0.00    +0.058 C 
ENDROOT
BRANCH   7  13
ATOM     13  C   UNL     1       0.493  -5.908   2.429  0.00  0.00    +0.077 C 
ATOM     14  S   UNL     1       0.015  -7.061   1.257  0.00  0.00    -0.035 S 
BRANCH  13  15
ATOM     15  N   UNL     1       0.828  -6.309   3.671  0.00  0.00    -0.352 N 
ATOM     16  H   UNL     1       1.099  -5.656   4.335  0.00  0.00    +0.143 HD
ATOM     17  H   UNL     1       0.798  -7.251   3.902  0.00  0.00    +0.143 HD
ENDBRANCH  13  15
ENDBRANCH   7  13
BRANCH   3  18
ATOM     18  O   UNL     1      -2.206   0.005  -1.061  0.00  0.00    -0.384 OA
ATOM     19  H   UNL     1      -3.123  -0.300  -1.091  0.00  0.00    +0.210 HD
ENDBRANCH   3  18
BRANCH   4  20
ATOM     20  O   UNL     1      -2.667  -2.612   0.220  0.00  0.00    -0.481 OA
BRANCH  20  21
ATOM     21  C   UNL     1      -3.047  -3.710  -0.475  0.00  0.00    +0.128 A 
ATOM     22  C   UNL     1      -4.341  -4.245  -0.316  0.00  0.00    +0.063 A 
ATOM     23  C   UNL     1      -4.706  -5.340  -1.016  0.00  0.00    +0.089 A 
ATOM     24  N   UNL     1      -3.841  -5.938  -1.876  0.00  0.00    -0.329 N 
ATOM     25  H   UNL     1      -4.124  -6.724  -2.368  0.00  0.00    +0.168 HD
ATOM     26  C   UNL     1      -2.596  -5.457  -2.056  0.00  0.00    +0.252 A 
ATOM     27  O   UNL     1      -1.836  -6.011  -2.834  0.00  0.00    -0.268 OA
ATOM     28  C   UNL     1      -2.174  -4.321  -1.356  0.00  0.00    +0.115 A 
ENDBRANCH  20  21
ENDBRANCH   4  20
TORSDOF 5
