REMARK  Name = ZINC63572489
REMARK  5 active torsions:
REMARK  status: ('A' for Active; 'I' for Inactive)
REMARK    1  A    between atoms: C_1  and  C_2
REMARK    2  A    between atoms: C_2  and  O_3
REMARK    3  A    between atoms: O_3  and  C_4
REMARK    4  A    between atoms: C_9  and  N_10
REMARK    5  A    between atoms: C_26  and  C_28
REMARK                            x       y       z     vdW  Elec       q    Type
REMARK                         _______ _______ _______ _____ _____    ______ ____
ROOT
ATOM      1  N   UNL     1      -3.904  -1.988   0.212  0.00  0.00    -0.266 N 
ATOM      2  C   UNL     1      -5.184  -2.371   0.033  0.00  0.00    +0.307 C 
ATOM      3  O   UNL     1      -5.458  -3.552  -0.060  0.00  0.00    -0.252 OA
ATOM      4  N   UNL     1      -6.160  -1.445  -0.042  0.00  0.00    -0.276 N 
ATOM      5  C   UNL     1      -5.811  -0.021  -0.033  0.00  0.00    +0.114 C 
ATOM      6  C   UNL     1      -6.360   0.649  -1.306  0.00  0.00    +0.052 C 
ATOM      7  C   UNL     1      -7.778   0.164  -1.473  0.00  0.00    -0.035 C 
ATOM      8  C   UNL     1      -8.916   0.822  -1.651  0.00  0.00    +0.001 A 
ATOM      9  C   UNL     1      -9.198   2.252  -1.859  0.00  0.00    +0.030 A 
ATOM     10  C   UNL     1     -10.509   2.592  -1.989  0.00  0.00    +0.042 A 
ATOM     11  C   UNL     1     -11.554   1.663  -1.934  0.00  0.00    +0.022 A 
ATOM     12  C   UNL     1     -11.385   0.329  -1.755  0.00  0.00    +0.027 A 
ATOM     13  C   UNL     1     -10.050  -0.151  -1.614  0.00  0.00    +0.043 A 
ATOM     14  N   UNL     1      -9.604  -1.362  -1.457  0.00  0.00    -0.375 N 
ATOM     15  C   UNL     1      -8.142  -1.316  -1.438  0.00  0.00    +0.131 C 
ATOM     16  C   UNL     1      -7.564  -1.874  -0.138  0.00  0.00    +0.134 C 
ATOM     17 CL   UNL     1     -10.906   4.264  -2.237  0.00  0.00    -0.084 Cl
ATOM     18  H   UNL     1      -3.690  -1.049   0.324  0.00  0.00    +0.156 HD
ATOM     19  H   UNL     1     -10.148  -2.160  -1.367  0.00  0.00    +0.160 HD
ENDROOT
BRANCH  16  20
ATOM     20  C   UNL     1      -8.344  -1.337   1.034  0.00  0.00    -0.025 A 
ATOM     21  C   UNL     1      -8.914  -2.210   1.943  0.00  0.00    +0.008 A 
ATOM     22  C   UNL     1      -9.629  -1.718   3.019  0.00  0.00    +0.038 A 
ATOM     23  C   UNL     1      -9.774  -0.351   3.186  0.00  0.00    +0.123 A 
ATOM     24  C   UNL     1      -9.203   0.521   2.276  0.00  0.00    +0.038 A 
ATOM     25  C   UNL     1      -8.484   0.028   1.204  0.00  0.00    +0.008 A 
ATOM     26  F   UNL     1     -10.473   0.130   4.237  0.00  0.00    -0.205 F 
ENDBRANCH  16  20
BRANCH   1  32
ATOM     27  C   UNL     1      -1.575  -2.584  -0.079  0.00  0.00    +0.142 A 
ATOM     28  C   UNL     1      -0.569  -3.535  -0.047  0.00  0.00    +0.047 A 
ATOM     29  C   UNL     1      -0.863  -4.843   0.292  0.00  0.00    +0.004 A 
ATOM     30  C   UNL     1      -2.161  -5.206   0.600  0.00  0.00    +0.002 A 
ATOM     31  C   UNL     1      -3.171  -4.263   0.571  0.00  0.00    +0.027 A 
ATOM     32  C   UNL     1      -2.882  -2.948   0.237  0.00  0.00    +0.077 A 
BRANCH  27  33
ATOM     33  O   UNL     1      -1.288  -1.298  -0.412  0.00  0.00    -0.490 OA
BRANCH  33  35
ATOM     34  C   UNL     1       0.203   0.486  -1.072  0.00  0.00    +0.048 C 
ATOM     35  C   UNL     1       0.074  -0.998  -0.724  0.00  0.00    +0.226 C 
ENDBRANCH  33  35
ENDBRANCH  27  33
ENDBRANCH   1  32
TORSDOF 4
