REMARK  Name = ZINC15780431
REMARK  6 active torsions:
REMARK  status: ('A' for Active; 'I' for Inactive)
REMARK    1  A    between atoms: C_1  and  C_2
REMARK    2  A    between atoms: C_5  and  S_9
REMARK    3  A    between atoms: C_6  and  C_8
REMARK    4  A    between atoms: S_9  and  N_12
REMARK    5  A    between atoms: N_12  and  C_13
REMARK    6  A    between atoms: C_18  and  C_19
REMARK                            x       y       z     vdW  Elec       q    Type
REMARK                         _______ _______ _______ _____ _____    ______ ____
ROOT
ATOM      1  N   UNL     1      -2.834   1.524  -0.086  0.00  0.00    -0.216 N 
ATOM      2  H   UNL     1      -2.674   0.764  -0.667  0.00  0.00    +0.174 HD
ENDROOT
BRANCH   1   3
ATOM      3  C   UNL     1      -1.914   1.840   0.919  0.00  0.00    +0.053 A 
ATOM      4  C   UNL     1      -2.361   2.342   2.134  0.00  0.00    +0.052 A 
ATOM      5  C   UNL     1      -1.447   2.660   3.125  0.00  0.00    +0.069 A 
ATOM      6  C   UNL     1      -0.081   2.469   2.902  0.00  0.00    +0.067 A 
ATOM      7  C   UNL     1       0.358   1.963   1.689  0.00  0.00    +0.033 A 
ATOM      8  C   UNL     1      -0.555   1.647   0.702  0.00  0.00    -0.026 A 
ATOM      9  C   UNL     1      -0.075   1.096  -0.616  0.00  0.00    +0.046 C 
ATOM     10  N   UNL     1       0.577   2.873   4.064  0.00  0.00    -0.306 N 
ATOM     11  H   UNL     1       1.536   2.857   4.209  0.00  0.00    +0.170 HD
ATOM     12  C   UNL     1      -0.347   3.289   4.951  0.00  0.00    +0.325 A 
ATOM     13  O   UNL     1      -0.108   3.707   6.068  0.00  0.00    -0.247 OA
ATOM     14  N   UNL     1      -1.576   3.172   4.414  0.00  0.00    -0.306 N 
ATOM     15  H   UNL     1      -2.410   3.406   4.850  0.00  0.00    +0.170 HD
ENDBRANCH   1   3
BRANCH   1  16
ATOM     16  S   UNL     1      -4.195   2.446  -0.284  0.00  0.00    +0.073 S 
ATOM     17  O   UNL     1      -4.844   1.966  -1.453  0.00  0.00    -0.150 OA
ATOM     18  O   UNL     1      -4.841   2.493   0.981  0.00  0.00    -0.150 OA
BRANCH  16  23
ATOM     19  C   UNL     1      -2.377   8.069  -1.502  0.00  0.00    +0.044 C 
ATOM     20  C   UNL     1      -2.831   6.664  -1.198  0.00  0.00    -0.050 A 
ATOM     21  C   UNL     1      -3.519   6.398  -0.028  0.00  0.00    +0.005 A 
ATOM     22  C   UNL     1      -3.935   5.110   0.251  0.00  0.00    +0.029 A 
ATOM     23  C   UNL     1      -3.664   4.088  -0.640  0.00  0.00    +0.111 A 
ATOM     24  C   UNL     1      -2.973   4.353  -1.806  0.00  0.00    -0.024 A 
ATOM     25  C   UNL     1      -2.561   5.642  -2.088  0.00  0.00    +0.008 A 
ATOM     26  C   UNL     1      -2.672   3.237  -2.774  0.00  0.00    +0.046 C 
ENDBRANCH  16  23
ENDBRANCH   1  16
TORSDOF 3
