REMARK  Name = ZINC01690053
REMARK  8 active torsions:
REMARK  status: ('A' for Active; 'I' for Inactive)
REMARK    1  A    between atoms: C_1  and  C_2
REMARK    2  A    between atoms: C_2  and  C_3
REMARK    3  A    between atoms: C_3  and  C_5
REMARK    4  A    between atoms: C_3  and  C_6
REMARK    5  A    between atoms: C_7  and  N_22
REMARK    6  A    between atoms: N_8  and  S_12
REMARK    7  A    between atoms: S_12  and  C_15
REMARK    8  A    between atoms: C_18  and  C_21
REMARK                            x       y       z     vdW  Elec       q    Type
REMARK                         _______ _______ _______ _____ _____    ______ ____
ROOT
ATOM      1  C   UNL     1      -2.906   1.634   2.452  0.00  0.00    +0.084 A 
ATOM      2  C   UNL     1      -4.047   2.419   2.433  0.00  0.00    +0.165 A 
ATOM      3  N   UNL     1      -4.340   2.701   3.727  0.00  0.00    -0.052 N 
ATOM      4  O   UNL     1      -3.541   2.198   4.482  0.00  0.00    -0.312 OA
ATOM      5  C   UNL     1      -2.604   1.504   3.815  0.00  0.00    +0.366 A 
ATOM      6  O   UNL     1      -1.671   0.883   4.301  0.00  0.00    -0.243 OA
ENDROOT
BRANCH   3   7
ATOM      7  S   UNL     1      -5.630   3.619   4.212  0.00  0.00    +0.112 S 
ATOM      8  O   UNL     1      -5.299   4.141   5.492  0.00  0.00    -0.145 OA
ATOM      9  O   UNL     1      -5.970   4.454   3.114  0.00  0.00    -0.145 OA
BRANCH   7  10
ATOM     10  C   UNL     1      -6.989   2.523   4.451  0.00  0.00    +0.114 A 
ATOM     11  C   UNL     1      -7.848   2.248   3.404  0.00  0.00    +0.029 A 
ATOM     12  C   UNL     1      -8.912   1.386   3.590  0.00  0.00    +0.005 A 
ATOM     13  C   UNL     1      -9.121   0.804   4.827  0.00  0.00    -0.050 A 
ATOM     14  C   UNL     1      -8.265   1.083   5.876  0.00  0.00    +0.005 A 
ATOM     15  C   UNL     1      -7.199   1.943   5.688  0.00  0.00    +0.029 A 
ATOM     16  C   UNL     1     -10.283  -0.134   5.031  0.00  0.00    +0.044 C 
ENDBRANCH   7  10
ENDBRANCH   3   7
BRANCH   2  17
ATOM     17  N   UNL     1      -4.747   2.830   1.321  0.00  0.00    -0.340 N 
ATOM     18  H   UNL     1      -4.448   2.569   0.436  0.00  0.00    +0.144 HD
ATOM     19  H   UNL     1      -5.538   3.382   1.423  0.00  0.00    +0.144 HD
ENDBRANCH   2  17
BRANCH   1  20
ATOM     20  C   UNL     1      -2.164   1.050   1.278  0.00  0.00    +0.026 C 
ATOM     21  C   UNL     1      -2.144  -0.476   1.395  0.00  0.00    +0.013 C 
BRANCH  20  23
ATOM     22  C   UNL     1      -0.013   1.086   0.008  0.00  0.00    +0.004 C 
ATOM     23  C   UNL     1      -0.729   1.579   1.267  0.00  0.00    +0.005 C 
ENDBRANCH  20  23
ENDBRANCH   1  20
TORSDOF 5
