REMARK  Name = ZINC39687279
REMARK  7 active torsions:
REMARK  status: ('A' for Active; 'I' for Inactive)
REMARK    1  A    between atoms: C_1  and  N_2
REMARK    2  A    between atoms: C_6  and  C_7
REMARK    3  A    between atoms: C_11  and  C_20
REMARK    4  A    between atoms: N_22  and  C_23
REMARK    5  A    between atoms: C_23  and  C_25
REMARK    6  A    between atoms: C_23  and  C_32
REMARK    7  A    between atoms: C_25  and  C_26
REMARK                            x       y       z     vdW  Elec       q    Type
REMARK                         _______ _______ _______ _____ _____    ______ ____
ROOT
ATOM      1  C   UNL     1      -0.095  -0.062   2.405  0.00  0.00    +0.263 C 
ATOM      2  O   UNL     1      -0.032  -0.981   3.200  0.00  0.00    -0.268 OA
ATOM      3  N   UNL     1      -0.444   1.171   2.824  0.00  0.00    -0.295 N 
ATOM      4  C   UNL     1      -0.715   2.369   1.996  0.00  0.00    +0.121 C 
ATOM      5  C   UNL     1      -1.915   3.056   2.686  0.00  0.00    +0.100 C 
ATOM      6  C   UNL     1      -1.861   2.571   4.144  0.00  0.00    -0.004 C 
ATOM      7  C   UNL     1      -0.648   1.631   4.219  0.00  0.00    +0.115 C 
ATOM      8  C   UNL     1      -3.134   1.807   4.494  0.00  0.00    -0.010 C 
ATOM      9  C   UNL     1      -3.082   1.384   5.965  0.00  0.00    -0.082 C 
ATOM     10  N   UNL     1      -2.952   2.574   6.814  0.00  0.00    +0.379 N 
ATOM     11  C   UNL     1      -1.680   3.252   6.535  0.00  0.00    -0.082 C 
ATOM     12  C   UNL     1      -1.673   3.754   5.089  0.00  0.00    -0.010 C 
ATOM     13  H   UNL     1      -3.716   3.205   6.626  0.00  0.00    -0.086 HD
ATOM     14  H   UNL     1      -2.978   2.298   7.784  0.00  0.00    -0.086 HD
ENDROOT
BRANCH   1  20
ATOM     15  C   UNL     1       0.414  -2.814   1.077  0.00  0.00    +0.149 C 
ATOM     16  N   UNL     1       0.435  -1.517   0.396  0.00  0.00    -0.346 N 
ATOM     17  C   UNL     1       0.674  -1.321  -0.923  0.00  0.00    +0.086 A 
ATOM     18  C   UNL     1       0.611   0.006  -1.188  0.00  0.00    +0.020 A 
ATOM     19  C   UNL     1       0.320   0.668   0.009  0.00  0.00    +0.032 A 
ATOM     20  C   UNL     1       0.208  -0.296   0.989  0.00  0.00    +0.104 A 
ENDBRANCH   1  20
BRANCH   5  21
ATOM     21  C   UNL     1      -3.207   2.631   2.036  0.00  0.00    +0.219 C 
ATOM     22  O   UNL     1      -4.069   3.453   1.806  0.00  0.00    -0.275 OA
ATOM     23  N   UNL     1      -3.404   1.338   1.712  0.00  0.00    -0.303 N 
ATOM     24  H   UNL     1      -2.715   0.681   1.897  0.00  0.00    +0.149 HD
BRANCH  23  25
ATOM     25  C   UNL     1      -4.660   0.925   1.081  0.00  0.00    +0.163 C 
BRANCH  25  26
ATOM     26  C   UNL     1      -4.911  -0.533   1.368  0.00  0.00    +0.236 C 
ATOM     27  O   UNL     1      -3.977  -1.285   1.549  0.00  0.00    -0.274 OA
ATOM     28  N   UNL     1      -6.174  -1.001   1.424  0.00  0.00    -0.300 N 
ATOM     29  C   UNL     1      -7.310  -0.132   1.091  0.00  0.00    +0.108 C 
ATOM     30  C   UNL     1      -8.161  -0.821   0.019  0.00  0.00    +0.019 C 
ATOM     31  C   UNL     1      -8.559  -2.215   0.508  0.00  0.00    +0.003 C 
ATOM     32  C   UNL     1      -7.300  -3.055   0.740  0.00  0.00    +0.019 C 
ATOM     33  C   UNL     1      -6.439  -2.393   1.814  0.00  0.00    +0.108 C 
ENDBRANCH  25  26
BRANCH  25  34
ATOM     34  C   UNL     1      -4.565   1.137  -0.431  0.00  0.00    +0.067 C 
BRANCH  34  35
ATOM     35  C   UNL     1      -4.413   2.608  -0.724  0.00  0.00    -0.045 A 
ATOM     36  C   UNL     1      -5.535   3.394  -0.911  0.00  0.00    +0.004 A 
ATOM     37  C   UNL     1      -5.396   4.744  -1.179  0.00  0.00    +0.000 A 
ATOM     38  C   UNL     1      -4.136   5.306  -1.259  0.00  0.00    +0.000 A 
ATOM     39  C   UNL     1      -3.014   4.520  -1.070  0.00  0.00    +0.000 A 
ATOM     40  C   UNL     1      -3.154   3.172  -0.798  0.00  0.00    +0.004 A 
ENDBRANCH  34  35
ENDBRANCH  25  34
ENDBRANCH  23  25
ENDBRANCH   5  21
TORSDOF 6
