REMARK  Name = ZINC45088081
REMARK  6 active torsions:
REMARK  status: ('A' for Active; 'I' for Inactive)
REMARK    1  A    between atoms: C_10  and  C_13
REMARK    2  A    between atoms: N_15  and  C_16
REMARK    3  A    between atoms: C_16  and  C_17
REMARK    4  A    between atoms: C_17  and  C_18
REMARK    5  A    between atoms: C_18  and  S_19
REMARK    6  A    between atoms: S_19  and  N_22
REMARK                            x       y       z     vdW  Elec       q    Type
REMARK                         _______ _______ _______ _____ _____    ______ ____
ROOT
ATOM      1  C   UNL     1       3.286  -3.013   0.428  0.00  0.00    +0.199 C 
ATOM      2  O   UNL     1       4.230  -2.784   1.155  0.00  0.00    -0.278 OA
ATOM      3  N   UNL     1       3.104  -4.252  -0.070  0.00  0.00    -0.317 N 
ATOM      4  H   UNL     1       2.349  -4.435  -0.651  0.00  0.00    +0.149 HD
ENDROOT
BRANCH   1  12
ATOM      5  C   UNL     1      -0.019   1.522   0.010  0.00  0.00    +0.000 C 
ATOM      6  C   UNL     1       1.426   2.033  -0.001  0.00  0.00    -0.002 C 
ATOM      7  C   UNL     1       2.112   1.570   1.285  0.00  0.00    -0.015 C 
ATOM      8  C   UNL     1       2.103   0.063   1.398  0.00  0.00    -0.068 C 
ATOM      9  C   UNL     1       0.694  -0.542   1.256  0.00  0.00    -0.026 C 
ATOM     10  C   UNL     1       0.002  -0.004   0.002  0.00  0.00    +0.002 C 
ATOM     11  C   UNL     1       1.051  -2.032   0.963  0.00  0.00    -0.005 C 
ATOM     12  C   UNL     1       2.316  -1.913   0.084  0.00  0.00    +0.017 C 
ATOM     13  N   UNL     1       2.909  -0.596   0.361  0.00  0.00    +0.389 N 
ATOM     14  H   UNL     1       2.910  -0.035  -0.478  0.00  0.00    -0.084 HD
ATOM     15  H   UNL     1       3.854  -0.720   0.691  0.00  0.00    -0.084 HD
ENDBRANCH   1  12
BRANCH   3  16
ATOM     16  C   UNL     1       4.047  -5.322   0.265  0.00  0.00    +0.106 C 
BRANCH  16  17
ATOM     17  C   UNL     1       3.614  -6.617  -0.425  0.00  0.00    +0.043 C 
BRANCH  17  18
ATOM     18  C   UNL     1       4.599  -7.735  -0.076  0.00  0.00    +0.186 C 
BRANCH  18  19
ATOM     19  S   UNL     1       4.086  -9.271  -0.894  0.00  0.00    +0.027 S 
ATOM     20  O   UNL     1       2.867  -9.740  -0.334  0.00  0.00    -0.158 OA
ATOM     21  O   UNL     1       4.237  -9.149  -2.302  0.00  0.00    -0.158 OA
BRANCH  19  22
ATOM     22  N   UNL     1       5.218 -10.392  -0.443  0.00  0.00    -0.208 NA
ATOM     23  H   UNL     1       4.971 -11.327  -0.368  0.00  0.00    +0.144 HD
ATOM     24  H   UNL     1       6.128 -10.114  -0.253  0.00  0.00    +0.144 HD
ENDBRANCH  19  22
ENDBRANCH  18  19
ENDBRANCH  17  18
ENDBRANCH  16  17
ENDBRANCH   3  16
TORSDOF 6
