REMARK  Name = ZINC27817099
REMARK  8 active torsions:
REMARK  status: ('A' for Active; 'I' for Inactive)
REMARK    1  A    between atoms: C_1  and  C_2
REMARK    2  A    between atoms: C_6  and  C_7
REMARK    3  A    between atoms: N_9  and  N_10
REMARK    4  A    between atoms: C_11  and  C_13
REMARK    5  A    between atoms: C_17  and  C_18
REMARK    6  A    between atoms: C_20  and  C_25
REMARK    7  A    between atoms: C_20  and  C_26
REMARK    8  A    between atoms: C_22  and  O_24
REMARK                            x       y       z     vdW  Elec       q    Type
REMARK                         _______ _______ _______ _____ _____    ______ ____
ROOT
ATOM      1  C   UNL     1       8.386  -3.781  -0.086  0.00  0.00    +0.048 C 
ATOM      2  C   UNL     1       8.761  -2.321  -0.090  0.00  0.00    +0.006 A 
ATOM      3  C   UNL     1      10.053  -1.791  -0.106  0.00  0.00    +0.025 A 
ATOM      4  C   UNL     1       9.937  -0.440  -0.096  0.00  0.00    +0.112 A 
ATOM      5  O   UNL     1       8.640  -0.124  -0.082  0.00  0.00    -0.454 OA
ATOM      6  C   UNL     1       7.903  -1.256  -0.081  0.00  0.00    +0.194 A 
ATOM      7  C   UNL     1      11.116   0.504  -0.099  0.00  0.00    +0.081 C 
ATOM      8  C   UNL     1      12.368  -0.283   0.305  0.00  0.00    -0.025 C 
ATOM      9  C   UNL     1      12.469  -1.555  -0.541  0.00  0.00    +0.043 C 
ATOM     10  C   UNL     1      11.364  -2.534  -0.124  0.00  0.00    +0.149 C 
ATOM     11  C   UNL     1      12.277  -0.662   1.785  0.00  0.00    +0.011 C 
ATOM     12  C   UNL     1      13.609   0.581   0.076  0.00  0.00    +0.011 C 
ENDROOT
BRANCH   6  13
ATOM     13  C   UNL     1       6.439  -1.330  -0.067  0.00  0.00    +0.296 C 
ATOM     14  O   UNL     1       5.884  -2.413  -0.067  0.00  0.00    -0.265 OA
ATOM     15  N   UNL     1       5.707  -0.198  -0.054  0.00  0.00    -0.228 N 
ATOM     16  H   UNL     1       6.208   0.781  -0.054  0.00  0.00    +0.173 HD
BRANCH  15  17
ATOM     17  N   UNL     1       4.308  -0.269  -0.041  0.00  0.00    -0.230 N 
ATOM     18  C   UNL     1       3.576   0.863  -0.028  0.00  0.00    +0.263 C 
ATOM     19  O   UNL     1       4.130   1.945  -0.028  0.00  0.00    -0.269 OA
ATOM     20  H   UNL     1       3.807  -1.248  -0.041  0.00  0.00    +0.173 HD
BRANCH  18  21
ATOM     21  C   UNL     1       2.104   0.788  -0.014  0.00  0.00    +0.079 A 
ATOM     22  C   UNL     1       1.276  -0.426  -0.012  0.00  0.00    +0.054 A 
ATOM     23  C   UNL     1       0.002  -0.004   0.002  0.00  0.00    +0.196 A 
ATOM     24  O   UNL     1      -0.016   1.338   0.009  0.00  0.00    -0.467 OA
ATOM     25  C   UNL     1       1.226   1.832   0.000  0.00  0.00    +0.114 A 
ATOM     26  C   UNL     1       1.593   3.293   0.004  0.00  0.00    +0.087 C 
ENDBRANCH  18  21
ENDBRANCH  15  17
ENDBRANCH   6  13
BRANCH  10  27
ATOM     27  O   UNL     1      11.294  -3.609  -1.063  0.00  0.00    -0.387 OA
ATOM     28  H   UNL     1      12.164  -4.266  -1.213  0.00  0.00    +0.210 HD
ENDBRANCH  10  27
TORSDOF 4
