REMARK  Name = ZINC48459217
REMARK  3 active torsions:
REMARK  status: ('A' for Active; 'I' for Inactive)
REMARK    1  A    between atoms: C_6  and  N_7
REMARK    2  A    between atoms: C_11  and  C_12
REMARK    3  A    between atoms: C_18  and  O_21
REMARK                            x       y       z     vdW  Elec       q    Type
REMARK                         _______ _______ _______ _____ _____    ______ ____
ROOT
ATOM      1  C   UNL     1       0.905   1.046  -2.404  0.00  0.00    +0.023 A 
ATOM      2  C   UNL     1       1.842   1.840  -1.804  0.00  0.00    +0.012 A 
ATOM      3  C   UNL     1       2.690   1.303  -0.838  0.00  0.00    +0.012 A 
ATOM      4  C   UNL     1       2.584  -0.050  -0.478  0.00  0.00    +0.049 A 
ATOM      5  C   UNL     1       1.627  -0.847  -1.097  0.00  0.00    +0.049 A 
ATOM      6  C   UNL     1       0.792  -0.298  -2.055  0.00  0.00    +0.027 A 
ATOM      7  N   UNL     1       3.537  -0.297   0.489  0.00  0.00    -0.360 N 
ATOM      8  H   UNL     1       3.684  -1.156   0.914  0.00  0.00    +0.165 HD
ATOM      9  C   UNL     1       4.239   0.831   0.760  0.00  0.00    +0.096 A 
ATOM     10  C   UNL     1       3.780   1.856  -0.012  0.00  0.00    +0.062 A 
ENDROOT
BRANCH  10  11
ATOM     11  C   UNL     1       4.275   3.239  -0.021  0.00  0.00    +0.249 C 
ATOM     12  O   UNL     1       3.491   4.165  -0.111  0.00  0.00    -0.270 OA
ATOM     13  N   UNL     1       5.598   3.483   0.070  0.00  0.00    -0.295 N 
ATOM     14  C   UNL     1       6.099   4.858   0.190  0.00  0.00    +0.108 C 
ATOM     15  C   UNL     1       7.141   5.101  -0.907  0.00  0.00    +0.021 C 
ATOM     16  C   UNL     1       8.227   4.026  -0.820  0.00  0.00    +0.034 C 
ATOM     17  C   UNL     1       7.602   2.647  -1.044  0.00  0.00    +0.132 C 
ATOM     18  C   UNL     1       6.565   2.377   0.057  0.00  0.00    +0.139 C 
BRANCH  17  19
ATOM     19  O   UNL     1       8.621   1.647  -0.993  0.00  0.00    -0.390 OA
ATOM     20  H   UNL     1       8.296   0.746  -1.127  0.00  0.00    +0.210 HD
ENDBRANCH  17  19
ENDBRANCH  10  11
BRANCH   6  21
ATOM     21  N   UNL     1      -0.170  -1.098  -2.678  0.00  0.00    -0.358 N 
ATOM     22  H   UNL     1      -0.757  -0.717  -3.350  0.00  0.00    +0.142 HD
ATOM     23  H   UNL     1      -0.252  -2.034  -2.437  0.00  0.00    +0.142 HD
ENDBRANCH   6  21
TORSDOF 3
