REMARK  Name = ZINC60058911
REMARK  6 active torsions:
REMARK  status: ('A' for Active; 'I' for Inactive)
REMARK    1  A    between atoms: C_1  and  C_2
REMARK    2  A    between atoms: C_4  and  C_7
REMARK    3  A    between atoms: C_7  and  N_8
REMARK    4  A    between atoms: N_11  and  C_12
REMARK    5  A    between atoms: C_12  and  C_14
REMARK    6  A    between atoms: C_12  and  C_15
REMARK                            x       y       z     vdW  Elec       q    Type
REMARK                         _______ _______ _______ _____ _____    ______ ____
ROOT
ATOM      1  N   UNL     1      -1.691  -3.832  -1.387  0.00  0.00    -0.294 N 
ATOM      2  C   UNL     1      -2.442  -4.923  -1.635  0.00  0.00    +0.300 C 
ATOM      3  O   UNL     1      -2.961  -5.526  -0.715  0.00  0.00    -0.253 OA
ATOM      4  N   UNL     1      -2.619  -5.346  -2.902  0.00  0.00    -0.290 N 
ATOM      5  H   UNL     1      -1.278  -3.351  -2.121  0.00  0.00    +0.151 HD
ATOM      6  H   UNL     1      -2.205  -4.865  -3.636  0.00  0.00    +0.151 HD
ENDROOT
BRANCH   4   7
ATOM      7  C   UNL     1      -3.435  -6.533  -3.171  0.00  0.00    +0.137 C 
ATOM      8  C   UNL     1      -2.573  -7.788  -3.027  0.00  0.00    +0.036 C 
BRANCH   7   9
ATOM      9  C   UNL     1      -3.983  -6.458  -4.573  0.00  0.00    +0.126 A 
ATOM     10  C   UNL     1      -5.224  -6.814  -4.932  0.00  0.00    +0.055 A 
ATOM     11  C   UNL     1      -5.317  -6.575  -6.377  0.00  0.00    +0.020 A 
ATOM     12  C   UNL     1      -6.321  -6.740  -7.330  0.00  0.00    +0.011 A 
ATOM     13  C   UNL     1      -6.078  -6.413  -8.635  0.00  0.00    +0.001 A 
ATOM     14  C   UNL     1      -4.838  -5.919  -9.016  0.00  0.00    +0.004 A 
ATOM     15  C   UNL     1      -3.833  -5.750  -8.088  0.00  0.00    +0.047 A 
ATOM     16  C   UNL     1      -4.060  -6.075  -6.756  0.00  0.00    +0.135 A 
ATOM     17  O   UNL     1      -3.300  -6.018  -5.644  0.00  0.00    -0.458 OA
ENDBRANCH   7   9
ENDBRANCH   4   7
BRANCH   1  18
ATOM     18  C   UNL     1      -1.500  -3.372  -0.010  0.00  0.00    +0.164 C 
BRANCH  18  22
ATOM     19  C   UNL     1      -0.018   1.503   0.010  0.00  0.00    +0.089 C 
ATOM     20  C   UNL     1       0.002  -0.004   0.002  0.00  0.00    +0.135 A 
ATOM     21  C   UNL     1      -1.077  -0.810   0.003  0.00  0.00    +0.072 A 
ATOM     22  C   UNL     1      -0.627  -2.143  -0.007  0.00  0.00    +0.101 A 
ATOM     23  N   UNL     1       0.676  -2.130  -0.013  0.00  0.00    -0.081 NA
ATOM     24  O   UNL     1       1.098  -0.778  -0.013  0.00  0.00    -0.360 OA
ENDBRANCH  18  22
ENDBRANCH   1  18
TORSDOF 4
