REMARK  Name = ZINC64046741
REMARK  7 active torsions:
REMARK  status: ('A' for Active; 'I' for Inactive)
REMARK    1  A    between atoms: C_7  and  C_10
REMARK    2  A    between atoms: C_10  and  C_11
REMARK    3  A    between atoms: C_11  and  C_13
REMARK    4  A    between atoms: C_11  and  N_23
REMARK    5  A    between atoms: N_15  and  C_16
REMARK    6  A    between atoms: C_21  and  O_22
REMARK    7  A    between atoms: C_24  and  C_26
REMARK                            x       y       z     vdW  Elec       q    Type
REMARK                         _______ _______ _______ _____ _____    ______ ____
ROOT
ATOM      1  C   UNL     1       0.458  -3.655  -1.442  0.00  0.00    +0.163 C 
ENDROOT
BRANCH   1   2
ATOM      2  C   UNL     1      -0.578  -4.750  -1.464  0.00  0.00    +0.238 C 
ATOM      3  O   UNL     1      -0.232  -5.910  -1.544  0.00  0.00    -0.273 OA
ATOM      4  N   UNL     1      -1.887  -4.441  -1.394  0.00  0.00    -0.281 N 
ATOM      5  H   UNL     1      -2.162  -3.520  -1.265  0.00  0.00    +0.155 HD
BRANCH   4   6
ATOM      6  C   UNL     1      -2.853  -5.450  -1.508  0.00  0.00    +0.075 A 
ATOM      7  C   UNL     1      -2.602  -6.714  -0.995  0.00  0.00    +0.027 A 
ATOM      8  C   UNL     1      -3.556  -7.708  -1.108  0.00  0.00    +0.002 A 
ATOM      9  C   UNL     1      -4.761  -7.446  -1.733  0.00  0.00    +0.004 A 
ATOM     10  C   UNL     1      -5.018  -6.189  -2.248  0.00  0.00    +0.047 A 
ATOM     11  C   UNL     1      -4.069  -5.185  -2.133  0.00  0.00    +0.138 A 
BRANCH  11  12
ATOM     12  O   UNL     1      -4.323  -3.947  -2.634  0.00  0.00    -0.505 OA
ATOM     13  H   UNL     1      -4.051  -3.831  -3.554  0.00  0.00    +0.292 HD
ENDBRANCH  11  12
ENDBRANCH   4   6
ENDBRANCH   1   2
BRANCH   1  14
ATOM     14  N   UNL     1       1.716  -4.162  -1.995  0.00  0.00    -0.300 N 
ATOM     15  C   UNL     1       2.336  -5.208  -1.412  0.00  0.00    +0.246 C 
ATOM     16  O   UNL     1       1.850  -5.730  -0.428  0.00  0.00    -0.270 OA
ATOM     17  H   UNL     1       2.104  -3.745  -2.780  0.00  0.00    +0.150 HD
BRANCH  15  18
ATOM     18  C   UNL     1       3.605  -5.719  -1.969  0.00  0.00    +0.055 A 
ATOM     19  C   UNL     1       4.169  -5.117  -3.096  0.00  0.00    +0.014 A 
ATOM     20  C   UNL     1       5.354  -5.599  -3.611  0.00  0.00    +0.001 A 
ATOM     21  C   UNL     1       5.985  -6.676  -3.014  0.00  0.00    +0.001 A 
ATOM     22  C   UNL     1       5.434  -7.278  -1.898  0.00  0.00    +0.021 A 
ATOM     23  C   UNL     1       4.250  -6.802  -1.368  0.00  0.00    +0.053 A 
ATOM     24 CL   UNL     1       3.562  -7.553   0.038  0.00  0.00    -0.083 Cl
ENDBRANCH  15  18
ENDBRANCH   1  14
BRANCH   1  25
ATOM     25  C   UNL     1       0.682  -3.195  -0.001  0.00  0.00    +0.065 C 
BRANCH  25  32
ATOM     26  C   UNL     1      -0.020   1.339   0.051  0.00  0.00    +0.001 A 
ATOM     27  C   UNL     1       1.163   2.091   0.055  0.00  0.00    +0.002 A 
ATOM     28  C   UNL     1       2.388   1.524   0.046  0.00  0.00    +0.026 A 
ATOM     29  C   UNL     1       2.524   0.108   0.030  0.00  0.00    +0.043 A 
ATOM     30  N   UNL     1       3.581  -0.667   0.018  0.00  0.00    -0.380 N 
ATOM     31  C   UNL     1       3.136  -2.065   0.005  0.00  0.00    +0.144 C 
ATOM     32  C   UNL     1       1.625  -2.019   0.010  0.00  0.00    -0.039 C 
ATOM     33  C   UNL     1       1.290  -0.709   0.025  0.00  0.00    -0.001 A 
ATOM     34  C   UNL     1      -0.003  -0.013   0.036  0.00  0.00    +0.010 A 
ATOM     35  H   UNL     1       4.504  -0.366   0.018  0.00  0.00    +0.160 HD
ENDBRANCH  25  32
ENDBRANCH   1  25
TORSDOF 7
