REMARK  Name = ZINC38599807
REMARK  8 active torsions:
REMARK  status: ('A' for Active; 'I' for Inactive)
REMARK    1  A    between atoms: C_1  and  C_2
REMARK    2  A    between atoms: C_1  and  O_18
REMARK    3  A    between atoms: C_4  and  O_17
REMARK    4  A    between atoms: C_6  and  O_16
REMARK    5  A    between atoms: C_8  and  O_15
REMARK    6  A    between atoms: C_10  and  C_12
REMARK    7  A    between atoms: C_10  and  O_14
REMARK    8  A    between atoms: C_12  and  O_13
REMARK                            x       y       z     vdW  Elec       q    Type
REMARK                         _______ _______ _______ _____ _____    ______ ____
ROOT
ATOM      1  C   UNL     1       0.002  -0.004   0.002  0.00  0.00    +0.178 C 
ATOM      2  C   UNL     1      -1.427  -0.535   0.138  0.00  0.00    +0.177 C 
ATOM      3  C   UNL     1      -1.405  -2.065   0.068  0.00  0.00    +0.179 C 
ATOM      4  C   UNL     1      -0.747  -2.495  -1.247  0.00  0.00    +0.207 C 
ATOM      5  C   UNL     1       0.656  -1.889  -1.329  0.00  0.00    +0.220 C 
ATOM      6  O   UNL     1       0.566  -0.466  -1.227  0.00  0.00    -0.336 OA
ENDROOT
BRANCH   5   7
ATOM      7  O   UNL     1       1.254  -2.240  -2.579  0.00  0.00    -0.361 OA
ATOM      8  H   UNL     1       2.147  -1.889  -2.700  0.00  0.00    +0.213 HD
ENDBRANCH   5   7
BRANCH   4   9
ATOM      9  O   UNL     1      -1.534  -2.034  -2.347  0.00  0.00    -0.384 OA
ATOM     10  H   UNL     1      -2.438  -2.376  -2.355  0.00  0.00    +0.210 HD
ENDBRANCH   4   9
BRANCH   3  11
ATOM     11  O   UNL     1      -2.742  -2.566   0.123  0.00  0.00    -0.386 OA
ATOM     12  H   UNL     1      -3.220  -2.325   0.928  0.00  0.00    +0.210 HD
ENDBRANCH   3  11
BRANCH   2  13
ATOM     13  O   UNL     1      -2.231  -0.019  -0.925  0.00  0.00    -0.386 OA
ATOM     14  H   UNL     1      -2.287   0.946  -0.944  0.00  0.00    +0.210 HD
ENDBRANCH   2  13
BRANCH   1  15
ATOM     15  C   UNL     1      -0.019   1.526   0.010  0.00  0.00    +0.190 C 
BRANCH  15  16
ATOM     16  O   UNL     1       1.322   2.020   0.000  0.00  0.00    -0.392 OA
ATOM     17  H   UNL     1       1.385   2.985   0.005  0.00  0.00    +0.210 HD
ENDBRANCH  15  16
ENDBRANCH   1  15
BRANCH   5  18
ATOM     18  C   UNL     1       1.514  -2.429  -0.183  0.00  0.00    +0.223 C 
BRANCH  18  19
ATOM     19  O   UNL     1       2.823  -1.863  -0.260  0.00  0.00    -0.390 OA
ATOM     20  H   UNL     1       3.423  -2.161   0.437  0.00  0.00    +0.210 HD
ENDBRANCH  18  19
ENDBRANCH   5  18
TORSDOF 8
