REMARK  Name = ZINC22134164
REMARK  9 active torsions:
REMARK  status: ('A' for Active; 'I' for Inactive)
REMARK    1  A    between atoms: C_1  and  C_2
REMARK    2  A    between atoms: C_2  and  C_22
REMARK    3  A    between atoms: N_3  and  O_4
REMARK    4  A    between atoms: O_4  and  C_5
REMARK    5  A    between atoms: C_7  and  C_20
REMARK    6  A    between atoms: C_7  and  C_21
REMARK    7  A    between atoms: C_8  and  C_15
REMARK    8  A    between atoms: C_8  and  C_17
REMARK    9  A    between atoms: C_9  and  C_13
REMARK                            x       y       z     vdW  Elec       q    Type
REMARK                         _______ _______ _______ _____ _____    ______ ____
ROOT
ATOM      1  C   UNL     1      -0.545   3.532  -0.684  0.00  0.00    +0.299 C 
ATOM      2  C   UNL     1      -0.606   2.044  -1.055  0.00  0.00    +0.053 C 
ATOM      3  C   UNL     1       0.020   1.231   0.080  0.00  0.00    +0.179 C 
ATOM      4  C   UNL     1      -0.566   1.649   1.399  0.00  0.00    +0.087 C 
ATOM      5  C   UNL     1      -1.187   2.827   1.571  0.00  0.00    +0.089 C 
ATOM      6  N   UNL     1      -1.333   3.721   0.541  0.00  0.00    -0.301 N 
ATOM      7 BR   UNL     1      -1.876   3.266   3.277  0.00  0.00    -0.033 Br
ATOM      8  C   UNL     1       0.175   1.808  -2.349  0.00  0.00    +0.019 C 
ATOM      9  C   UNL     1      -2.064   1.620  -1.246  0.00  0.00    +0.019 C 
ATOM     10  H   UNL     1      -2.029   4.569   0.623  0.00  0.00    +0.150 HD
ENDROOT
BRANCH   3  11
ATOM     11  C   UNL     1       1.509   1.465   0.099  0.00  0.00    +0.237 C 
ATOM     12  O   UNL     1       2.015   2.075   1.017  0.00  0.00    -0.274 OA
ATOM     13  N   UNL     1       2.278   0.997  -0.904  0.00  0.00    -0.328 N 
ATOM     14  H   UNL     1       3.364   1.168  -0.890  0.00  0.00    +0.145 HD
ATOM     15  H   UNL     1       1.818   0.444  -1.737  0.00  0.00    +0.145 HD
ENDBRANCH   3  11
BRANCH   4  16
ATOM     16  C   UNL     1      -0.459   0.758   2.515  0.00  0.00    +0.099 C 
ATOM     17  N   UNL     1      -0.374   0.051   3.400  0.00  0.00    -0.191 NA
ENDBRANCH   4  16
BRANCH   3  18
ATOM     18  C   UNL     1      -0.246  -0.200  -0.140  0.00  0.00    +0.085 C 
ATOM     19  N   UNL     1      -0.451  -1.304  -0.310  0.00  0.00    -0.195 NA
ENDBRANCH   3  18
BRANCH   1  20
ATOM     20  O   UNL     1       0.810   3.921  -0.453  0.00  0.00    -0.371 OA
BRANCH  20  23
ATOM     21  C   UNL     1       3.358   4.860  -0.068  0.00  0.00    +0.064 C 
ATOM     22  C   UNL     1       2.251   5.756  -0.559  0.00  0.00    +0.052 C 
ATOM     23  N   UNL     1       1.073   5.285  -0.727  0.00  0.00    -0.092 NA
ATOM     24  C   UNL     1       2.530   7.208  -0.851  0.00  0.00    +0.064 C 
ENDBRANCH  20  23
ENDBRANCH   1  20
TORSDOF 5
