REMARK  Name = ZINC48456881
REMARK  6 active torsions:
REMARK  status: ('A' for Active; 'I' for Inactive)
REMARK    1  A    between atoms: C_1  and  C_2
REMARK    2  A    between atoms: C_2  and  N_3
REMARK    3  A    between atoms: N_3  and  C_4
REMARK    4  A    between atoms: C_11  and  C_13
REMARK    5  A    between atoms: C_13  and  S_14
REMARK    6  A    between atoms: S_14  and  C_15
REMARK                            x       y       z     vdW  Elec       q    Type
REMARK                         _______ _______ _______ _____ _____    ______ ____
ROOT
ATOM      1  N   UNL     1       0.688  -0.476  -1.203  0.00  0.00    -0.271 N 
ATOM      2  C   UNL     1      -0.067  -0.938  -2.220  0.00  0.00    +0.230 C 
ATOM      3  O   UNL     1       0.437  -1.613  -3.092  0.00  0.00    -0.274 OA
ENDROOT
BRANCH   1   4
ATOM      4  C   UNL     1       2.071  -0.691  -1.205  0.00  0.00    +0.036 A 
ATOM      5  C   UNL     1       2.872  -0.056  -2.146  0.00  0.00    +0.024 A 
ATOM      6  C   UNL     1       4.236  -0.269  -2.145  0.00  0.00    +0.017 A 
ATOM      7  C   UNL     1       4.806  -1.114  -1.209  0.00  0.00    +0.018 A 
ATOM      8  C   UNL     1       4.010  -1.748  -0.271  0.00  0.00    +0.017 A 
ATOM      9  C   UNL     1       2.646  -1.534  -0.264  0.00  0.00    +0.024 A 
ATOM     10 BR   UNL     1       6.674  -1.403  -1.212  0.00  0.00    -0.050 Br
ENDBRANCH   1   4
BRANCH   1  12
ATOM     11  C   UNL     1       0.034   1.745  -0.416  0.00  0.00    +0.025 C 
ATOM     12  C   UNL     1       0.061   0.249  -0.096  0.00  0.00    +0.110 C 
ENDBRANCH   1  12
BRANCH   2  13
ATOM     13  C   UNL     1      -1.538  -0.614  -2.274  0.00  0.00    +0.173 C 
BRANCH  13  14
ATOM     14  S   UNL     1      -2.271  -1.372  -3.750  0.00  0.00    -0.075 S 
BRANCH  14  15
ATOM     15  C   UNL     1      -3.969  -0.908  -3.669  0.00  0.00    +0.210 A 
ATOM     16  N   UNL     1      -4.909  -1.244  -4.559  0.00  0.00    -0.188 NA
ATOM     17  H   UNL     1      -6.548   0.434  -2.541  0.00  0.00    +0.192 HD
ATOM     18  C   UNL     1      -6.066  -0.732  -4.195  0.00  0.00    +0.209 A 
ATOM     19  N   UNL     1      -5.877  -0.050  -3.046  0.00  0.00    -0.246 N 
ATOM     20  N   UNL     1      -4.516  -0.182  -2.724  0.00  0.00    -0.144 NA
ATOM     21  N   UNL     1      -7.264  -0.869  -4.871  0.00  0.00    -0.328 N 
ATOM     22  H   UNL     1      -7.301  -1.381  -5.694  0.00  0.00    +0.145 HD
ATOM     23  H   UNL     1      -8.068  -0.452  -4.522  0.00  0.00    +0.145 HD
ENDBRANCH  14  15
ENDBRANCH  13  14
ENDBRANCH   2  13
TORSDOF 5
