REMARK  Name = ZINC55174027
REMARK  5 active torsions:
REMARK  status: ('A' for Active; 'I' for Inactive)
REMARK    1  A    between atoms: C_1  and  C_2
REMARK    2  A    between atoms: C_3  and  C_8
REMARK    3  A    between atoms: N_10  and  C_11
REMARK    4  A    between atoms: N_10  and  C_12
REMARK    5  A    between atoms: C_12  and  C_13
REMARK                            x       y       z     vdW  Elec       q    Type
REMARK                         _______ _______ _______ _____ _____    ______ ____
ROOT
ATOM      1  C   UNL     1      -0.233  -0.269  -2.606  0.00  0.00    +0.255 C 
ATOM      2  O   UNL     1      -0.288   0.923  -2.848  0.00  0.00    -0.269 OA
ATOM      3  N   UNL     1       0.101  -1.139  -3.579  0.00  0.00    -0.293 N 
ATOM      4  C   UNL     1       0.123  -2.577  -3.299  0.00  0.00    +0.133 C 
ENDROOT
BRANCH   1   7
ATOM      5  C   UNL     1      -0.701   1.461  -0.052  0.00  0.00    +0.067 C 
ATOM      6  C   UNL     1      -0.748  -0.045  -0.087  0.00  0.00    +0.060 A 
ATOM      7  C   UNL     1      -0.530  -0.756  -1.259  0.00  0.00    +0.098 A 
ATOM      8  S   UNL     1      -0.713  -2.431  -0.666  0.00  0.00    -0.048 S 
ATOM      9  C   UNL     1      -1.035  -2.074   0.946  0.00  0.00    +0.156 A 
ATOM     10  N   UNL     1      -0.991  -0.754   0.986  0.00  0.00    -0.230 NA
ATOM     11  N   UNL     1      -1.281  -2.951   1.981  0.00  0.00    -0.337 N 
ATOM     12  H   UNL     1      -1.281  -3.907   1.817  0.00  0.00    +0.144 HD
ATOM     13  H   UNL     1      -1.455  -2.612   2.873  0.00  0.00    +0.144 HD
ENDBRANCH   1   7
BRANCH   3  14
ATOM     14  C   UNL     1       0.441  -0.648  -4.916  0.00  0.00    +0.182 C 
BRANCH  14  15
ATOM     15  C   UNL     1       1.923  -0.384  -4.992  0.00  0.00    +0.124 A 
ATOM     16  C   UNL     1       2.862  -1.269  -5.371  0.00  0.00    +0.047 A 
ATOM     17  C   UNL     1       4.107  -0.604  -5.295  0.00  0.00    +0.057 A 
ATOM     18  C   UNL     1       3.855   0.649  -4.874  0.00  0.00    +0.170 A 
ATOM     19  O   UNL     1       2.530   0.779  -4.697  0.00  0.00    -0.452 OA
ATOM     20 BR   UNL     1       5.146   2.001  -4.587  0.00  0.00    -0.008 Br
ENDBRANCH  14  15
ENDBRANCH   3  14
TORSDOF 3
