REMARK  Name = ZINC48315883
REMARK  4 active torsions:
REMARK  status: ('A' for Active; 'I' for Inactive)
REMARK    1  A    between atoms: C_1  and  C_2
REMARK    2  A    between atoms: C_2  and  C_4
REMARK    3  A    between atoms: C_2  and  N_10
REMARK    4  A    between atoms: C_11  and  C_13
REMARK                            x       y       z     vdW  Elec       q    Type
REMARK                         _______ _______ _______ _____ _____    ______ ____
ROOT
ATOM      1  N   UNL     1       0.711  -0.489   1.189  0.00  0.00    -0.303 N 
ATOM      2  C   UNL     1       2.054  -0.600   1.174  0.00  0.00    +0.247 C 
ATOM      3  O   UNL     1       2.678  -0.297   0.175  0.00  0.00    -0.270 OA
ATOM      4  H   UNL     1       0.213  -0.731   1.986  0.00  0.00    +0.150 HD
ENDROOT
BRANCH   2   5
ATOM      5  C   UNL     1       2.767  -1.088   2.368  0.00  0.00    +0.067 A 
ATOM      6  C   UNL     1       2.057  -1.442   3.513  0.00  0.00    +0.053 A 
ATOM      7  C   UNL     1       2.726  -1.901   4.635  0.00  0.00    +0.126 A 
ATOM      8  C   UNL     1       4.104  -2.014   4.637  0.00  0.00    +0.066 A 
ATOM      9  C   UNL     1       4.833  -1.668   3.508  0.00  0.00    +0.069 A 
ATOM     10  C   UNL     1       4.172  -1.206   2.358  0.00  0.00    +0.101 A 
ATOM     11  N   UNL     1       5.118  -0.956   1.431  0.00  0.00    -0.235 NA
ATOM     12  C   UNL     1       6.295  -1.231   1.917  0.00  0.00    +0.197 A 
ATOM     13  N   UNL     1       6.180  -1.667   3.199  0.00  0.00    -0.344 N 
ATOM     14  H   UNL     1       6.905  -1.936   3.784  0.00  0.00    +0.167 HD
ATOM     15  F   UNL     1       2.025  -2.241   5.739  0.00  0.00    -0.205 F 
ENDBRANCH   2   5
BRANCH   1  17
ATOM     16  C   UNL     1      -0.019   1.526   0.010  0.00  0.00    +0.034 C 
ATOM     17  C   UNL     1       0.002  -0.004   0.002  0.00  0.00    +0.119 C 
BRANCH  17  18
ATOM     18  C   UNL     1      -1.412  -0.526   0.013  0.00  0.00    +0.061 A 
ATOM     19  C   UNL     1      -2.098  -0.663  -1.179  0.00  0.00    +0.025 A 
ATOM     20  C   UNL     1      -3.398  -1.143  -1.158  0.00  0.00    +0.003 A 
ATOM     21  C   UNL     1      -3.962  -1.470   0.066  0.00  0.00    +0.020 A 
ATOM     22  C   UNL     1      -3.214  -1.306   1.216  0.00  0.00    +0.111 A 
ATOM     23  N   UNL     1      -1.978  -0.851   1.158  0.00  0.00    -0.258 NA
ENDBRANCH  17  18
ENDBRANCH   1  17
TORSDOF 3
