REMARK  Name = ZINC51147937
REMARK  4 active torsions:
REMARK  status: ('A' for Active; 'I' for Inactive)
REMARK    1  A    between atoms: C_3  and  N_14
REMARK    2  A    between atoms: C_6  and  C_7
REMARK    3  A    between atoms: C_7  and  N_8
REMARK    4  A    between atoms: N_14  and  N_15
REMARK                            x       y       z     vdW  Elec       q    Type
REMARK                         _______ _______ _______ _____ _____    ______ ____
ROOT
ATOM      1  C   UNL     1      -0.017   1.384   0.010  0.00  0.00    +0.010 A 
ATOM      2  C   UNL     1       1.190   2.061   0.002  0.00  0.00    +0.045 A 
ATOM      3  C   UNL     1       2.374   1.332  -0.013  0.00  0.00    +0.132 A 
ATOM      4  N   UNL     1       2.350   0.008  -0.020  0.00  0.00    -0.239 NA
ATOM      5  C   UNL     1       1.215  -0.664  -0.013  0.00  0.00    +0.118 A 
ATOM      6  C   UNL     1       0.002  -0.004   0.002  0.00  0.00    -0.008 A 
ENDROOT
BRANCH   3   7
ATOM      7  N   UNL     1       3.594   1.999  -0.022  0.00  0.00    -0.268 N 
ATOM      8  H   UNL     1       3.616   2.969  -0.017  0.00  0.00    +0.167 HD
BRANCH   7   9
ATOM      9  N   UNL     1       4.761   1.289  -0.037  0.00  0.00    -0.255 NA
ATOM     10  H   UNL     1       5.559   1.905  -0.042  0.00  0.00    +0.140 HD
ATOM     11  H   UNL     1       4.804   0.647   0.741  0.00  0.00    +0.140 HD
ENDBRANCH   7   9
ENDBRANCH   3   7
BRANCH   6  12
ATOM     12  C   UNL     1      -1.288  -0.783   0.011  0.00  0.00    +0.180 C 
BRANCH  12  13
ATOM     13  N   UNL     1      -1.720  -1.028  -1.368  0.00  0.00    -0.266 N 
ATOM     14  C   UNL     1      -2.000  -2.232  -1.910  0.00  0.00    +0.124 A 
ATOM     15  C   UNL     1      -2.362  -2.030  -3.199  0.00  0.00    +0.055 A 
ATOM     16  C   UNL     1      -2.300  -0.655  -3.452  0.00  0.00    +0.149 A 
ATOM     17  N   UNL     1      -1.920  -0.053  -2.354  0.00  0.00    -0.178 NA
ATOM     18 BR   UNL     1      -2.861  -3.368  -4.438  0.00  0.00    -0.047 Br
ENDBRANCH  12  13
ENDBRANCH   6  12
TORSDOF 4
