REMARK  Name = ZINC40571550
REMARK  5 active torsions:
REMARK  status: ('A' for Active; 'I' for Inactive)
REMARK    1  A    between atoms: C_1  and  C_2
REMARK    2  A    between atoms: C_2  and  O_3
REMARK    3  A    between atoms: O_3  and  C_4
REMARK    4  A    between atoms: C_4  and  C_6
REMARK    5  A    between atoms: C_10  and  N_13
REMARK                            x       y       z     vdW  Elec       q    Type
REMARK                         _______ _______ _______ _____ _____    ______ ____
ROOT
ATOM      1  C   UNL     1      -2.853  -2.419   0.016  0.00  0.00    +0.093 A 
ATOM      2  C   UNL     1      -3.507  -2.695  -1.188  0.00  0.00    +0.057 A 
ATOM      3  C   UNL     1      -4.775  -3.240  -1.176  0.00  0.00    +0.038 A 
ATOM      4  C   UNL     1      -5.403  -3.515   0.026  0.00  0.00    +0.041 A 
ATOM      5  C   UNL     1      -4.761  -3.245   1.230  0.00  0.00    +0.054 A 
ATOM      6  C   UNL     1      -3.485  -2.702   1.229  0.00  0.00    +0.055 A 
ATOM      7 BR   UNL     1      -2.607  -2.341   2.865  0.00  0.00    -0.047 Br
ATOM      8 BR   UNL     1      -7.141  -4.261   0.032  0.00  0.00    -0.048 Br
ATOM      9 CL   UNL     1      -2.725  -2.351  -2.700  0.00  0.00    -0.083 Cl
ENDROOT
BRANCH   5  10
ATOM     10  N   UNL     1      -5.402  -3.525   2.442  0.00  0.00    -0.356 N 
ATOM     11  H   UNL     1      -6.293  -3.907   2.442  0.00  0.00    +0.142 HD
ATOM     12  H   UNL     1      -4.954  -3.336   3.281  0.00  0.00    +0.142 HD
ENDBRANCH   5  10
BRANCH   1  13
ATOM     13  C   UNL     1      -1.497  -1.837   0.006  0.00  0.00    +0.342 C 
ATOM     14  O   UNL     1      -0.524  -2.564  -0.007  0.00  0.00    -0.245 OA
BRANCH  13  15
ATOM     15  O   UNL     1      -1.339  -0.499   0.012  0.00  0.00    -0.461 OA
BRANCH  15  17
ATOM     16  C   UNL     1      -0.019   1.526   0.010  0.00  0.00    +0.048 C 
ATOM     17  C   UNL     1       0.002  -0.004   0.002  0.00  0.00    +0.229 C 
ENDBRANCH  15  17
ENDBRANCH  13  15
ENDBRANCH   1  13
TORSDOF 4
