REMARK  Name = ZINC35680907
REMARK  8 active torsions:
REMARK  status: ('A' for Active; 'I' for Inactive)
REMARK    1  A    between atoms: C_1  and  C_2
REMARK    2  A    between atoms: C_2  and  C_3
REMARK    3  A    between atoms: C_2  and  C_4
REMARK    4  A    between atoms: C_4  and  C_6
REMARK    5  A    between atoms: C_4  and  N_19
REMARK    6  A    between atoms: N_11  and  C_14
REMARK    7  A    between atoms: C_14  and  C_15
REMARK    8  A    between atoms: C_15  and  C_16
REMARK                            x       y       z     vdW  Elec       q    Type
REMARK                         _______ _______ _______ _____ _____    ______ ____
ROOT
ATOM      1  C   UNL     1      -2.204  -0.004  -1.034  0.00  0.00    +0.236 C 
ATOM      2  O   UNL     1      -2.826  -0.790  -1.717  0.00  0.00    -0.274 OA
ATOM      3  N   UNL     1      -2.259   1.315  -1.305  0.00  0.00    -0.303 N 
ATOM      4  C   UNL     1      -1.598   2.295  -0.429  0.00  0.00    +0.089 C 
ATOM      5  C   UNL     1      -0.738   3.219  -1.298  0.00  0.00    -0.060 C 
ATOM      6  N   UNL     1      -1.571   3.813  -2.352  0.00  0.00    +0.382 N 
ATOM      7  C   UNL     1      -2.058   2.763  -3.255  0.00  0.00    -0.060 C 
ATOM      8  C   UNL     1      -2.978   1.815  -2.486  0.00  0.00    +0.089 C 
ATOM      9  H   UNL     1      -2.357   4.285  -1.931  0.00  0.00    -0.082 HD
ENDROOT
BRANCH   1  10
ATOM     10  C   UNL     1      -1.368  -0.503   0.116  0.00  0.00    +0.163 C 
BRANCH  10  11
ATOM     11  N   UNL     1      -2.021  -1.664   0.727  0.00  0.00    -0.288 N 
ATOM     12  C   UNL     1      -1.777  -1.974   2.015  0.00  0.00    +0.298 C 
ATOM     13  O   UNL     1      -1.015  -1.291   2.671  0.00  0.00    -0.253 OA
ATOM     14  N   UNL     1      -2.378  -3.042   2.577  0.00  0.00    -0.313 N 
ATOM     15  H   UNL     1      -2.629  -2.209   0.203  0.00  0.00    +0.151 HD
ATOM     16  H   UNL     1      -2.986  -3.587   2.054  0.00  0.00    +0.146 HD
ATOM     17  H   UNL     1      -2.202  -3.265   3.504  0.00  0.00    +0.146 HD
ENDBRANCH  10  11
BRANCH  10  19
ATOM     18  C   UNL     1       0.657   0.277  -1.122  0.00  0.00    +0.009 C 
ATOM     19  C   UNL     1       0.016  -0.908  -0.396  0.00  0.00    +0.012 C 
ATOM     20  C   UNL     1       0.896  -1.320   0.785  0.00  0.00    +0.009 C 
ENDBRANCH  10  19
ENDBRANCH   1  10
BRANCH   6  21
ATOM     21  C   UNL     1      -0.773   4.782  -3.115  0.00  0.00    -0.067 C 
BRANCH  21  22
ATOM     22  C   UNL     1      -1.670   5.492  -4.132  0.00  0.00    +0.106 C 
BRANCH  22  23
ATOM     23  C   UNL     1      -0.852   6.486  -4.915  0.00  0.00    +0.354 C 
ATOM     24  O   UNL     1       0.338   6.615  -4.682  0.00  0.00    -0.246 OA
ATOM     25  O   UNL     1      -1.380   7.161  -5.782  0.00  0.00    -0.246 OA
ENDBRANCH  22  23
ENDBRANCH  21  22
ENDBRANCH   6  21
TORSDOF 6
