REMARK  Name = ZINC40538346
REMARK  4 active torsions:
REMARK  status: ('A' for Active; 'I' for Inactive)
REMARK    1  A    between atoms: C_1  and  C_2
REMARK    2  A    between atoms: C_4  and  S_10
REMARK    3  A    between atoms: C_7  and  C_8
REMARK    4  A    between atoms: S_10  and  N_13
REMARK                            x       y       z     vdW  Elec       q    Type
REMARK                         _______ _______ _______ _____ _____    ______ ____
ROOT
ATOM      1  C   UNL     1      -0.018   1.503   0.010  0.00  0.00    +0.044 C 
ATOM      2  C   UNL     1       0.002  -0.004   0.002  0.00  0.00    -0.046 A 
ATOM      3  C   UNL     1       0.006  -0.689  -1.199  0.00  0.00    +0.033 A 
ATOM      4  C   UNL     1       0.025  -2.070  -1.207  0.00  0.00    +0.119 A 
ATOM      5  C   UNL     1       0.041  -2.769  -0.013  0.00  0.00    +0.044 A 
ATOM      6  C   UNL     1       0.037  -2.084   1.188  0.00  0.00    +0.020 A 
ATOM      7  C   UNL     1       0.023  -0.701   1.195  0.00  0.00    -0.046 A 
ATOM      8  C   UNL     1       0.025   0.045   2.504  0.00  0.00    +0.044 C 
ATOM      9 BR   UNL     1       0.066  -4.660  -0.024  0.00  0.00    -0.048 Br
ENDROOT
BRANCH   4  10
ATOM     10  S   UNL     1       0.029  -2.943  -2.738  0.00  0.00    +0.057 S 
ATOM     11  O   UNL     1      -0.982  -3.936  -2.642  0.00  0.00    -0.153 OA
ATOM     12  O   UNL     1       0.037  -1.960  -3.765  0.00  0.00    -0.153 OA
BRANCH  10  13
ATOM     13  N   UNL     1       1.474  -3.746  -2.840  0.00  0.00    -0.203 NA
ATOM     14  H   UNL     1       2.122  -3.672  -2.122  0.00  0.00    +0.144 HD
ATOM     15  H   UNL     1       1.672  -4.290  -3.618  0.00  0.00    +0.144 HD
ENDBRANCH  10  13
ENDBRANCH   4  10
TORSDOF 2
