REMARK  Name = ZINC37062982
REMARK  5 active torsions:
REMARK  status: ('A' for Active; 'I' for Inactive)
REMARK    1  A    between atoms: C_1  and  C_2
REMARK    2  A    between atoms: C_8  and  N_10
REMARK    3  A    between atoms: N_10  and  S_11
REMARK    4  A    between atoms: S_11  and  C_14
REMARK    5  A    between atoms: C_15  and  N_22
REMARK                            x       y       z     vdW  Elec       q    Type
REMARK                         _______ _______ _______ _____ _____    ______ ____
ROOT
ATOM      1  S   UNL     1       1.406   0.488   4.673  0.00  0.00    +0.061 S 
ATOM      2  O   UNL     1       0.822   1.062   5.834  0.00  0.00    -0.153 OA
ATOM      3  O   UNL     1       2.384  -0.541   4.742  0.00  0.00    -0.153 OA
ENDROOT
BRANCH   1   4
ATOM      4  C   UNL     1       2.131   1.813   3.766  0.00  0.00    +0.140 A 
ATOM      5  C   UNL     1       3.232   1.577   2.951  0.00  0.00    +0.053 A 
ATOM      6  C   UNL     1       3.800   2.624   2.237  0.00  0.00    +0.040 A 
ATOM      7  C   UNL     1       3.271   3.896   2.339  0.00  0.00    +0.021 A 
ATOM      8  C   UNL     1       2.176   4.128   3.151  0.00  0.00    +0.032 A 
ATOM      9  C   UNL     1       1.603   3.086   3.860  0.00  0.00    +0.047 A 
ATOM     10 BR   UNL     1       0.101   3.406   4.963  0.00  0.00    -0.048 Br
ATOM     11 BR   UNL     1       4.045   5.322   1.367  0.00  0.00    -0.050 Br
BRANCH   5  12
ATOM     12  N   UNL     1       3.765   0.290   2.850  0.00  0.00    -0.356 N 
ATOM     13  H   UNL     1       3.200  -0.482   3.009  0.00  0.00    +0.142 HD
ATOM     14  H   UNL     1       4.700   0.169   2.621  0.00  0.00    +0.142 HD
ENDBRANCH   5  12
ENDBRANCH   1   4
BRANCH   1  15
ATOM     15  N   UNL     1       0.159  -0.106   3.759  0.00  0.00    -0.187 NA
ATOM     16  H   UNL     1      -0.754  -0.030   4.078  0.00  0.00    +0.148 HD
BRANCH  15  23
ATOM     17  C   UNL     1      -0.793   1.087   1.298  0.00  0.00    +0.009 C 
ATOM     18  C   UNL     1      -0.697  -0.428   1.491  0.00  0.00    +0.005 C 
ATOM     19  C   UNL     1      -2.019  -0.956   2.050  0.00  0.00    +0.005 C 
ATOM     20  C   UNL     1      -1.923  -2.470   2.243  0.00  0.00    +0.000 C 
ATOM     21  C   UNL     1      -0.792  -2.789   3.223  0.00  0.00    +0.002 C 
ATOM     22  C   UNL     1       0.531  -2.261   2.664  0.00  0.00    +0.020 C 
ATOM     23  C   UNL     1       0.435  -0.746   2.471  0.00  0.00    +0.079 C 
ENDBRANCH  15  23
ENDBRANCH   1  15
TORSDOF 4
