REMARK  Name = ZINC43510764
REMARK  4 active torsions:
REMARK  status: ('A' for Active; 'I' for Inactive)
REMARK    1  A    between atoms: C_1  and  C_2
REMARK    2  A    between atoms: C_9  and  C_22
REMARK    3  A    between atoms: C_12  and  C_21
REMARK    4  A    between atoms: C_18  and  O_20
REMARK                            x       y       z     vdW  Elec       q    Type
REMARK                         _______ _______ _______ _____ _____    ______ ____
ROOT
ATOM      1  C   UNL     1      -0.019   1.526   0.010  0.00  0.00    +0.008 C 
ATOM      2  C   UNL     1       0.002  -0.004   0.002  0.00  0.00    -0.007 C 
ATOM      3  C   UNL     1       0.715  -0.496  -1.258  0.00  0.00    +0.004 C 
ATOM      4  C   UNL     1       2.147   0.043  -1.267  0.00  0.00    +0.001 C 
ATOM      5  C   UNL     1       2.888  -0.480  -0.036  0.00  0.00    +0.007 C 
ATOM      6  C   UNL     1       2.180  -0.006   1.237  0.00  0.00    +0.028 C 
ATOM      7  C   UNL     1       0.740  -0.510   1.245  0.00  0.00    -0.020 C 
ATOM      8  C   UNL     1       0.002   0.021   2.488  0.00  0.00    +0.042 C 
ATOM      9  C   UNL     1       0.869  -0.281   3.683  0.00  0.00    -0.017 C 
ATOM     10  C   UNL     1       0.568  -0.848   4.835  0.00  0.00    +0.036 C 
ATOM     11  C   UNL     1       1.798  -0.983   5.629  0.00  0.00    +0.336 C 
ATOM     12  O   UNL     1       1.853  -1.394   6.772  0.00  0.00    -0.245 OA
ATOM     13  O   UNL     1       2.857  -0.580   4.895  0.00  0.00    -0.451 OA
ATOM     14  C   UNL     1       2.352   0.048   3.720  0.00  0.00    +0.232 C 
ATOM     15  C   UNL     1       2.959  -0.535   2.448  0.00  0.00    +0.163 C 
ATOM     16  C   UNL     1      -0.808  -1.285   5.266  0.00  0.00    +0.051 C 
ATOM     17  C   UNL     1       0.733  -2.040   1.256  0.00  0.00    +0.012 C 
ENDROOT
BRANCH  15  18
ATOM     18  O   UNL     1       4.327  -0.135   2.348  0.00  0.00    -0.387 OA
ATOM     19  H   UNL     1       4.880  -0.436   3.083  0.00  0.00    +0.210 HD
ENDBRANCH  15  18
TORSDOF 1
