REMARK  Name = ZINC12401695
REMARK  7 active torsions:
REMARK  status: ('A' for Active; 'I' for Inactive)
REMARK    1  A    between atoms: C_1  and  C_2
REMARK    2  A    between atoms: C_2  and  C_3
REMARK    3  A    between atoms: C_2  and  S_4
REMARK    4  A    between atoms: S_4  and  C_5
REMARK    5  A    between atoms: C_13  and  C_20
REMARK    6  A    between atoms: C_15  and  C_18
REMARK    7  A    between atoms: C_16  and  N_17
REMARK                            x       y       z     vdW  Elec       q    Type
REMARK                         _______ _______ _______ _____ _____    ______ ____
ROOT
ATOM      1  C   UNL     1       0.789   1.960   5.683  0.00  0.00    +0.160 A 
ATOM      2  N   UNL     1      -0.524   1.909   5.504  0.00  0.00    -0.133 NA
ATOM      3  N   UNL     1      -1.083   2.450   4.512  0.00  0.00    -0.124 NA
ATOM      4  C   UNL     1      -0.395   3.100   3.587  0.00  0.00    +0.194 A 
ATOM      5  S   UNL     1       1.263   2.898   4.233  0.00  0.00    -0.024 S 
ATOM      6  N   UNL     1      -0.835   3.752   2.437  0.00  0.00    -0.237 N 
ATOM      7  C   UNL     1      -0.886   3.072   1.248  0.00  0.00    +0.026 C 
ATOM      8  C   UNL     1      -0.917   3.739   0.075  0.00  0.00    +0.025 C 
ATOM      9  C   UNL     1      -0.892   5.246   0.040  0.00  0.00    +0.098 C 
ATOM     10  C   UNL     1      -1.260   5.826   1.373  0.00  0.00    +0.077 C 
ATOM     11  C   UNL     1      -1.214   5.074   2.503  0.00  0.00    +0.108 C 
ATOM     12  C   UNL     1      -0.969   3.050  -1.149  0.00  0.00    +0.162 C 
ATOM     13  O   UNL     1      -1.015   3.680  -2.187  0.00  0.00    -0.292 OA
ATOM     14  C   UNL     1      -0.970   1.546  -1.199  0.00  0.00    +0.080 C 
ATOM     15  C   UNL     1      -0.232   1.007   0.032  0.00  0.00    +0.014 C 
ATOM     16  C   UNL     1      -0.906   1.563   1.288  0.00  0.00    +0.052 C 
ENDROOT
BRANCH   9  17
ATOM     17  C   UNL     1       0.493   5.708  -0.336  0.00  0.00    -0.028 A 
ATOM     18  C   UNL     1       0.694   6.471  -1.470  0.00  0.00    +0.012 A 
ATOM     19  C   UNL     1       1.952   6.870  -1.779  0.00  0.00    +0.045 A 
ATOM     20  S   UNL     1       2.903   6.162  -0.445  0.00  0.00    -0.105 S 
ATOM     21  C   UNL     1       1.558   5.387   0.438  0.00  0.00    +0.049 A 
ENDBRANCH   9  17
BRANCH  11  22
ATOM     22  N   UNL     1      -1.547   5.633   3.713  0.00  0.00    -0.345 N 
ATOM     23  H   UNL     1      -1.430   5.124   4.531  0.00  0.00    +0.144 HD
ATOM     24  H   UNL     1      -1.898   6.536   3.751  0.00  0.00    +0.144 HD
ENDBRANCH  11  22
BRANCH  10  25
ATOM     25  C   UNL     1      -1.665   7.197   1.457  0.00  0.00    +0.099 C 
ATOM     26  N   UNL     1      -1.987   8.284   1.523  0.00  0.00    -0.191 NA
ENDBRANCH  10  25
BRANCH   1  27
ATOM     27  S   UNL     1       1.784   1.290   6.973  0.00  0.00    -0.094 S 
BRANCH  27  29
ATOM     28  C   UNL     1      -0.066  -0.694   7.328  0.00  0.00    +0.019 C 
ATOM     29  C   UNL     1       0.590   0.473   8.068  0.00  0.00    +0.047 C 
ATOM     30  C   UNL     1       1.313  -0.052   9.310  0.00  0.00    +0.019 C 
ENDBRANCH  27  29
ENDBRANCH   1  27
TORSDOF 5
