REMARK  Name = ZINC43509804
REMARK  8 active torsions:
REMARK  status: ('A' for Active; 'I' for Inactive)
REMARK    1  A    between atoms: C_1  and  C_2
REMARK    2  A    between atoms: C_3  and  C_9
REMARK    3  A    between atoms: C_4  and  C_8
REMARK    4  A    between atoms: N_5  and  C_7
REMARK    5  A    between atoms: C_9  and  C_10
REMARK    6  A    between atoms: C_10  and  C_11
REMARK    7  A    between atoms: N_13  and  C_14
REMARK    8  A    between atoms: C_14  and  C_19
REMARK                            x       y       z     vdW  Elec       q    Type
REMARK                         _______ _______ _______ _____ _____    ______ ____
ROOT
ATOM      1  C   UNL     1       1.417   0.313  -4.487  0.00  0.00    +0.214 C 
ATOM      2  O   UNL     1       0.361   0.489  -5.057  0.00  0.00    -0.276 OA
ATOM      3  N   UNL     1       2.578   0.542  -5.133  0.00  0.00    -0.299 N 
ATOM      4  H   UNL     1       3.423   0.401  -4.677  0.00  0.00    +0.150 HD
ENDROOT
BRANCH   3   5
ATOM      5  C   UNL     1       2.564   1.003  -6.523  0.00  0.00    +0.146 C 
ATOM      6  C   UNL     1       4.010   1.138  -7.030  0.00  0.00    +0.049 C 
ATOM      7  C   UNL     1       4.647   2.385  -6.352  0.00  0.00    +0.072 C 
ATOM      8  S   UNL     1       3.235   3.566  -6.425  0.00  0.00    -0.158 S 
ATOM      9  C   UNL     1       1.847   2.373  -6.603  0.00  0.00    +0.106 C 
BRANCH   5  10
ATOM     10  C   UNL     1       1.828   0.002  -7.375  0.00  0.00    +0.380 C 
ATOM     11  O   UNL     1       1.370  -1.008  -6.870  0.00  0.00    -0.244 OA
ATOM     12  O   UNL     1       1.690   0.203  -8.570  0.00  0.00    -0.244 OA
ENDBRANCH   5  10
ENDBRANCH   3   5
BRANCH   1  13
ATOM     13  C   UNL     1       1.431  -0.162  -3.057  0.00  0.00    +0.100 C 
BRANCH  13  14
ATOM     14  C   UNL     1      -0.006  -0.343  -2.566  0.00  0.00    +0.048 C 
BRANCH  14  17
ATOM     15  C   UNL     1      -0.018   1.503   0.010  0.00  0.00    +0.068 C 
ATOM     16  C   UNL     1       0.002  -0.004   0.002  0.00  0.00    +0.063 A 
ATOM     17  C   UNL     1       0.008  -0.818  -1.135  0.00  0.00    -0.004 A 
ATOM     18  C   UNL     1       0.028  -2.107  -0.725  0.00  0.00    +0.039 A 
ATOM     19  N   UNL     1       0.034  -2.109   0.625  0.00  0.00    -0.271 N 
ATOM     20  N   UNL     1       0.023  -0.777   1.058  0.00  0.00    -0.176 NA
ATOM     21  C   UNL     1       0.055  -3.295   1.485  0.00  0.00    +0.172 C 
ATOM     22  C   UNL     1       0.040  -3.323  -1.615  0.00  0.00    +0.065 C 
ENDBRANCH  14  17
ENDBRANCH  13  14
ENDBRANCH   1  13
TORSDOF 5
