REMARK  Name = ZINC27080088
REMARK  6 active torsions:
REMARK  status: ('A' for Active; 'I' for Inactive)
REMARK    1  A    between atoms: C_1  and  C_2
REMARK    2  A    between atoms: C_5  and  O_35
REMARK    3  A    between atoms: C_18  and  C_34
REMARK    4  A    between atoms: C_19  and  O_33
REMARK    5  A    between atoms: C_22  and  C_24
REMARK    6  A    between atoms: N_25  and  N_26
REMARK                            x       y       z     vdW  Elec       q    Type
REMARK                         _______ _______ _______ _____ _____    ______ ____
ROOT
ATOM      1  C   UNL     1      -8.052  10.045  -1.998  0.00  0.00    +0.012 C 
ATOM      2  C   UNL     1      -7.377   8.651  -1.862  0.00  0.00    -0.026 C 
ATOM      3  C   UNL     1      -7.841   7.857  -3.082  0.00  0.00    +0.010 C 
ATOM      4  C   UNL     1      -7.745   6.350  -2.945  0.00  0.00    +0.032 C 
ATOM      5  C   UNL     1      -8.363   5.862  -1.637  0.00  0.00    +0.115 C 
ATOM      6  C   UNL     1      -7.641   6.543  -0.473  0.00  0.00    +0.035 C 
ATOM      7  C   UNL     1      -7.867   8.049  -0.561  0.00  0.00    -0.002 C 
ATOM      8  C   UNL     1      -7.270   8.728   0.669  0.00  0.00    +0.004 C 
ATOM      9  C   UNL     1      -5.741   8.751   0.567  0.00  0.00    +0.007 C 
ATOM     10  C   UNL     1      -5.362   9.575  -0.660  0.00  0.00    +0.025 C 
ATOM     11  C   UNL     1      -5.872   8.883  -1.918  0.00  0.00    +0.001 C 
ATOM     12  C   UNL     1      -5.101   7.585  -2.139  0.00  0.00    +0.005 C 
ATOM     13  C   UNL     1      -3.625   7.925  -2.355  0.00  0.00    +0.010 C 
ATOM     14  C   UNL     1      -3.037   8.658  -1.174  0.00  0.00    +0.005 C 
ATOM     15  C   UNL     1      -3.869   9.866  -0.721  0.00  0.00    +0.075 C 
ATOM     16  C   UNL     1      -3.368  10.111   0.729  0.00  0.00    +0.036 C 
ATOM     17  C   UNL     1      -2.970   8.727   1.274  0.00  0.00    +0.012 C 
ATOM     18  C   UNL     1      -2.879   7.773   0.068  0.00  0.00    +0.040 C 
ATOM     19  C   UNL     1      -1.641   9.160  -1.580  0.00  0.00    +0.014 C 
ENDROOT
BRANCH  18  20
ATOM     20  C   UNL     1      -1.532   7.093   0.051  0.00  0.00    +0.107 C 
ATOM     21  N   UNL     1      -1.460   5.815   0.045  0.00  0.00    -0.193 NA
BRANCH  21  22
ATOM     22  N   UNL     1      -0.210   5.184   0.030  0.00  0.00    -0.221 N 
ATOM     23  C   UNL     1      -0.132   3.796   0.023  0.00  0.00    +0.138 A 
ATOM     24  C   UNL     1       1.114   3.175   0.008  0.00  0.00    +0.045 A 
ATOM     25  C   UNL     1       1.177   1.794   0.001  0.00  0.00    +0.005 A 
ATOM     26  C   UNL     1      -0.013   1.076   0.008  0.00  0.00    +0.020 A 
ATOM     27  C   UNL     1      -1.213   1.757   0.017  0.00  0.00    +0.113 A 
ATOM     28  N   UNL     1      -1.243   3.076   0.029  0.00  0.00    -0.239 NA
ATOM     29  H   UNL     1       0.711   5.786   0.024  0.00  0.00    +0.176 HD
ENDBRANCH  21  22
ENDBRANCH  18  20
BRANCH  15  30
ATOM     30  O   UNL     1      -3.606  11.011  -1.557  0.00  0.00    -0.388 OA
ATOM     31  H   UNL     1      -2.572  11.356  -1.708  0.00  0.00    +0.210 HD
ENDBRANCH  15  30
BRANCH   5  32
ATOM     32  O   UNL     1      -9.752   6.188  -1.604  0.00  0.00    -0.392 OA
ATOM     33  H   UNL     1     -10.362   5.910  -0.731  0.00  0.00    +0.210 HD
ENDBRANCH   5  32
TORSDOF 4
