REMARK  Name = ZINC63768296
REMARK  7 active torsions:
REMARK  status: ('A' for Active; 'I' for Inactive)
REMARK    1  A    between atoms: C_1  and  C_2
REMARK    2  A    between atoms: C_3  and  C_9
REMARK    3  A    between atoms: C_4  and  C_8
REMARK    4  A    between atoms: N_5  and  C_7
REMARK    5  A    between atoms: C_9  and  C_10
REMARK    6  A    between atoms: C_14  and  C_19
REMARK    7  A    between atoms: C_17  and  C_18
REMARK                            x       y       z     vdW  Elec       q    Type
REMARK                         _______ _______ _______ _____ _____    ______ ____
ROOT
ATOM      1  C   UNL     1       1.404  -0.133  -3.042  0.00  0.00    +0.220 C 
ATOM      2  O   UNL     1       2.331  -0.385  -2.302  0.00  0.00    -0.275 OA
ATOM      3  N   UNL     1       1.641   0.275  -4.305  0.00  0.00    -0.298 N 
ATOM      4  C   UNL     1       0.533   0.469  -5.250  0.00  0.00    +0.120 C 
ATOM      5  C   UNL     1       0.625   1.882  -5.835  0.00  0.00    +0.092 C 
ATOM      6  C   UNL     1       2.014   2.087  -6.444  0.00  0.00    +0.016 C 
ATOM      7  C   UNL     1       3.078   1.946  -5.354  0.00  0.00    +0.023 C 
ATOM      8  C   UNL     1       3.013   0.539  -4.761  0.00  0.00    +0.073 C 
ATOM      9  C   UNL     1       3.975   0.439  -3.576  0.00  0.00    +0.028 C 
ENDROOT
BRANCH   5  10
ATOM     10  C   UNL     1      -0.424   2.053  -6.903  0.00  0.00    +0.215 C 
ATOM     11  O   UNL     1      -0.094   2.317  -8.040  0.00  0.00    -0.276 OA
ATOM     12  N   UNL     1      -1.728   1.913  -6.596  0.00  0.00    -0.329 N 
ATOM     13  H   UNL     1      -1.992   1.702  -5.686  0.00  0.00    +0.145 HD
ATOM     14  H   UNL     1      -2.404   2.024  -7.283  0.00  0.00    +0.145 HD
ENDBRANCH   5  10
BRANCH   1  15
ATOM     15  C   UNL     1      -0.013  -0.274  -2.550  0.00  0.00    +0.134 C 
BRANCH  15  18
ATOM     16  C   UNL     1       0.031   1.587   0.014  0.00  0.00    +0.068 C 
ATOM     17  C   UNL     1       0.016   0.080   0.015  0.00  0.00    +0.064 A 
ATOM     18  C   UNL     1      -0.003  -0.741  -1.117  0.00  0.00    +0.005 A 
ATOM     19  C   UNL     1      -0.011  -2.027  -0.698  0.00  0.00    +0.040 A 
ATOM     20  N   UNL     1       0.002  -2.021   0.651  0.00  0.00    -0.271 N 
ATOM     21  N   UNL     1       0.025  -0.686   1.076  0.00  0.00    -0.176 NA
ATOM     22  C   UNL     1      -0.001  -3.201   1.519  0.00  0.00    +0.172 C 
ATOM     23  C   UNL     1      -0.032  -3.249  -1.581  0.00  0.00    +0.065 C 
ENDBRANCH  15  18
ENDBRANCH   1  15
TORSDOF 3
