REMARK  Name = ZINC40308327
REMARK  5 active torsions:
REMARK  status: ('A' for Active; 'I' for Inactive)
REMARK    1  A    between atoms: C_1  and  C_2
REMARK    2  A    between atoms: C_2  and  C_4
REMARK    3  A    between atoms: C_2  and  N_12
REMARK    4  A    between atoms: C_13  and  C_15
REMARK    5  A    between atoms: C_18  and  N_22
REMARK                            x       y       z     vdW  Elec       q    Type
REMARK                         _______ _______ _______ _____ _____    ______ ____
ROOT
ATOM      1  N   UNL     1       0.767  -0.346   1.203  0.00  0.00    -0.300 N 
ATOM      2  C   UNL     1       2.109  -0.452   1.140  0.00  0.00    +0.246 C 
ATOM      3  O   UNL     1       2.685  -0.262   0.086  0.00  0.00    -0.270 OA
ATOM      4  H   UNL     1       0.308  -0.497   2.044  0.00  0.00    +0.150 HD
ENDROOT
BRANCH   2   5
ATOM      5  C   UNL     1       2.879  -0.797   2.349  0.00  0.00    +0.055 A 
ATOM      6  C   UNL     1       2.219  -1.020   3.561  0.00  0.00    +0.016 A 
ATOM      7  C   UNL     1       2.932  -1.340   4.680  0.00  0.00    +0.023 A 
ATOM      8  C   UNL     1       4.320  -1.444   4.622  0.00  0.00    +0.026 A 
ATOM      9  C   UNL     1       4.987  -1.223   3.421  0.00  0.00    +0.043 A 
ATOM     10  C   UNL     1       4.273  -0.906   2.285  0.00  0.00    +0.055 A 
ATOM     11 CL   UNL     1       5.100  -0.637   0.783  0.00  0.00    -0.083 Cl
BRANCH   8  12
ATOM     12  N   UNL     1       5.040  -1.770   5.766  0.00  0.00    -0.358 N 
ATOM     13  H   UNL     1       4.576  -1.923   6.603  0.00  0.00    +0.142 HD
ATOM     14  H   UNL     1       6.006  -1.843   5.726  0.00  0.00    +0.142 HD
ENDBRANCH   8  12
ENDBRANCH   2   5
BRANCH   1  16
ATOM     15  C   UNL     1      -0.033   1.518  -0.163  0.00  0.00    +0.038 C 
ATOM     16  C   UNL     1       0.002  -0.003   0.002  0.00  0.00    +0.156 C 
BRANCH  16  17
ATOM     17  C   UNL     1      -1.405  -0.526   0.137  0.00  0.00    +0.236 C 
ATOM     18  O   UNL     1      -1.838  -0.828   1.228  0.00  0.00    -0.274 OA
ATOM     19  N   UNL     1      -2.182  -0.659  -0.957  0.00  0.00    -0.300 N 
ATOM     20  C   UNL     1      -1.636  -0.410  -2.298  0.00  0.00    +0.108 C 
ATOM     21  C   UNL     1      -1.909  -1.635  -3.177  0.00  0.00    +0.019 C 
ATOM     22  C   UNL     1      -3.407  -1.948  -3.157  0.00  0.00    +0.003 C 
ATOM     23  C   UNL     1      -3.842  -2.274  -1.726  0.00  0.00    +0.019 C 
ATOM     24  C   UNL     1      -3.589  -1.063  -0.831  0.00  0.00    +0.108 C 
ENDBRANCH  16  17
ENDBRANCH   1  16
TORSDOF 4
