REMARK  Name = ZINC63572387
REMARK  2 active torsions:
REMARK  status: ('A' for Active; 'I' for Inactive)
REMARK    1  A    between atoms: C_6  and  C_7
REMARK    2  A    between atoms: N_25  and  C_26
REMARK                            x       y       z     vdW  Elec       q    Type
REMARK                         _______ _______ _______ _____ _____    ______ ____
ROOT
ATOM      1  C   UNL     1      -1.149  -1.615   0.573  0.00  0.00    +0.134 C 
ATOM      2  C   UNL     1      -1.583  -2.578   1.683  0.00  0.00    +0.131 C 
ATOM      3  C   UNL     1      -2.855  -3.260   1.195  0.00  0.00    -0.035 C 
ATOM      4  C   UNL     1      -3.781  -3.034   2.119  0.00  0.00    +0.001 A 
ATOM      5  C   UNL     1      -5.174  -3.491   2.241  0.00  0.00    +0.030 A 
ATOM      6  C   UNL     1      -5.856  -3.052   3.333  0.00  0.00    +0.042 A 
ATOM      7  C   UNL     1      -5.295  -2.213   4.304  0.00  0.00    +0.022 A 
ATOM      8  C   UNL     1      -4.021  -1.749   4.273  0.00  0.00    +0.027 A 
ATOM      9  C   UNL     1      -3.204  -2.147   3.175  0.00  0.00    +0.043 A 
ATOM     10  N   UNL     1      -1.940  -1.867   2.912  0.00  0.00    -0.375 N 
ATOM     11 CL   UNL     1      -7.505  -3.556   3.533  0.00  0.00    -0.084 Cl
ATOM     12  C   UNL     1      -2.939  -3.957  -0.141  0.00  0.00    +0.052 C 
ATOM     13  C   UNL     1      -2.405  -2.966  -1.192  0.00  0.00    +0.114 C 
ATOM     14  N   UNL     1      -1.166  -2.354  -0.699  0.00  0.00    -0.276 N 
ATOM     15  C   UNL     1      -0.032  -2.471  -1.418  0.00  0.00    +0.307 C 
ATOM     16  O   UNL     1       1.028  -2.109  -0.945  0.00  0.00    -0.252 OA
ATOM     17  N   UNL     1      -0.073  -2.989  -2.662  0.00  0.00    -0.269 N 
ATOM     18  H   UNL     1      -0.927  -3.190  -3.076  0.00  0.00    +0.156 HD
ATOM     19  H   UNL     1      -1.350  -1.294   3.427  0.00  0.00    +0.160 HD
ENDROOT
BRANCH   1  25
ATOM     20  C   UNL     1       0.577   0.197   0.548  0.00  0.00    +0.008 A 
ATOM     21  C   UNL     1       1.853   0.662   0.803  0.00  0.00    +0.038 A 
ATOM     22  C   UNL     1       2.798  -0.183   1.361  0.00  0.00    +0.123 A 
ATOM     23  C   UNL     1       2.462  -1.492   1.664  0.00  0.00    +0.038 A 
ATOM     24  C   UNL     1       1.185  -1.954   1.408  0.00  0.00    +0.008 A 
ATOM     25  C   UNL     1       0.243  -1.110   0.851  0.00  0.00    -0.025 A 
ATOM     26  F   UNL     1       4.046   0.270   1.610  0.00  0.00    -0.205 F 
ENDBRANCH   1  25
BRANCH  17  27
ATOM     27  C   UNL     1       1.117  -3.237  -3.356  0.00  0.00    +0.035 A 
ATOM     28  C   UNL     1       2.236  -2.447  -3.124  0.00  0.00    +0.025 A 
ATOM     29  C   UNL     1       3.409  -2.694  -3.810  0.00  0.00    +0.022 A 
ATOM     30  C   UNL     1       3.470  -3.727  -4.729  0.00  0.00    +0.041 A 
ATOM     31  C   UNL     1       2.357  -4.516  -4.962  0.00  0.00    +0.022 A 
ATOM     32  C   UNL     1       1.183  -4.277  -4.274  0.00  0.00    +0.025 A 
ATOM     33 CL   UNL     1       4.946  -4.035  -5.590  0.00  0.00    -0.084 Cl
ENDBRANCH  17  27
TORSDOF 2
