REMARK  Name = ZINC54401575
REMARK  6 active torsions:
REMARK  status: ('A' for Active; 'I' for Inactive)
REMARK    1  A    between atoms: C_1  and  C_2
REMARK    2  A    between atoms: C_2  and  C_3
REMARK    3  A    between atoms: C_3  and  C_4
REMARK    4  A    between atoms: C_3  and  C_5
REMARK    5  A    between atoms: C_3  and  C_6
REMARK    6  A    between atoms: C_15  and  N_18
REMARK                            x       y       z     vdW  Elec       q    Type
REMARK                         _______ _______ _______ _____ _____    ______ ____
ROOT
ATOM      1  C   UNL     1       1.259  -1.733  -1.893  0.00  0.00    +0.225 C 
ATOM      2  O   UNL     1       0.987  -2.822  -1.432  0.00  0.00    -0.275 OA
ATOM      3  N   UNL     1       2.026  -1.642  -2.997  0.00  0.00    -0.269 N 
ATOM      4  C   UNL     1       2.219  -0.328  -3.603  0.00  0.00    +0.124 C 
ATOM      5  C   UNL     1       1.823  -0.405  -5.085  0.00  0.00    +0.094 C 
ATOM      6  S   UNL     1       2.994  -1.525  -5.910  0.00  0.00    -0.122 S 
ATOM      7  C   UNL     1       3.076  -2.905  -4.812  0.00  0.00    +0.029 A 
ATOM      8  C   UNL     1       2.603  -2.808  -3.505  0.00  0.00    +0.051 A 
ATOM      9  C   UNL     1       2.696  -3.912  -2.663  0.00  0.00    +0.047 A 
ATOM     10  C   UNL     1       3.253  -5.097  -3.118  0.00  0.00    +0.026 A 
ATOM     11  C   UNL     1       3.723  -5.189  -4.421  0.00  0.00    +0.024 A 
ATOM     12  C   UNL     1       3.627  -4.096  -5.268  0.00  0.00    +0.018 A 
ENDROOT
BRANCH   1  13
ATOM     13  C   UNL     1       0.739  -0.483  -1.230  0.00  0.00    +0.042 C 
ATOM     14  C   UNL     1      -0.276   0.197  -2.151  0.00  0.00    +0.020 C 
ATOM     15  C   UNL     1       1.903   0.472  -0.961  0.00  0.00    +0.020 C 
BRANCH  13  17
ATOM     16  C   UNL     1      -0.464   0.419   0.764  0.00  0.00    +0.005 C 
ATOM     17  C   UNL     1       0.063  -0.850   0.092  0.00  0.00    +0.012 C 
ENDBRANCH  13  17
ENDBRANCH   1  13
BRANCH  10  18
ATOM     18  N   UNL     1       3.342  -6.202  -2.263  0.00  0.00    -0.358 N 
ATOM     19  H   UNL     1       3.014  -6.138  -1.353  0.00  0.00    +0.142 HD
ATOM     20  H   UNL     1       3.732  -7.031  -2.581  0.00  0.00    +0.142 HD
ENDBRANCH  10  18
TORSDOF 3
