REMARK  Name = ZINC23460577
REMARK  9 active torsions:
REMARK  status: ('A' for Active; 'I' for Inactive)
REMARK    1  A    between atoms: C_1  and  C_2
REMARK    2  A    between atoms: C_2  and  N_3
REMARK    3  A    between atoms: C_7  and  C_31
REMARK    4  A    between atoms: C_8  and  C_30
REMARK    5  A    between atoms: C_12  and  S_13
REMARK    6  A    between atoms: S_13  and  C_14
REMARK    7  A    between atoms: C_14  and  C_15
REMARK    8  A    between atoms: C_17  and  O_18
REMARK    9  A    between atoms: C_27  and  C_29
REMARK                            x       y       z     vdW  Elec       q    Type
REMARK                         _______ _______ _______ _____ _____    ______ ____
ROOT
ATOM      1  C   UNL     1      -3.734  -0.666   4.357  0.00  0.00    -0.020 A 
ATOM      2  C   UNL     1      -4.287   0.598   4.315  0.00  0.00    +0.092 A 
ATOM      3  C   UNL     1      -5.665   0.750   4.280  0.00  0.00    +0.285 A 
ATOM      4  O   UNL     1      -6.482  -0.309   4.286  0.00  0.00    -0.425 OA
ATOM      5  C   UNL     1      -5.996  -1.566   4.327  0.00  0.00    +0.141 A 
ATOM      6  C   UNL     1      -4.599  -1.780   4.357  0.00  0.00    +0.022 A 
ATOM      7  C   UNL     1      -4.088  -3.090   4.394  0.00  0.00    +0.013 A 
ATOM      8  C   UNL     1      -4.938  -4.150   4.394  0.00  0.00    +0.024 A 
ATOM      9  C   UNL     1      -6.329  -3.946   4.358  0.00  0.00    +0.037 A 
ATOM     10  C   UNL     1      -6.852  -2.653   4.333  0.00  0.00    +0.070 A 
ATOM     11  N   UNL     1      -7.170  -5.017   4.358  0.00  0.00    -0.286 N 
ATOM     12  C   UNL     1      -8.433  -4.864   4.011  0.00  0.00    +0.214 C 
ATOM     13  O   UNL     1      -8.818  -3.794   3.573  0.00  0.00    -0.276 OA
ATOM     14  C   UNL     1      -9.399  -6.011   4.154  0.00  0.00    +0.109 C 
ATOM     15  H   UNL     1      -6.840  -5.893   4.615  0.00  0.00    +0.155 HD
ENDROOT
BRANCH   3  16
ATOM     16  O   UNL     1      -6.191   1.989   4.240  0.00  0.00    -0.480 OA
ATOM     17  H   UNL     1      -7.158   2.005   4.218  0.00  0.00    +0.295 HD
ENDBRANCH   3  16
BRANCH   1  18
ATOM     18  C   UNL     1      -2.239  -0.853   4.394  0.00  0.00    +0.113 C 
BRANCH  18  19
ATOM     19  S   UNL     1      -1.546  -0.519   2.752  0.00  0.00    -0.083 S 
BRANCH  19  29
ATOM     20  N   UNL     1       1.023  -0.606   1.895  0.00  0.00    -0.288 N 
ATOM     21  C   UNL     1       2.350  -0.787   2.016  0.00  0.00    +0.263 A 
ATOM     22  O   UNL     1       3.086  -0.626   1.057  0.00  0.00    -0.267 OA
ATOM     23  C   UNL     1       2.888  -1.171   3.285  0.00  0.00    +0.075 A 
ATOM     24  C   UNL     1       4.269  -1.423   3.660  0.00  0.00    -0.026 A 
ATOM     25  C   UNL     1       4.550  -1.776   4.923  0.00  0.00    -0.008 A 
ATOM     26  S   UNL     1       2.952  -1.796   5.713  0.00  0.00    -0.073 S 
ATOM     27  C   UNL     1       1.952  -1.330   4.324  0.00  0.00    +0.117 A 
ATOM     28  N   UNL     1       0.652  -1.135   4.137  0.00  0.00    -0.216 NA
ATOM     29  C   UNL     1       0.185  -0.776   2.958  0.00  0.00    +0.173 A 
ATOM     30  C   UNL     1       5.895  -2.083   5.529  0.00  0.00    +0.052 C 
ATOM     31  C   UNL     1       5.372  -1.289   2.642  0.00  0.00    +0.045 C 
BRANCH  20  33
ATOM     32  C   UNL     1       0.437   1.314   0.497  0.00  0.00    +0.027 C 
ATOM     33  C   UNL     1       0.467  -0.212   0.598  0.00  0.00    +0.124 C 
ENDBRANCH  20  33
ENDBRANCH  19  29
ENDBRANCH  18  19
ENDBRANCH   1  18
TORSDOF 5
