REMARK  Name = ZINC51131419
REMARK  6 active torsions:
REMARK  status: ('A' for Active; 'I' for Inactive)
REMARK    1  A    between atoms: C_1  and  C_2
REMARK    2  A    between atoms: C_5  and  C_25
REMARK    3  A    between atoms: C_10  and  C_12
REMARK    4  A    between atoms: C_12  and  C_14
REMARK    5  A    between atoms: C_12  and  N_15
REMARK    6  A    between atoms: C_19  and  C_22
REMARK                            x       y       z     vdW  Elec       q    Type
REMARK                         _______ _______ _______ _____ _____    ______ ____
ROOT
ATOM      1  C   UNL     1       3.109  -2.098   1.356  0.00  0.00    +0.140 C 
ATOM      2  C   UNL     1       3.282  -1.194   2.578  0.00  0.00    +0.034 C 
ENDROOT
BRANCH   1  10
ATOM      3  C   UNL     1      -0.591   0.904  -0.073  0.00  0.00    +0.009 C 
ATOM      4  C   UNL     1      -0.341  -0.602   0.032  0.00  0.00    +0.004 C 
ATOM      5  C   UNL     1      -1.677  -1.333   0.172  0.00  0.00    +0.009 C 
ATOM      6  C   UNL     1      -1.431  -2.842   0.245  0.00  0.00    +0.004 C 
ATOM      7  C   UNL     1      -0.576  -3.157   1.477  0.00  0.00    +0.111 C 
ATOM      8  N   UNL     1       0.649  -2.347   1.422  0.00  0.00    -0.300 N 
ATOM      9  C   UNL     1       0.527  -0.891   1.261  0.00  0.00    +0.111 C 
ATOM     10  C   UNL     1       1.861  -2.928   1.518  0.00  0.00    +0.233 C 
ATOM     11  O   UNL     1       1.948  -4.118   1.734  0.00  0.00    -0.274 OA
ATOM     12  C   UNL     1      -2.770  -3.574   0.351  0.00  0.00    +0.009 C 
ENDBRANCH   1  10
BRANCH   1  13
ATOM     13  N   UNL     1       4.274  -2.985   1.234  0.00  0.00    -0.287 NA
ATOM     14  C   UNL     1       4.439  -3.806   2.443  0.00  0.00    +0.113 C 
ATOM     15  C   UNL     1       5.625  -4.755   2.250  0.00  0.00    +0.176 C 
ATOM     16  O   UNL     1       6.796  -3.991   1.950  0.00  0.00    -0.365 OA
ATOM     17  C   UNL     1       6.670  -3.180   0.778  0.00  0.00    +0.217 C 
ATOM     18  C   UNL     1       5.495  -2.215   0.956  0.00  0.00    +0.126 C 
BRANCH  17  19
ATOM     19  C   UNL     1       7.940  -2.395   0.571  0.00  0.00    +0.241 C 
ATOM     20  O   UNL     1       8.827  -2.447   1.396  0.00  0.00    -0.273 OA
ATOM     21  N   UNL     1       8.089  -1.635  -0.532  0.00  0.00    -0.327 N 
ATOM     22  H   UNL     1       7.380  -1.593  -1.192  0.00  0.00    +0.145 HD
ATOM     23  H   UNL     1       8.906  -1.130  -0.666  0.00  0.00    +0.145 HD
ENDBRANCH  17  19
ENDBRANCH   1  13
TORSDOF 3
