REMARK  Name = ZINC40723002
REMARK  5 active torsions:
REMARK  status: ('A' for Active; 'I' for Inactive)
REMARK    1  A    between atoms: C_4  and  N_7
REMARK    2  A    between atoms: N_7  and  N_8
REMARK    3  A    between atoms: C_10  and  N_23
REMARK    4  A    between atoms: C_11  and  S_15
REMARK    5  A    between atoms: S_15  and  C_16
REMARK                            x       y       z     vdW  Elec       q    Type
REMARK                         _______ _______ _______ _____ _____    ______ ____
ROOT
ATOM      1  N   UNL     1       3.641  -2.050  -0.042  0.00  0.00    -0.249 N 
ATOM      2  C   UNL     1       4.855  -2.727  -0.056  0.00  0.00    +0.160 A 
ATOM      3  C   UNL     1       4.888  -4.122  -0.072  0.00  0.00    +0.099 A 
ATOM      4  C   UNL     1       6.134  -4.752  -0.086  0.00  0.00    +0.127 A 
ATOM      5  N   UNL     1       7.235  -4.003  -0.083  0.00  0.00    -0.227 NA
ATOM      6  C   UNL     1       7.159  -2.688  -0.068  0.00  0.00    +0.224 A 
ATOM      7  N   UNL     1       6.004  -2.055  -0.059  0.00  0.00    -0.218 NA
ATOM      8  H   UNL     1       2.808  -2.547  -0.039  0.00  0.00    +0.172 HD
ENDROOT
BRANCH   3   9
ATOM      9  N   UNL     1       3.701  -4.872  -0.074  0.00  0.00    -0.353 N 
ATOM     10  H   UNL     1       2.842  -4.421  -0.064  0.00  0.00    +0.142 HD
ATOM     11  H   UNL     1       3.739  -5.841  -0.086  0.00  0.00    +0.142 HD
ENDBRANCH   3   9
BRANCH   1  12
ATOM     12  N   UNL     1       3.621  -0.649  -0.031  0.00  0.00    -0.265 N 
ATOM     13  H   UNL     1       4.454  -0.151  -0.034  0.00  0.00    +0.170 HD
BRANCH  12  17
ATOM     14  C   UNL     1      -0.015   1.380   0.010  0.00  0.00    +0.000 A 
ATOM     15  C   UNL     1       1.171   2.090   0.007  0.00  0.00    +0.002 A 
ATOM     16  C   UNL     1       2.379   1.421  -0.007  0.00  0.00    +0.024 A 
ATOM     17  C   UNL     1       2.401   0.032  -0.017  0.00  0.00    +0.044 A 
ATOM     18  C   UNL     1       1.207  -0.679  -0.014  0.00  0.00    +0.024 A 
ATOM     19  C   UNL     1       0.003  -0.003  -0.001  0.00  0.00    +0.002 A 
ENDBRANCH  12  17
ENDBRANCH   1  12
BRANCH   4  20
ATOM     20  S   UNL     1       6.247  -6.510  -0.107  0.00  0.00    -0.068 S 
BRANCH  20  21
ATOM     21  C   UNL     1       7.973  -6.824  -0.273  0.00  0.00    +0.014 A 
ATOM     22  C   UNL     1       8.749  -7.061   0.855  0.00  0.00    +0.016 A 
ATOM     23  C   UNL     1      10.102  -7.306   0.722  0.00  0.00    +0.021 A 
ATOM     24  C   UNL     1      10.684  -7.316  -0.533  0.00  0.00    +0.041 A 
ATOM     25  C   UNL     1       9.914  -7.080  -1.659  0.00  0.00    +0.021 A 
ATOM     26  C   UNL     1       8.560  -6.840  -1.532  0.00  0.00    +0.016 A 
ATOM     27 CL   UNL     1      12.385  -7.624  -0.697  0.00  0.00    -0.084 Cl
ENDBRANCH  20  21
ENDBRANCH   4  20
TORSDOF 5
