REMARK  Name = ZINC39531548
REMARK  9 active torsions:
REMARK  status: ('A' for Active; 'I' for Inactive)
REMARK    1  A    between atoms: C_1  and  C_2
REMARK    2  A    between atoms: C_5  and  C_8
REMARK    3  A    between atoms: C_8  and  C_10
REMARK    4  A    between atoms: C_8  and  N_19
REMARK    5  A    between atoms: C_10  and  N_11
REMARK    6  A    between atoms: N_11  and  C_12
REMARK    7  A    between atoms: C_12  and  C_13
REMARK    8  A    between atoms: C_23  and  C_26
REMARK    9  A    between atoms: C_31  and  O_32
REMARK                            x       y       z     vdW  Elec       q    Type
REMARK                         _______ _______ _______ _____ _____    ______ ____
ROOT
ATOM      1  C   UNL     1       0.035  -4.241  -0.029  0.00  0.00    -0.024 C 
ENDROOT
BRANCH   1   2
ATOM      2  N   UNL     1      -0.805  -4.607   1.119  0.00  0.00    +0.383 N 
ATOM      3  C   UNL     1      -0.732  -6.059   1.336  0.00  0.00    -0.097 C 
ATOM      4  C   UNL     1      -1.607  -6.440   2.531  0.00  0.00    -0.101 C 
ATOM      5  N   UNL     1      -2.999  -6.055   2.262  0.00  0.00    +0.381 N 
ATOM      6  C   UNL     1      -3.072  -4.604   2.045  0.00  0.00    -0.054 C 
ATOM      7  C   UNL     1      -2.197  -4.222   0.850  0.00  0.00    -0.089 C 
ATOM      8  H   UNL     1      -3.328  -6.535   1.438  0.00  0.00    -0.085 HD
ATOM      9  H   UNL     1      -3.576  -6.306   3.050  0.00  0.00    -0.085 HD
ATOM     10  H   UNL     1      -0.476  -4.127   1.943  0.00  0.00    -0.081 HD
BRANCH   6  11
ATOM     11  C   UNL     1      -4.500  -4.208   1.769  0.00  0.00    -0.022 A 
ATOM     12  C   UNL     1      -5.412  -5.158   1.351  0.00  0.00    +0.005 A 
ATOM     13  C   UNL     1      -6.721  -4.796   1.097  0.00  0.00    +0.000 A 
ATOM     14  C   UNL     1      -7.122  -3.482   1.261  0.00  0.00    +0.004 A 
ATOM     15  C   UNL     1      -6.215  -2.529   1.680  0.00  0.00    +0.045 A 
ATOM     16  C   UNL     1      -4.901  -2.891   1.940  0.00  0.00    +0.118 A 
BRANCH  16  17
ATOM     17  O   UNL     1      -4.007  -1.956   2.357  0.00  0.00    -0.507 OA
ATOM     18  H   UNL     1      -3.538  -1.512   1.638  0.00  0.00    +0.292 HD
ENDBRANCH  16  17
ENDBRANCH   6  11
ENDBRANCH   1   2
BRANCH   1  23
ATOM     19  C   UNL     1      -0.360   1.447  -0.966  0.00  0.00    +0.044 C 
ATOM     20  C   UNL     1      -0.257  -0.036  -0.722  0.00  0.00    -0.050 A 
ATOM     21  C   UNL     1      -0.225  -0.912  -1.790  0.00  0.00    +0.003 A 
ATOM     22  C   UNL     1      -0.130  -2.273  -1.567  0.00  0.00    +0.002 A 
ATOM     23  C   UNL     1      -0.067  -2.758  -0.274  0.00  0.00    -0.060 A 
ATOM     24  C   UNL     1      -0.098  -1.882   0.795  0.00  0.00    +0.002 A 
ATOM     25  C   UNL     1      -0.188  -0.521   0.571  0.00  0.00    +0.003 A 
ENDBRANCH   1  23
BRANCH   1  26
ATOM     26  C   UNL     1       1.490  -4.611   0.265  0.00  0.00    +0.070 C 
BRANCH  26  27
ATOM     27  N   UNL     1       2.319  -4.313  -0.911  0.00  0.00    -0.313 NA
ATOM     28  H   UNL     1       1.931  -4.732  -1.742  0.00  0.00    +0.122 HD
BRANCH  27  29
ATOM     29  C   UNL     1       3.706  -4.748  -0.701  0.00  0.00    +0.116 C 
BRANCH  29  30
ATOM     30  C   UNL     1       4.524  -4.427  -1.925  0.00  0.00    -0.034 A 
ATOM     31  C   UNL     1       4.628  -5.350  -2.949  0.00  0.00    +0.005 A 
ATOM     32  C   UNL     1       5.378  -5.056  -4.072  0.00  0.00    +0.000 A 
ATOM     33  C   UNL     1       6.024  -3.837  -4.172  0.00  0.00    +0.000 A 
ATOM     34  C   UNL     1       5.919  -2.914  -3.149  0.00  0.00    +0.000 A 
ATOM     35  C   UNL     1       5.166  -3.207  -2.027  0.00  0.00    +0.005 A 
ENDBRANCH  29  30
ENDBRANCH  27  29
ENDBRANCH  26  27
ENDBRANCH   1  26
TORSDOF 8
