REMARK  Name = ZINC37448164
REMARK  8 active torsions:
REMARK  status: ('A' for Active; 'I' for Inactive)
REMARK    1  A    between atoms: CD1_1  and  CG1_2
REMARK    2  A    between atoms: CG1_2  and  CB_3
REMARK    3  A    between atoms: CB_3  and  CG2_5
REMARK    4  A    between atoms: CB_3  and  CA_6
REMARK    5  A    between atoms: CA_6  and  C_8
REMARK    6  A    between atoms: CA_6  and  N_11
REMARK    7  A    between atoms: C_12  and  C_14
REMARK    8  A    between atoms: C_20  and  C_22
REMARK                            x       y       z     vdW  Elec       q    Type
REMARK                         _______ _______ _______ _____ _____    ______ ____
ROOT
ATOM      1  N   ILE A   1       1.274  -2.502  -2.531  0.00  0.00    -0.302 N 
ATOM      2  C   UNK A   0       0.938  -3.682  -3.087  0.00  0.00    +0.217 C 
ATOM      3  O   UNK A   0       0.060  -4.358  -2.592  0.00  0.00    -0.275 OA
ATOM      4  H   ILE A   1       1.976  -1.962  -2.927  0.00  0.00    +0.150 HD
ENDROOT
BRANCH   2   5
ATOM      5  C   UNK A   0       1.651  -4.163  -4.324  0.00  0.00    +0.078 C 
ATOM      6  C   UNK A   0       1.452  -3.151  -5.454  0.00  0.00    +0.032 C 
ATOM      7  C   UNK A   0       2.208  -3.626  -6.699  0.00  0.00    +0.108 C 
ATOM      8  N   UNK A   0       1.769  -4.989  -7.027  0.00  0.00    -0.302 N 
ATOM      9  C   UNK A   0       1.833  -6.021  -5.984  0.00  0.00    +0.108 C 
ATOM     10  C   UNK A   0       1.082  -5.520  -4.747  0.00  0.00    +0.032 C 
ATOM     11  C   UNK A   0       1.317  -5.287  -8.261  0.00  0.00    +0.212 C 
ATOM     12  O   UNK A   0       1.043  -6.434  -8.546  0.00  0.00    -0.276 OA
ATOM     13  C   UNK A   0       1.151  -4.196  -9.287  0.00  0.00    +0.109 C 
ENDBRANCH   2   5
BRANCH   1  14
ATOM     14  CA  ILE A   1       0.580  -2.034  -1.329  0.00  0.00    +0.189 C 
BRANCH  14  15
ATOM     15  C   ILE A   1       1.233  -2.631  -0.108  0.00  0.00    +0.376 C 
ATOM     16  O   ILE A   1       0.570  -2.848   0.892  0.00  0.00    -0.244 OA
ATOM     17  OXT ILE A   1       2.423  -2.896  -0.121  0.00  0.00    -0.244 OA
ENDBRANCH  14  15
BRANCH  14  18
ATOM     18  CB  ILE A   1       0.659  -0.508  -1.255  0.00  0.00    +0.017 C 
ATOM     19  CG2 ILE A   1       2.126  -0.076  -1.198  0.00  0.00    +0.010 C 
BRANCH  18  21
ATOM     20  CD1 ILE A   1      -0.094   1.510   0.011  0.00  0.00    +0.004 C 
ATOM     21  CG1 ILE A   1      -0.065  -0.020   0.001  0.00  0.00    +0.002 C 
ENDBRANCH  18  21
ENDBRANCH  14  18
ENDBRANCH   1  14
TORSDOF 5
