REMARK  Name = ZINC25004867
REMARK  6 active torsions:
REMARK  status: ('A' for Active; 'I' for Inactive)
REMARK    1  A    between atoms: C_4  and  N_23
REMARK    2  A    between atoms: C_5  and  N_7
REMARK    3  A    between atoms: C_8  and  C_10
REMARK    4  A    between atoms: C_10  and  N_11
REMARK    5  A    between atoms: N_14  and  C_15
REMARK    6  A    between atoms: C_15  and  C_16
REMARK                            x       y       z     vdW  Elec       q    Type
REMARK                         _______ _______ _______ _____ _____    ______ ____
ROOT
ATOM      1  N   UNL     1      -0.077   5.216   0.033  0.00  0.00    -0.282 N 
ATOM      2  C   UNL     1      -1.255   5.862   0.141  0.00  0.00    +0.234 C 
ATOM      3  O   UNL     1      -2.276   5.234   0.320  0.00  0.00    -0.274 OA
ATOM      4  H   UNL     1       0.860   5.788  -0.042  0.00  0.00    +0.155 HD
ENDROOT
BRANCH   1   9
ATOM      5  C   UNL     1      -1.033   1.723  -0.611  0.00  0.00    +0.002 A 
ATOM      6  C   UNL     1       0.017   1.046  -0.018  0.00  0.00    +0.002 A 
ATOM      7  C   UNL     1       1.042   1.747   0.589  0.00  0.00    +0.030 A 
ATOM      8  C   UNL     1       1.016   3.134   0.609  0.00  0.00    +0.088 A 
ATOM      9  C   UNL     1      -0.045   3.817   0.016  0.00  0.00    +0.059 A 
ATOM     10  C   UNL     1      -1.069   3.104  -0.591  0.00  0.00    +0.025 A 
BRANCH   8  11
ATOM     11  N   UNL     1       2.056   3.848   1.224  0.00  0.00    -0.218 N 
ATOM     12  C   UNL     1       3.089   3.333   1.918  0.00  0.00    +0.225 A 
ATOM     13  N   UNL     1       3.839   4.325   2.325  0.00  0.00    -0.222 NA
ATOM     14  C   UNL     1       3.316   5.482   1.921  0.00  0.00    +0.245 A 
ATOM     15  N   UNL     1       2.224   5.242   1.243  0.00  0.00    -0.153 NA
ENDBRANCH   8  11
ENDBRANCH   1   9
BRANCH   2  16
ATOM     16  C   UNL     1      -1.302   7.364   0.038  0.00  0.00    +0.202 C 
BRANCH  16  17
ATOM     17  N   UNL     1      -2.686   7.821   0.187  0.00  0.00    -0.291 N 
ATOM     18  C   UNL     1      -2.972   9.136   0.129  0.00  0.00    +0.300 C 
ATOM     19  O   UNL     1      -2.081   9.945  -0.046  0.00  0.00    -0.253 OA
ATOM     20  N   UNL     1      -4.245   9.556   0.266  0.00  0.00    -0.295 N 
ATOM     21  H   UNL     1      -3.492   7.089   0.345  0.00  0.00    +0.151 HD
ATOM     22  H   UNL     1      -5.051   8.825   0.425  0.00  0.00    +0.151 HD
BRANCH  20  23
ATOM     23  C   UNL     1      -4.556  10.986   0.203  0.00  0.00    +0.141 C 
BRANCH  23  24
ATOM     24  C   UNL     1      -6.039  11.187   0.384  0.00  0.00    -0.030 A 
ATOM     25  C   UNL     1      -6.873  11.199  -0.719  0.00  0.00    +0.008 A 
ATOM     26  C   UNL     1      -8.233  11.378  -0.554  0.00  0.00    +0.038 A 
ATOM     27  C   UNL     1      -8.760  11.556   0.714  0.00  0.00    +0.123 A 
ATOM     28  C   UNL     1      -7.922  11.549   1.817  0.00  0.00    +0.038 A 
ATOM     29  C   UNL     1      -6.563  11.364   1.650  0.00  0.00    +0.008 A 
ATOM     30  F   UNL     1     -10.089  11.735   0.875  0.00  0.00    -0.205 F 
ENDBRANCH  23  24
ENDBRANCH  20  23
ENDBRANCH  16  17
ENDBRANCH   2  16
TORSDOF 6
