REMARK  Name = ZINC22679604
REMARK  10 active torsions:
REMARK  status: ('A' for Active; 'I' for Inactive)
REMARK    1  A    between atoms: C_1  and  O_2
REMARK    2  A    between atoms: O_2  and  C_3
REMARK    3  A    between atoms: C_6  and  C_11
REMARK    4  A    between atoms: C_8  and  O_9
REMARK    5  A    between atoms: O_9  and  C_10
REMARK    6  A    between atoms: C_11  and  N_12
REMARK    7  A    between atoms: N_15  and  C_16
REMARK    8  A    between atoms: C_16  and  C_17
REMARK    9  A    between atoms: C_17  and  C_19
REMARK   10  A    between atoms: C_17  and  N_24
REMARK                            x       y       z     vdW  Elec       q    Type
REMARK                         _______ _______ _______ _____ _____    ______ ____
ROOT
ATOM      1  N   UNL     1       7.775   1.076   2.441  0.00  0.00    -0.295 N 
ATOM      2  C   UNL     1       6.428   1.083   2.469  0.00  0.00    +0.300 C 
ATOM      3  O   UNL     1       5.842   1.361   3.498  0.00  0.00    -0.253 OA
ATOM      4  N   UNL     1       5.729   0.782   1.357  0.00  0.00    -0.301 N 
ATOM      5  H   UNL     1       8.304   0.824   1.510  0.00  0.00    +0.151 HD
ATOM      6  H   UNL     1       6.258   0.530   0.426  0.00  0.00    +0.150 HD
ENDROOT
BRANCH   1   7
ATOM      7  C   UNL     1       8.535   1.403   3.650  0.00  0.00    +0.141 C 
BRANCH   7  11
ATOM      8  C   UNL     1      12.721   1.171   2.810  0.00  0.00    +0.162 A 
ATOM      9  C   UNL     1      12.039   0.052   3.260  0.00  0.00    +0.050 A 
ATOM     10  C   UNL     1      10.687   0.132   3.536  0.00  0.00    +0.009 A 
ATOM     11  C   UNL     1      10.010   1.323   3.354  0.00  0.00    -0.027 A 
ATOM     12  C   UNL     1      10.685   2.443   2.905  0.00  0.00    +0.054 A 
ATOM     13  C   UNL     1      12.041   2.372   2.632  0.00  0.00    +0.162 A 
BRANCH   8  15
ATOM     14  C   UNL     1      14.685  -0.169   2.748  0.00  0.00    +0.277 C 
ATOM     15  O   UNL     1      14.053   1.096   2.543  0.00  0.00    -0.491 OA
ENDBRANCH   8  15
BRANCH  13  16
ATOM     16  O   UNL     1      12.706   3.473   2.190  0.00  0.00    -0.491 OA
ATOM     17  C   UNL     1      11.944   4.671   2.030  0.00  0.00    +0.277 C 
ENDBRANCH  13  16
ENDBRANCH   7  11
ENDBRANCH   1   7
BRANCH   4  18
ATOM     18  C   UNL     1       4.264   0.789   1.388  0.00  0.00    +0.095 C 
BRANCH  18  19
ATOM     19  C   UNL     1       3.723   0.576  -0.028  0.00  0.00    -0.020 C 
BRANCH  19  20
ATOM     20  N   UNL     1       4.267   1.607  -0.921  0.00  0.00    +0.385 N 
ATOM     21  C   UNL     1       3.210   2.166  -1.792  0.00  0.00    -0.078 C 
ATOM     22  C   UNL     1       3.759   3.022  -2.901  0.00  0.00    -0.019 C 
ATOM     23  C   UNL     1       3.938   2.141  -4.155  0.00  0.00    -0.002 C 
ATOM     24  C   UNL     1       5.141   1.320  -4.085  0.00  0.00    -0.002 C 
ATOM     25  C   UNL     1       5.112   0.345  -2.889  0.00  0.00    -0.019 C 
ATOM     26  C   UNL     1       5.460   1.109  -1.641  0.00  0.00    -0.078 C 
ATOM     27  H   UNL     1       4.623   2.452  -0.313  0.00  0.00    -0.081 HD
ENDBRANCH  19  20
BRANCH  19  28
ATOM     28  C   UNL     1       2.219   0.669  -0.010  0.00  0.00    -0.052 A 
ATOM     29  C   UNL     1       1.444  -0.426  -0.344  0.00  0.00    +0.009 A 
ATOM     30  C   UNL     1       0.094  -0.308  -0.319  0.00  0.00    +0.045 A 
ATOM     31  S   UNL     1      -0.119   1.390   0.189  0.00  0.00    -0.105 S 
ATOM     32  C   UNL     1       1.606   1.828   0.333  0.00  0.00    +0.047 A 
ENDBRANCH  19  28
ENDBRANCH  18  19
ENDBRANCH   4  18
TORSDOF 8
