REMARK  Name = ZINC41719076
REMARK  3 active torsions:
REMARK  status: ('A' for Active; 'I' for Inactive)
REMARK    1  A    between atoms: C_7  and  N_14
REMARK    2  A    between atoms: C_8  and  C_11
REMARK    3  A    between atoms: N_14  and  C_15
REMARK                            x       y       z     vdW  Elec       q    Type
REMARK                         _______ _______ _______ _____ _____    ______ ____
ROOT
ATOM      1  C   UNL     1       2.228   0.346   1.789  0.00  0.00    +0.001 A 
ATOM      2  C   UNL     1       3.260   0.072   2.682  0.00  0.00    +0.002 A 
ATOM      3  C   UNL     1       3.599  -1.211   2.990  0.00  0.00    +0.026 A 
ATOM      4  C   UNL     1       2.901  -2.279   2.402  0.00  0.00    +0.048 A 
ATOM      5  C   UNL     1       1.852  -1.996   1.496  0.00  0.00    +0.020 A 
ATOM      6  C   UNL     1       1.528  -0.665   1.200  0.00  0.00    +0.012 A 
ATOM      7  C   UNL     1       1.148  -3.072   0.902  0.00  0.00    +0.052 A 
ATOM      8  C   UNL     1       1.533  -4.377   1.251  0.00  0.00    +0.100 A 
ATOM      9  C   UNL     1       2.588  -4.562   2.161  0.00  0.00    +0.100 A 
ATOM     10  N   UNL     1       3.220  -3.548   2.693  0.00  0.00    -0.360 N 
ATOM     11  H   UNL     1       3.942  -3.720   3.318  0.00  0.00    +0.165 HD
ENDROOT
BRANCH   8  12
ATOM     12  C   UNL     1       0.842  -5.535   0.671  0.00  0.00    +0.390 C 
ATOM     13  O   UNL     1       1.109  -6.665   1.058  0.00  0.00    -0.240 OA
ATOM     14  O   UNL     1      -0.002  -5.370  -0.200  0.00  0.00    -0.240 OA
ENDBRANCH   8  12
BRANCH   7  15
ATOM     15  N   UNL     1       0.121  -2.846   0.016  0.00  0.00    -0.338 N 
ATOM     16  H   UNL     1       0.230  -3.073  -0.921  0.00  0.00    +0.146 HD
BRANCH  15  17
ATOM     17  C   UNL     1      -1.138  -2.262   0.486  0.00  0.00    +0.093 C 
ATOM     18  C   UNL     1      -1.888  -1.640  -0.703  0.00  0.00    +0.046 C 
ATOM     19  C   UNL     1      -3.338  -1.314  -0.245  0.00  0.00    +0.168 C 
ATOM     20  S   UNL     1      -3.717  -2.809   0.762  0.00  0.00    -0.029 S 
ATOM     21  O   UNL     1      -4.347  -2.406   1.971  0.00  0.00    -0.174 OA
ATOM     22  O   UNL     1      -4.348  -3.776  -0.066  0.00  0.00    -0.174 OA
ATOM     23  C   UNL     1      -2.006  -3.367   1.135  0.00  0.00    +0.188 C 
ENDBRANCH  15  17
ENDBRANCH   7  15
TORSDOF 3
