REMARK  Name = ZINC49148085
REMARK  5 active torsions:
REMARK  status: ('A' for Active; 'I' for Inactive)
REMARK    1  A    between atoms: C_3  and  C_6
REMARK    2  A    between atoms: C_6  and  C_7
REMARK    3  A    between atoms: C_7  and  N_8
REMARK    4  A    between atoms: N_11  and  C_12
REMARK    5  A    between atoms: C_15  and  C_19
REMARK                            x       y       z     vdW  Elec       q    Type
REMARK                         _______ _______ _______ _____ _____    ______ ____
ROOT
ATOM      1  N   UNL     1       5.581   0.401   1.409  0.00  0.00    -0.299 N 
ATOM      2  C   UNL     1       6.280   0.373   2.562  0.00  0.00    +0.304 C 
ATOM      3  O   UNL     1       5.702   0.217   3.620  0.00  0.00    -0.253 OA
ATOM      4  N   UNL     1       7.620   0.519   2.540  0.00  0.00    -0.269 N 
ATOM      5  H   UNL     1       6.042   0.526   0.565  0.00  0.00    +0.150 HD
ATOM      6  H   UNL     1       8.089   0.566   1.693  0.00  0.00    +0.156 HD
ENDROOT
BRANCH   4   7
ATOM      7  C   UNL     1       8.331   0.602   3.736  0.00  0.00    +0.036 A 
ATOM      8  C   UNL     1       7.753   1.213   4.846  0.00  0.00    +0.024 A 
ATOM      9  C   UNL     1       8.443   1.298   6.021  0.00  0.00    +0.018 A 
ATOM     10  C   UNL     1       9.736   0.771   6.114  0.00  0.00    +0.082 A 
ATOM     11  C   UNL     1      10.319   0.155   4.999  0.00  0.00    +0.057 A 
ATOM     12  C   UNL     1       9.613   0.068   3.819  0.00  0.00    +0.044 A 
ATOM     13 CL   UNL     1      11.922  -0.502   5.105  0.00  0.00    -0.083 Cl
BRANCH  10  14
ATOM     14  C   UNL     1      10.481   0.863   7.379  0.00  0.00    +0.388 C 
ATOM     15  O   UNL     1       9.971   1.402   8.352  0.00  0.00    -0.241 OA
ATOM     16  O   UNL     1      11.611   0.402   7.459  0.00  0.00    -0.241 OA
ENDBRANCH  10  14
ENDBRANCH   4   7
BRANCH   1  17
ATOM     17  C   UNL     1       4.125   0.242   1.433  0.00  0.00    +0.113 C 
BRANCH  17  18
ATOM     18  C   UNL     1       3.582   0.311   0.004  0.00  0.00    +0.093 C 
BRANCH  18  21
ATOM     19  C   UNL     1      -0.095   0.545   0.116  0.00  0.00    +0.041 A 
ATOM     20  C   UNL     1       1.186   1.144   0.136  0.00  0.00    +0.044 A 
ATOM     21  C   UNL     1       2.084   0.149   0.028  0.00  0.00    +0.106 A 
ATOM     22  O   UNL     1       1.419  -1.015  -0.057  0.00  0.00    -0.468 OA
ATOM     23  C   UNL     1       0.098  -0.781  -0.004  0.00  0.00    +0.195 A 
ENDBRANCH  18  21
ENDBRANCH  17  18
ENDBRANCH   1  17
TORSDOF 5
