REMARK  Name = ZINC01208508
REMARK  3 active torsions:
REMARK  status: ('A' for Active; 'I' for Inactive)
REMARK    1  A    between atoms: C_1  and  C_2
REMARK    2  A    between atoms: C_5  and  N_8
REMARK    3  A    between atoms: C_12  and  C_13
REMARK                            x       y       z     vdW  Elec       q    Type
REMARK                         _______ _______ _______ _____ _____    ______ ____
ROOT
ATOM      1  N   UNL     1      -1.135   3.183  -0.461  0.00  0.00    -0.190 N 
ATOM      2  C   UNL     1      -0.061   3.973  -0.664  0.00  0.00    +0.263 C 
ATOM      3  O   UNL     1      -0.173   5.183  -0.701  0.00  0.00    -0.269 OA
ATOM      4  C   UNL     1       1.256   3.327  -0.839  0.00  0.00    +0.100 C 
ATOM      5  C   UNL     1       2.400   4.068  -1.051  0.00  0.00    +0.026 C 
ATOM      6  C   UNL     1       1.292   1.851  -0.777  0.00  0.00    +0.257 C 
ATOM      7  O   UNL     1       2.339   1.245  -0.912  0.00  0.00    -0.270 OA
ATOM      8  N   UNL     1       0.133   1.194  -0.567  0.00  0.00    -0.235 N 
ATOM      9  C   UNL     1      -1.027   1.848  -0.422  0.00  0.00    +0.320 C 
ATOM     10  O   UNL     1      -2.036   1.195  -0.241  0.00  0.00    -0.251 OA
ATOM     11  H   UNL     1       0.139   0.225  -0.524  0.00  0.00    +0.159 HD
ENDROOT
BRANCH   1  16
ATOM     12  C   UNL     1      -6.238   5.572   0.223  0.00  0.00    +0.044 C 
ATOM     13  C   UNL     1      -4.883   4.937   0.042  0.00  0.00    -0.050 A 
ATOM     14  C   UNL     1      -4.018   4.840   1.115  0.00  0.00    +0.005 A 
ATOM     15  C   UNL     1      -2.775   4.259   0.952  0.00  0.00    +0.024 A 
ATOM     16  C   UNL     1      -2.396   3.773  -0.292  0.00  0.00    +0.046 A 
ATOM     17  C   UNL     1      -3.265   3.877  -1.369  0.00  0.00    +0.024 A 
ATOM     18  C   UNL     1      -4.508   4.454  -1.199  0.00  0.00    +0.005 A 
ENDBRANCH   1  16
BRANCH   5  19
ATOM     19  C   UNL     1       3.716   3.431  -0.945  0.00  0.00    -0.024 A 
ATOM     20  C   UNL     1       3.981   2.530   0.096  0.00  0.00    +0.009 A 
ATOM     21  C   UNL     1       5.218   1.932   0.185  0.00  0.00    +0.015 A 
ATOM     22  C   UNL     1       6.203   2.227  -0.744  0.00  0.00    +0.013 A 
ATOM     23  C   UNL     1       5.952   3.120  -1.772  0.00  0.00    +0.015 A 
ATOM     24  C   UNL     1       4.718   3.724  -1.880  0.00  0.00    +0.009 A 
ATOM     25  I   UNL     1       8.084   1.315  -0.593  0.00  0.00    -0.044 I 
ENDBRANCH   5  19
TORSDOF 2
