REMARK  Name = ZINC32870372
REMARK  7 active torsions:
REMARK  status: ('A' for Active; 'I' for Inactive)
REMARK    1  A    between atoms: C_1  and  C_2
REMARK    2  A    between atoms: C_7  and  N_8
REMARK    3  A    between atoms: C_9  and  C_11
REMARK    4  A    between atoms: C_11  and  N_12
REMARK    5  A    between atoms: N_15  and  C_16
REMARK    6  A    between atoms: C_16  and  C_18
REMARK    7  A    between atoms: C_16  and  C_19
REMARK                            x       y       z     vdW  Elec       q    Type
REMARK                         _______ _______ _______ _____ _____    ______ ____
ROOT
ATOM      1  N   UNL     1      -0.016   1.343  -0.007  0.00  0.00    -0.291 N 
ATOM      2  C   UNL     1       0.003  -0.004  -0.025  0.00  0.00    +0.300 C 
ATOM      3  O   UNL     1       1.064  -0.598  -0.046  0.00  0.00    -0.253 OA
ATOM      4  N   UNL     1      -1.155  -0.694  -0.018  0.00  0.00    -0.293 N 
ATOM      5  H   UNL     1      -0.976   1.880   0.012  0.00  0.00    +0.151 HD
ATOM      6  H   UNL     1      -2.115  -0.158   0.001  0.00  0.00    +0.151 HD
ENDROOT
BRANCH   4   7
ATOM      7  C   UNL     1      -1.135  -2.159  -0.037  0.00  0.00    +0.102 C 
ATOM      8  C   UNL     1      -0.984  -2.685   1.391  0.00  0.00    +0.033 C 
BRANCH   7   9
ATOM      9  C   UNL     1      -2.423  -2.671  -0.628  0.00  0.00    -0.027 A 
ATOM     10  C   UNL     1      -3.621  -2.061  -0.307  0.00  0.00    +0.007 A 
ATOM     11  C   UNL     1      -4.803  -2.527  -0.853  0.00  0.00    +0.020 A 
ATOM     12  C   UNL     1      -4.787  -3.612  -1.712  0.00  0.00    +0.041 A 
ATOM     13  C   UNL     1      -3.588  -4.226  -2.028  0.00  0.00    +0.020 A 
ATOM     14  C   UNL     1      -2.407  -3.755  -1.486  0.00  0.00    +0.007 A 
ATOM     15 CL   UNL     1      -6.271  -4.202  -2.391  0.00  0.00    -0.084 Cl
ENDBRANCH   7   9
ENDBRANCH   4   7
BRANCH   1  16
ATOM     16  C   UNL     1       1.243   2.093  -0.014  0.00  0.00    +0.202 C 
BRANCH  16  18
ATOM     17  N   UNL     1       1.959   4.461   0.007  0.00  0.00    -0.284 N 
ATOM     18  C   UNL     1       0.947   3.571   0.009  0.00  0.00    +0.234 C 
ATOM     19  O   UNL     1      -0.202   3.959   0.029  0.00  0.00    -0.274 OA
ATOM     20  H   UNL     1       3.000   4.111   0.081  0.00  0.00    +0.155 HD
BRANCH  17  27
ATOM     21  C   UNL     1       3.868   6.287   1.063  0.00  0.00    +0.046 C 
ATOM     22  C   UNL     1       2.592   6.756   0.414  0.00  0.00    -0.028 A 
ATOM     23  C   UNL     1       2.323   8.107   0.314  0.00  0.00    +0.020 A 
ATOM     24  C   UNL     1       1.148   8.538  -0.277  0.00  0.00    +0.018 A 
ATOM     25  C   UNL     1       0.242   7.617  -0.774  0.00  0.00    +0.017 A 
ATOM     26  C   UNL     1       0.509   6.265  -0.681  0.00  0.00    +0.024 A 
ATOM     27  C   UNL     1       1.687   5.830  -0.088  0.00  0.00    +0.036 A 
ATOM     28 BR   UNL     1       0.780  10.388  -0.405  0.00  0.00    -0.050 Br
ENDBRANCH  17  27
ENDBRANCH  16  18
ENDBRANCH   1  16
TORSDOF 5
