REMARK  Name = ZINC35611995
REMARK  4 active torsions:
REMARK  status: ('A' for Active; 'I' for Inactive)
REMARK    1  A    between atoms: C_3  and  S_9
REMARK    2  A    between atoms: C_4  and  N_8
REMARK    3  A    between atoms: S_9  and  N_12
REMARK    4  A    between atoms: C_16  and  O_19
REMARK                            x       y       z     vdW  Elec       q    Type
REMARK                         _______ _______ _______ _____ _____    ______ ____
ROOT
ATOM      1  S   UNL     1       3.780   2.387   0.659  0.00  0.00    +0.063 S 
ATOM      2  O   UNL     1       4.726   1.955  -0.309  0.00  0.00    -0.153 OA
ATOM      3  O   UNL     1       3.427   3.754   0.821  0.00  0.00    -0.153 OA
ENDROOT
BRANCH   1   6
ATOM      4  C   UNL     1      -0.090   1.513   0.026  0.00  0.00    +0.017 A 
ATOM      5  C   UNL     1       1.083   2.196   0.288  0.00  0.00    +0.031 A 
ATOM      6  C   UNL     1       2.285   1.516   0.326  0.00  0.00    +0.126 A 
ATOM      7  C   UNL     1       2.314   0.145   0.101  0.00  0.00    +0.052 A 
ATOM      8  C   UNL     1       1.134  -0.537  -0.162  0.00  0.00    +0.040 A 
ATOM      9  C   UNL     1      -0.066   0.148  -0.199  0.00  0.00    +0.020 A 
ATOM     10 BR   UNL     1      -1.674  -0.780  -0.556  0.00  0.00    -0.050 Br
BRANCH   7  11
ATOM     11  N   UNL     1       3.528  -0.544   0.138  0.00  0.00    -0.356 N 
ATOM     12  H   UNL     1       4.364  -0.053   0.189  0.00  0.00    +0.142 HD
ATOM     13  H   UNL     1       3.536  -1.514   0.113  0.00  0.00    +0.142 HD
ENDBRANCH   7  11
ENDBRANCH   1   6
BRANCH   1  14
ATOM     14  N   UNL     1       4.335   1.864   2.129  0.00  0.00    -0.174 NA
ATOM     15  C   UNL     1       3.791   2.421   3.375  0.00  0.00    +0.109 C 
ATOM     16  C   UNL     1       3.312   1.268   4.263  0.00  0.00    +0.020 C 
ATOM     17  C   UNL     1       4.458   0.275   4.466  0.00  0.00    +0.034 C 
ATOM     18  C   UNL     1       4.882  -0.301   3.112  0.00  0.00    +0.130 C 
ATOM     19  C   UNL     1       5.375   0.830   2.212  0.00  0.00    +0.140 C 
BRANCH  18  20
ATOM     20  O   UNL     1       5.931  -1.252   3.306  0.00  0.00    -0.390 OA
ATOM     21  H   UNL     1       5.686  -1.998   3.870  0.00  0.00    +0.210 HD
ENDBRANCH  18  20
ENDBRANCH   1  14
TORSDOF 4
