REMARK  Name = ZINC52879201
REMARK  6 active torsions:
REMARK  status: ('A' for Active; 'I' for Inactive)
REMARK    1  A    between atoms: C_1  and  C_2
REMARK    2  A    between atoms: C_2  and  N_3
REMARK    3  A    between atoms: C_11  and  C_12
REMARK    4  A    between atoms: C_12  and  C_13
REMARK    5  A    between atoms: C_12  and  C_14
REMARK    6  A    between atoms: C_12  and  N_20
REMARK                            x       y       z     vdW  Elec       q    Type
REMARK                         _______ _______ _______ _____ _____    ______ ____
ROOT
ATOM      1  N   UNL     1      -1.415   0.219  -0.065  0.00  0.00    -0.326 N 
ATOM      2  C   UNL     1      -2.187   0.626   1.005  0.00  0.00    +0.069 A 
ATOM      3  C   UNL     1      -1.904   1.199   2.238  0.00  0.00    +0.029 A 
ATOM      4  C   UNL     1      -2.930   1.495   3.109  0.00  0.00    +0.017 A 
ATOM      5  C   UNL     1      -4.247   1.224   2.762  0.00  0.00    +0.020 A 
ATOM      6  C   UNL     1      -4.547   0.656   1.544  0.00  0.00    +0.045 A 
ATOM      7  C   UNL     1      -3.518   0.350   0.650  0.00  0.00    +0.090 A 
ATOM      8  N   UNL     1      -3.490  -0.200  -0.592  0.00  0.00    -0.230 NA
ATOM      9  C   UNL     1      -2.260  -0.271  -1.011  0.00  0.00    +0.135 A 
ATOM     10 BR   UNL     1      -5.640   1.637   3.973  0.00  0.00    -0.050 Br
ENDROOT
BRANCH   1  12
ATOM     11  C   UNL     1       0.442   1.703  -0.642  0.00  0.00    +0.027 C 
ATOM     12  C   UNL     1       0.044   0.304  -0.165  0.00  0.00    +0.120 C 
ENDBRANCH   1  12
BRANCH   9  13
ATOM     13  C   UNL     1      -1.835  -0.820  -2.348  0.00  0.00    +0.098 C 
ATOM     14  C   UNL     1      -1.065  -2.126  -2.142  0.00  0.00    +0.041 C 
BRANCH  13  15
ATOM     15  C   UNL     1      -3.054  -1.084  -3.194  0.00  0.00    -0.021 A 
ATOM     16  C   UNL     1      -4.119  -1.792  -2.670  0.00  0.00    +0.006 A 
ATOM     17  C   UNL     1      -5.237  -2.034  -3.445  0.00  0.00    +0.000 A 
ATOM     18  C   UNL     1      -5.290  -1.568  -4.746  0.00  0.00    +0.000 A 
ATOM     19  C   UNL     1      -4.225  -0.859  -5.270  0.00  0.00    +0.000 A 
ATOM     20  C   UNL     1      -3.109  -0.613  -4.493  0.00  0.00    +0.006 A 
ENDBRANCH  13  15
BRANCH  13  21
ATOM     21  N   UNL     1      -0.971   0.156  -3.026  0.00  0.00    -0.315 NA
ATOM     22  H   UNL     1      -1.417   1.060  -3.077  0.00  0.00    +0.119 HD
ATOM     23  H   UNL     1      -0.073   0.222  -2.570  0.00  0.00    +0.119 HD
ENDBRANCH  13  21
ENDBRANCH   9  13
TORSDOF 4
