REMARK  Name = ZINC08621448
REMARK  5 active torsions:
REMARK  status: ('A' for Active; 'I' for Inactive)
REMARK    1  A    between atoms: C_1  and  C_2
REMARK    2  A    between atoms: C_6  and  C_13
REMARK    3  A    between atoms: C_13  and  N_14
REMARK    4  A    between atoms: C_17  and  C_21
REMARK    5  A    between atoms: C_17  and  C_27
REMARK                            x       y       z     vdW  Elec       q    Type
REMARK                         _______ _______ _______ _____ _____    ______ ____
ROOT
ATOM      1  N   UNL     1      -1.397   0.870  -0.735  0.00  0.00    -0.219 N 
ATOM      2  C   UNL     1      -2.273   0.219  -1.525  0.00  0.00    +0.256 C 
ATOM      3  O   UNL     1      -3.018  -0.683  -1.206  0.00  0.00    -0.272 OA
ATOM      4  C   UNL     1      -2.136   0.851  -2.896  0.00  0.00    +0.164 C 
ATOM      5  N   UNL     1      -1.096   1.876  -2.702  0.00  0.00    -0.278 N 
ATOM      6  C   UNL     1      -0.727   1.810  -1.410  0.00  0.00    +0.310 C 
ATOM      7  O   UNL     1       0.120   2.526  -0.912  0.00  0.00    -0.252 OA
ATOM      8  H   UNL     1      -0.746   2.481  -3.375  0.00  0.00    +0.152 HD
ENDROOT
BRANCH   4   9
ATOM      9  C   UNL     1      -3.434   1.487  -3.323  0.00  0.00    -0.011 A 
ATOM     10  C   UNL     1      -3.425   2.712  -3.963  0.00  0.00    +0.006 A 
ATOM     11  C   UNL     1      -4.615   3.293  -4.359  0.00  0.00    +0.000 A 
ATOM     12  C   UNL     1      -5.815   2.654  -4.107  0.00  0.00    +0.000 A 
ATOM     13  C   UNL     1      -5.824   1.431  -3.462  0.00  0.00    +0.000 A 
ATOM     14  C   UNL     1      -4.633   0.848  -3.070  0.00  0.00    +0.006 A 
ENDBRANCH   4   9
BRANCH   4  15
ATOM     15  C   UNL     1      -1.690  -0.172  -3.909  0.00  0.00    -0.011 A 
ATOM     16  C   UNL     1      -2.450  -1.307  -4.125  0.00  0.00    +0.006 A 
ATOM     17  C   UNL     1      -2.043  -2.243  -5.057  0.00  0.00    +0.000 A 
ATOM     18  C   UNL     1      -0.872  -2.049  -5.766  0.00  0.00    +0.000 A 
ATOM     19  C   UNL     1      -0.110  -0.917  -5.545  0.00  0.00    +0.000 A 
ATOM     20  C   UNL     1      -0.519   0.021  -4.617  0.00  0.00    +0.006 A 
ENDBRANCH   4  15
BRANCH   1  21
ATOM     21  C   UNL     1      -1.199   0.579   0.688  0.00  0.00    +0.154 C 
BRANCH  21  27
ATOM     22  C   UNL     1      -2.561   0.785   7.193  0.00  0.00    +0.044 C 
ATOM     23  C   UNL     1      -2.447   0.958   5.700  0.00  0.00    -0.047 A 
ATOM     24  C   UNL     1      -1.583   0.147   4.979  0.00  0.00    +0.004 A 
ATOM     25  C   UNL     1      -1.467   0.289   3.624  0.00  0.00    +0.012 A 
ATOM     26  C   UNL     1      -2.226   1.260   2.962  0.00  0.00    +0.022 A 
ATOM     27  C   UNL     1      -2.124   1.438   1.510  0.00  0.00    -0.012 A 
ATOM     28  C   UNL     1      -2.882   2.401   0.928  0.00  0.00    +0.098 A 
ATOM     29  C   UNL     1      -3.745   3.189   1.721  0.00  0.00    +0.338 A 
ATOM     30  O   UNL     1      -4.424   4.048   1.186  0.00  0.00    -0.245 OA
ATOM     31  O   UNL     1      -3.833   3.020   3.049  0.00  0.00    -0.422 OA
ATOM     32  C   UNL     1      -3.102   2.083   3.690  0.00  0.00    +0.140 A 
ATOM     33  C   UNL     1      -3.204   1.921   5.066  0.00  0.00    +0.050 A 
ENDBRANCH  21  27
ENDBRANCH   1  21
TORSDOF 4
