REMARK  Name = ZINC63375756
REMARK  6 active torsions:
REMARK  status: ('A' for Active; 'I' for Inactive)
REMARK    1  A    between atoms: C_1  and  C_2
REMARK    2  A    between atoms: C_2  and  O_3
REMARK    3  A    between atoms: O_3  and  C_4
REMARK    4  A    between atoms: C_4  and  C_6
REMARK    5  A    between atoms: C_9  and  N_12
REMARK    6  A    between atoms: C_15  and  C_22
REMARK                            x       y       z     vdW  Elec       q    Type
REMARK                         _______ _______ _______ _____ _____    ______ ____
ROOT
ATOM      1  N   UNL     1       3.538  -3.962   5.749  0.00  0.00    -0.229 N 
ATOM      2  C   UNL     1       3.567  -5.296   5.935  0.00  0.00    +0.270 A 
ATOM      3  O   UNL     1       3.067  -6.042   5.111  0.00  0.00    -0.267 OA
ATOM      4  C   UNL     1       4.178  -5.822   7.087  0.00  0.00    +0.101 A 
ATOM      5  C   UNL     1       4.731  -4.967   7.994  0.00  0.00    +0.263 A 
ATOM      6  N   UNL     1       4.679  -3.615   7.765  0.00  0.00    -0.274 N 
ATOM      7  H   UNL     1       5.071  -3.003   8.407  0.00  0.00    +0.173 HD
ATOM      8  C   UNL     1       4.094  -3.134   6.653  0.00  0.00    +0.337 A 
ATOM      9  O   UNL     1       4.062  -1.933   6.464  0.00  0.00    -0.246 OA
ATOM     10  O   UNL     1       5.323  -5.446   9.108  0.00  0.00    -0.267 OA
ENDROOT
BRANCH   4  11
ATOM     11  C   UNL     1       4.222  -7.311   7.316  0.00  0.00    +0.121 C 
ATOM     12  C   UNL     1       3.592  -7.643   8.671  0.00  0.00    +0.128 C 
ATOM     13  C   UNL     1       4.510  -7.036   9.727  0.00  0.00    -0.035 C 
ATOM     14  C   UNL     1       3.746  -6.266  10.489  0.00  0.00    -0.001 A 
ATOM     15  C   UNL     1       4.037  -5.494  11.709  0.00  0.00    +0.010 A 
ATOM     16  C   UNL     1       3.000  -4.790  12.234  0.00  0.00    +0.001 A 
ATOM     17  C   UNL     1       1.718  -4.775  11.676  0.00  0.00    +0.002 A 
ATOM     18  C   UNL     1       1.360  -5.459  10.560  0.00  0.00    +0.026 A 
ATOM     19  C   UNL     1       2.364  -6.243   9.920  0.00  0.00    +0.043 A 
ATOM     20  N   UNL     1       2.285  -7.015   8.853  0.00  0.00    -0.376 N 
ATOM     21  C   UNL     1       6.000  -7.277   9.715  0.00  0.00    +0.048 C 
ATOM     22  C   UNL     1       6.464  -7.025   8.268  0.00  0.00    +0.086 C 
ATOM     23  N   UNL     1       5.620  -7.770   7.329  0.00  0.00    -0.307 NA
ATOM     24  H   UNL     1       5.673  -8.763   7.505  0.00  0.00    +0.123 HD
ATOM     25  H   UNL     1       1.509  -7.146   8.286  0.00  0.00    +0.160 HD
ENDBRANCH   4  11
BRANCH   1  29
ATOM     26  C   UNL     1       1.730  -2.388   2.339  0.00  0.00    +0.059 A 
ATOM     27  C   UNL     1       3.089  -2.715   2.324  0.00  0.00    +0.017 A 
ATOM     28  C   UNL     1       3.683  -3.234   3.453  0.00  0.00    +0.027 A 
ATOM     29  C   UNL     1       2.932  -3.434   4.606  0.00  0.00    +0.054 A 
ATOM     30  C   UNL     1       1.579  -3.111   4.625  0.00  0.00    +0.027 A 
ATOM     31  C   UNL     1       0.980  -2.585   3.503  0.00  0.00    +0.017 A 
BRANCH  26  32
ATOM     32  C   UNL     1       1.090  -1.832   1.133  0.00  0.00    +0.339 C 
ATOM     33  O   UNL     1      -0.091  -1.544   1.149  0.00  0.00    -0.245 OA
BRANCH  32  34
ATOM     34  O   UNL     1       1.814  -1.643   0.012  0.00  0.00    -0.461 OA
BRANCH  34  36
ATOM     35  C   UNL     1       2.107  -0.959  -2.287  0.00  0.00    +0.048 C 
ATOM     36  C   UNL     1       1.129  -1.100  -1.119  0.00  0.00    +0.229 C 
ENDBRANCH  34  36
ENDBRANCH  32  34
ENDBRANCH  26  32
ENDBRANCH   1  29
TORSDOF 5
