REMARK  Name = ZINC00523360
REMARK  5 active torsions:
REMARK  status: ('A' for Active; 'I' for Inactive)
REMARK    1  A    between atoms: C_1  and  N_2
REMARK    2  A    between atoms: N_11  and  N_12
REMARK    3  A    between atoms: N_12  and  S_13
REMARK    4  A    between atoms: S_13  and  C_16
REMARK    5  A    between atoms: C_19  and  N_22
REMARK                            x       y       z     vdW  Elec       q    Type
REMARK                         _______ _______ _______ _____ _____    ______ ____
ROOT
ATOM      1  N   UNL     1      -1.590   1.759   1.989  0.00  0.00    -0.134 N 
ATOM      2  H   UNL     1      -2.376   1.351   2.383  0.00  0.00    +0.197 HD
ENDROOT
BRANCH   1  13
ATOM      3  C   UNL     1      -3.620   2.176   3.672  0.00  0.00    +0.151 C 
ATOM      4  N   UNL     1      -2.647   3.040   4.344  0.00  0.00    -0.321 N 
ATOM      5  C   UNL     1      -2.968   3.648   5.549  0.00  0.00    +0.057 A 
ATOM      6  C   UNL     1      -4.175   3.543   6.259  0.00  0.00    +0.027 A 
ATOM      7  C   UNL     1      -4.357   4.213   7.447  0.00  0.00    +0.002 A 
ATOM      8  C   UNL     1      -3.360   5.010   7.980  0.00  0.00    +0.001 A 
ATOM      9  C   UNL     1      -2.159   5.132   7.301  0.00  0.00    +0.017 A 
ATOM     10  C   UNL     1      -1.978   4.462   6.114  0.00  0.00    +0.039 A 
ATOM     11  S   UNL     1      -0.631   4.351   4.961  0.00  0.00    -0.048 S 
ATOM     12  C   UNL     1      -1.397   3.252   3.782  0.00  0.00    +0.192 A 
ATOM     13  N   UNL     1      -0.909   2.774   2.674  0.00  0.00    -0.141 NA
ENDBRANCH   1  13
BRANCH   1  14
ATOM     14  S   UNL     1      -1.052   1.258   0.505  0.00  0.00    +0.087 S 
ATOM     15  O   UNL     1      -0.955   2.420  -0.306  0.00  0.00    -0.149 OA
ATOM     16  O   UNL     1      -1.849   0.139   0.141  0.00  0.00    -0.149 OA
BRANCH  14  17
ATOM     17  C   UNL     1       0.590   0.656   0.722  0.00  0.00    +0.110 A 
ATOM     18  C   UNL     1       1.664   1.518   0.586  0.00  0.00    +0.030 A 
ATOM     19  C   UNL     1       2.952   1.048   0.750  0.00  0.00    +0.024 A 
ATOM     20  C   UNL     1       3.169  -0.290   1.052  0.00  0.00    +0.025 A 
ATOM     21  C   UNL     1       2.089  -1.152   1.188  0.00  0.00    +0.024 A 
ATOM     22  C   UNL     1       0.803  -0.677   1.022  0.00  0.00    +0.030 A 
BRANCH  20  23
ATOM     23  N   UNL     1       4.471  -0.768   1.218  0.00  0.00    -0.358 N 
ATOM     24  H   UNL     1       4.622  -1.703   1.428  0.00  0.00    +0.142 HD
ATOM     25  H   UNL     1       5.225  -0.165   1.122  0.00  0.00    +0.142 HD
ENDBRANCH  20  23
ENDBRANCH  14  17
ENDBRANCH   1  14
TORSDOF 4
