REMARK  Name = ZINC62514800
REMARK  7 active torsions:
REMARK  status: ('A' for Active; 'I' for Inactive)
REMARK    1  A    between atoms: C_1  and  C_2
REMARK    2  A    between atoms: C_7  and  C_8
REMARK    3  A    between atoms: C_8  and  C_9
REMARK    4  A    between atoms: C_8  and  N_25
REMARK    5  A    between atoms: C_9  and  C_10
REMARK    6  A    between atoms: C_14  and  C_24
REMARK    7  A    between atoms: C_16  and  C_18
REMARK                            x       y       z     vdW  Elec       q    Type
REMARK                         _______ _______ _______ _____ _____    ______ ____
ROOT
ATOM      1  C   UNL     1       1.361   0.620   2.973  0.00  0.00    +0.123 C 
ENDROOT
BRANCH   1   2
ATOM      2  C   UNL     1       1.128   1.536   4.147  0.00  0.00    +0.218 C 
ATOM      3  O   UNL     1       0.004   1.711   4.566  0.00  0.00    -0.276 OA
ATOM      4  N   UNL     1       2.170   2.161   4.731  0.00  0.00    -0.296 N 
ATOM      5  C   UNL     1       3.542   1.970   4.236  0.00  0.00    +0.139 C 
ATOM      6  C   UNL     1       4.178   3.349   4.029  0.00  0.00    +0.133 C 
ATOM      7  O   UNL     1       4.036   4.118   5.226  0.00  0.00    -0.366 OA
ATOM      8  C   UNL     1       2.680   4.382   5.594  0.00  0.00    +0.166 C 
ATOM      9  C   UNL     1       1.967   3.060   5.878  0.00  0.00    +0.144 C 
ATOM     10  C   UNL     1       3.476   4.067   2.874  0.00  0.00    +0.039 C 
BRANCH   8  11
ATOM     11  C   UNL     1       2.653   5.246   6.829  0.00  0.00    -0.017 A 
ATOM     12  C   UNL     1       3.622   5.090   7.803  0.00  0.00    +0.006 A 
ATOM     13  C   UNL     1       3.597   5.883   8.935  0.00  0.00    +0.000 A 
ATOM     14  C   UNL     1       2.604   6.831   9.094  0.00  0.00    +0.000 A 
ATOM     15  C   UNL     1       1.636   6.987   8.119  0.00  0.00    +0.000 A 
ATOM     16  C   UNL     1       1.663   6.198   6.985  0.00  0.00    +0.006 A 
ENDBRANCH   8  11
ENDBRANCH   1   2
BRANCH   1  17
ATOM     17  C   UNL     1       0.024   0.044   2.503  0.00  0.00    +0.114 C 
BRANCH  17  24
ATOM     18  C   UNL     1      -2.230  -0.709   0.860  0.00  0.00    +0.044 C 
ATOM     19  C   UNL     1      -0.838  -1.133   0.469  0.00  0.00    -0.045 A 
ATOM     20  C   UNL     1      -0.639  -1.879  -0.678  0.00  0.00    +0.004 A 
ATOM     21  C   UNL     1       0.638  -2.268  -1.036  0.00  0.00    +0.000 A 
ATOM     22  C   UNL     1       1.716  -1.913  -0.247  0.00  0.00    +0.000 A 
ATOM     23  C   UNL     1       1.517  -1.167   0.900  0.00  0.00    +0.006 A 
ATOM     24  C   UNL     1       0.241  -0.774   1.255  0.00  0.00    -0.024 A 
ENDBRANCH  17  24
BRANCH  17  25
ATOM     25  N   UNL     1      -0.537  -0.808   3.554  0.00  0.00    -0.292 N 
ATOM     26  C   UNL     1       0.102  -1.937   3.920  0.00  0.00    +0.298 C 
ATOM     27  O   UNL     1       1.190  -2.201   3.444  0.00  0.00    -0.253 OA
ATOM     28  N   UNL     1      -0.464  -2.773   4.812  0.00  0.00    -0.313 N 
ATOM     29  H   UNL     1      -1.369  -0.560   3.987  0.00  0.00    +0.151 HD
ATOM     30  H   UNL     1      -1.331  -2.563   5.191  0.00  0.00    +0.146 HD
ATOM     31  H   UNL     1      -0.003  -3.586   5.075  0.00  0.00    +0.146 HD
ENDBRANCH  17  25
ENDBRANCH   1  17
TORSDOF 5
