REMARK  Name = ZINC45896312
REMARK  6 active torsions:
REMARK  status: ('A' for Active; 'I' for Inactive)
REMARK    1  A    between atoms: C_1  and  C_2
REMARK    2  A    between atoms: C_2  and  C_3
REMARK    3  A    between atoms: C_3  and  N_4
REMARK    4  A    between atoms: C_13  and  O_14
REMARK    5  A    between atoms: C_15  and  N_16
REMARK    6  A    between atoms: N_19  and  C_20
REMARK                            x       y       z     vdW  Elec       q    Type
REMARK                         _______ _______ _______ _____ _____    ______ ____
ROOT
ATOM      1  N   UNL     1       1.861  -1.679  -2.154  0.00  0.00    -0.382 N 
ATOM      2  C   UNL     1       0.889  -2.463  -2.572  0.00  0.00    +0.075 A 
ATOM      3  C   UNL     1       0.996  -3.937  -2.486  0.00  0.00    +0.042 A 
ATOM      4  C   UNL     1       2.129  -4.551  -1.960  0.00  0.00    +0.013 A 
ATOM      5  C   UNL     1       2.190  -5.928  -1.897  0.00  0.00    +0.001 A 
ATOM      6  C   UNL     1       1.131  -6.695  -2.356  0.00  0.00    +0.004 A 
ATOM      7  C   UNL     1       0.004  -6.096  -2.879  0.00  0.00    +0.047 A 
ATOM      8  C   UNL     1      -0.076  -4.712  -2.950  0.00  0.00    +0.141 A 
ATOM      9  O   UNL     1      -1.171  -4.107  -3.458  0.00  0.00    -0.424 OA
ATOM     10  C   UNL     1      -1.285  -2.772  -3.543  0.00  0.00    +0.309 A 
ATOM     11  C   UNL     1      -0.313  -1.928  -3.120  0.00  0.00    +0.140 A 
ATOM     12  H   UNL     1       2.614  -2.055  -1.671  0.00  0.00    +0.160 HD
ENDROOT
BRANCH  11  13
ATOM     13  N   UNL     1      -0.486  -0.533  -3.226  0.00  0.00    -0.262 N 
ATOM     14  C   UNL     1      -0.706   0.205  -2.120  0.00  0.00    +0.308 C 
ATOM     15  O   UNL     1      -0.828  -0.340  -1.040  0.00  0.00    -0.252 OA
ATOM     16  N   UNL     1      -0.791   1.547  -2.211  0.00  0.00    -0.269 N 
ATOM     17  H   UNL     1      -0.448  -0.104  -4.096  0.00  0.00    +0.157 HD
ATOM     18  H   UNL     1      -0.759   1.977  -3.080  0.00  0.00    +0.156 HD
BRANCH  16  19
ATOM     19  C   UNL     1      -0.924   2.321  -1.051  0.00  0.00    +0.038 A 
ATOM     20  C   UNL     1      -0.311   3.564  -0.971  0.00  0.00    +0.027 A 
ATOM     21  C   UNL     1      -0.442   4.329   0.173  0.00  0.00    +0.051 A 
ATOM     22  C   UNL     1      -1.185   3.857   1.243  0.00  0.00    +0.166 A 
ATOM     23  C   UNL     1      -1.801   2.610   1.166  0.00  0.00    +0.168 A 
ATOM     24  C   UNL     1      -1.674   1.847   0.017  0.00  0.00    +0.073 A 
ATOM     25  O   UNL     1      -2.464   2.378   2.336  0.00  0.00    -0.453 OA
ATOM     26  C   UNL     1      -1.912   3.311   3.283  0.00  0.00    +0.466 C 
ATOM     27  O   UNL     1      -1.462   4.406   2.463  0.00  0.00    -0.453 OA
ENDBRANCH  16  19
ENDBRANCH  11  13
BRANCH  10  28
ATOM     28  O   UNL     1      -2.417  -2.248  -4.066  0.00  0.00    -0.479 OA
ATOM     29  H   UNL     1      -3.066  -2.910  -4.341  0.00  0.00    +0.295 HD
ENDBRANCH  10  28
BRANCH   1  30
ATOM     30  C   UNL     1       1.806  -0.240  -2.419  0.00  0.00    +0.112 C 
BRANCH  30  32
ATOM     31  C   UNL     1       3.163   1.845  -2.655  0.00  0.00    +0.005 C 
ATOM     32  C   UNL     1       3.221   0.341  -2.378  0.00  0.00    +0.017 C 
ENDBRANCH  30  32
ENDBRANCH   1  30
TORSDOF 5
