REMARK  Name = ZINC67050300
REMARK  6 active torsions:
REMARK  status: ('A' for Active; 'I' for Inactive)
REMARK    1  A    between atoms: C_1  and  C_2
REMARK    2  A    between atoms: C_10  and  C_11
REMARK    3  A    between atoms: C_11  and  C_12
REMARK    4  A    between atoms: N_14  and  C_15
REMARK    5  A    between atoms: C_15  and  C_16
REMARK    6  A    between atoms: N_20  and  C_21
REMARK                            x       y       z     vdW  Elec       q    Type
REMARK                         _______ _______ _______ _____ _____    ______ ____
ROOT
ATOM      1  C   UNL     1       1.489  -5.643  -1.072  0.00  0.00    +0.218 C 
ATOM      2  O   UNL     1       2.400  -4.972  -0.637  0.00  0.00    -0.275 OA
ATOM      3  N   UNL     1       1.743  -6.649  -1.933  0.00  0.00    -0.308 N 
ATOM      4  H   UNL     1       1.014  -7.186  -2.281  0.00  0.00    +0.149 HD
ENDROOT
BRANCH   1   5
ATOM      5  C   UNL     1       0.071  -5.354  -0.650  0.00  0.00    +0.134 C 
BRANCH   5  15
ATOM      6  C   UNL     1      -0.018   1.503   0.010  0.00  0.00    +0.044 C 
ATOM      7  C   UNL     1       0.002  -0.004   0.002  0.00  0.00    -0.047 A 
ATOM      8  C   UNL     1       0.006  -0.684  -1.207  0.00  0.00    +0.004 A 
ATOM      9  C   UNL     1       0.024  -2.051  -1.233  0.00  0.00    +0.012 A 
ATOM     10  C   UNL     1       0.039  -2.764  -0.035  0.00  0.00    +0.024 A 
ATOM     11  C   UNL     1       0.036  -2.082   1.192  0.00  0.00    +0.135 A 
ATOM     12  C   UNL     1       0.023  -0.693   1.196  0.00  0.00    +0.050 A 
ATOM     13  O   UNL     1       0.053  -3.012   2.168  0.00  0.00    -0.463 OA
ATOM     14  C   UNL     1       0.068  -4.252   1.648  0.00  0.00    +0.200 A 
ATOM     15  C   UNL     1       0.060  -4.191   0.309  0.00  0.00    +0.007 A 
ENDBRANCH   5  15
ENDBRANCH   1   5
BRANCH   3  16
ATOM     16  C   UNL     1       3.121  -6.930  -2.344  0.00  0.00    +0.180 C 
BRANCH  16  17
ATOM     17  C   UNL     1       3.132  -8.093  -3.303  0.00  0.00    +0.149 A 
ATOM     18  N   UNL     1       2.089  -8.742  -3.710  0.00  0.00    -0.157 NA
ATOM     19  N   UNL     1       2.517  -9.747  -4.589  0.00  0.00    -0.254 N 
ATOM     20  C   UNL     1       3.861  -9.655  -4.679  0.00  0.00    +0.175 A 
ATOM     21  N   UNL     1       4.249  -8.632  -3.892  0.00  0.00    -0.309 N 
ATOM     22  C   UNL     1       5.627  -8.176  -3.695  0.00  0.00    +0.152 C 
ATOM     23  S   UNL     1       4.883 -10.651  -5.625  0.00  0.00    -0.011 S 
ATOM     24  H   UNL     1       1.953 -10.388  -5.048  0.00  0.00    +0.191 HD
ENDBRANCH  16  17
ENDBRANCH   3  16
TORSDOF 4
