REMARK  Name = ZINC07542836
REMARK  8 active torsions:
REMARK  status: ('A' for Active; 'I' for Inactive)
REMARK    1  A    between atoms: C_1  and  C_2
REMARK    2  A    between atoms: C_2  and  C_3
REMARK    3  A    between atoms: C_2  and  C_4
REMARK    4  A    between atoms: C_4  and  C_5
REMARK    5  A    between atoms: C_5  and  C_7
REMARK    6  A    between atoms: C_5  and  N_27
REMARK    7  A    between atoms: N_12  and  S_15
REMARK    8  A    between atoms: S_15  and  C_18
REMARK                            x       y       z     vdW  Elec       q    Type
REMARK                         _______ _______ _______ _____ _____    ______ ____
ROOT
ATOM      1  C   UNL     1      -3.264   3.305   1.266  0.00  0.00    +0.236 C 
ATOM      2  O   UNL     1      -2.997   2.282   1.860  0.00  0.00    -0.274 OA
ATOM      3  N   UNL     1      -4.257   4.101   1.708  0.00  0.00    -0.297 N 
ATOM      4  C   UNL     1      -4.587   5.347   1.002  0.00  0.00    +0.125 C 
ATOM      5  C   UNL     1      -6.081   5.317   0.637  0.00  0.00    +0.128 C 
ATOM      6  N   UNL     1      -6.849   4.958   1.837  0.00  0.00    -0.174 NA
ATOM      7  C   UNL     1      -6.516   3.714   2.546  0.00  0.00    +0.128 C 
ATOM      8  C   UNL     1      -5.025   3.742   2.908  0.00  0.00    +0.125 C 
ENDROOT
BRANCH   6   9
ATOM      9  S   UNL     1      -8.070   5.936   2.381  0.00  0.00    +0.061 S 
ATOM     10  O   UNL     1      -8.515   6.689   1.261  0.00  0.00    -0.153 OA
ATOM     11  O   UNL     1      -8.944   5.112   3.140  0.00  0.00    -0.153 OA
BRANCH   9  12
ATOM     12  C   UNL     1      -7.354   7.085   3.509  0.00  0.00    +0.106 A 
ATOM     13  C   UNL     1      -6.867   8.294   3.049  0.00  0.00    +0.029 A 
ATOM     14  C   UNL     1      -6.307   9.193   3.934  0.00  0.00    +0.006 A 
ATOM     15  C   UNL     1      -6.231   8.888   5.283  0.00  0.00    -0.044 A 
ATOM     16  C   UNL     1      -6.717   7.678   5.743  0.00  0.00    -0.042 A 
ATOM     17  C   UNL     1      -7.284   6.780   4.854  0.00  0.00    +0.032 A 
ATOM     18  C   UNL     1      -6.519   7.583   7.241  0.00  0.00    +0.036 C 
ATOM     19  C   UNL     1      -6.263   9.032   7.707  0.00  0.00    +0.009 C 
ATOM     20  C   UNL     1      -5.673   9.688   6.440  0.00  0.00    +0.036 C 
ENDBRANCH   9  12
ENDBRANCH   6   9
BRANCH   1  21
ATOM     21  C   UNL     1      -2.484   3.687   0.034  0.00  0.00    +0.161 C 
BRANCH  21  22
ATOM     22  N   UNL     1      -1.206   2.971   0.024  0.00  0.00    -0.288 N 
ATOM     23  C   UNL     1      -1.187   1.624   0.017  0.00  0.00    +0.298 C 
ATOM     24  O   UNL     1      -2.232   1.002   0.018  0.00  0.00    -0.253 OA
ATOM     25  N   UNL     1      -0.011   0.966   0.007  0.00  0.00    -0.313 N 
ATOM     26  H   UNL     1      -0.372   3.468   0.023  0.00  0.00    +0.151 HD
ATOM     27  H   UNL     1       0.002  -0.004   0.002  0.00  0.00    +0.146 HD
ATOM     28  H   UNL     1       0.822   1.462   0.002  0.00  0.00    +0.146 HD
ENDBRANCH  21  22
BRANCH  21  29
ATOM     29  C   UNL     1      -3.287   3.313  -1.214  0.00  0.00    +0.034 C 
BRANCH  29  31
ATOM     30  C   UNL     1      -3.291   3.331  -3.712  0.00  0.00    +0.007 C 
ATOM     31  C   UNL     1      -2.554   3.812  -2.461  0.00  0.00    -0.015 C 
ATOM     32  C   UNL     1      -2.512   5.341  -2.450  0.00  0.00    +0.007 C 
ENDBRANCH  29  31
ENDBRANCH  21  29
ENDBRANCH   1  21
TORSDOF 6
