REMARK  Name = ZINC59040737
REMARK  6 active torsions:
REMARK  status: ('A' for Active; 'I' for Inactive)
REMARK    1  A    between atoms: C_1  and  C_2
REMARK    2  A    between atoms: C_5  and  N_9
REMARK    3  A    between atoms: C_10  and  C_12
REMARK    4  A    between atoms: C_12  and  S_13
REMARK    5  A    between atoms: S_13  and  C_14
REMARK    6  A    between atoms: C_19  and  N_23
REMARK                            x       y       z     vdW  Elec       q    Type
REMARK                         _______ _______ _______ _____ _____    ______ ____
ROOT
ATOM      1  C   UNL     1      -0.136  -6.343  -1.190  0.00  0.00    +0.172 C 
ENDROOT
BRANCH   1   3
ATOM      2  N   UNL     1       0.057  -4.171  -0.023  0.00  0.00    -0.284 N 
ATOM      3  C   UNL     1      -0.042  -4.839  -1.189  0.00  0.00    +0.227 C 
ATOM      4  O   UNL     1      -0.055  -4.230  -2.238  0.00  0.00    -0.275 OA
ATOM      5  H   UNL     1       0.149  -4.660   0.810  0.00  0.00    +0.155 HD
BRANCH   2  10
ATOM      6  C   UNL     1      -0.063   1.502   0.016  0.00  0.00    +0.044 C 
ATOM      7  C   UNL     1      -0.031  -0.005   0.006  0.00  0.00    -0.049 A 
ATOM      8  C   UNL     1      -0.622  -0.701  -1.033  0.00  0.00    +0.005 A 
ATOM      9  C   UNL     1      -0.594  -2.081  -1.045  0.00  0.00    +0.024 A 
ATOM     10  C   UNL     1       0.028  -2.771  -0.013  0.00  0.00    +0.047 A 
ATOM     11  C   UNL     1       0.621  -2.070   1.029  0.00  0.00    +0.039 A 
ATOM     12  C   UNL     1       0.595  -0.688   1.032  0.00  0.00    +0.020 A 
ATOM     13 BR   UNL     1       1.470  -3.004   2.437  0.00  0.00    -0.048 Br
ENDBRANCH   2  10
ENDBRANCH   1   3
BRANCH   1  14
ATOM     14  S   UNL     1      -0.257  -6.940  -2.898  0.00  0.00    -0.089 S 
BRANCH  14  15
ATOM     15  C   UNL     1      -0.358  -8.691  -2.732  0.00  0.00    +0.136 A 
ATOM     16  N   UNL     1      -0.356  -9.416  -1.636  0.00  0.00    -0.233 NA
ATOM     17  C   UNL     1      -0.441 -10.766  -1.659  0.00  0.00    +0.080 A 
ATOM     18  C   UNL     1      -0.448 -11.657  -0.561  0.00  0.00    +0.031 A 
ATOM     19  C   UNL     1      -0.540 -13.010  -0.755  0.00  0.00    +0.025 A 
ATOM     20  C   UNL     1      -0.630 -13.556  -2.033  0.00  0.00    +0.026 A 
ATOM     21  C   UNL     1      -0.626 -12.707  -3.133  0.00  0.00    +0.040 A 
ATOM     22  C   UNL     1      -0.533 -11.352  -2.941  0.00  0.00    +0.042 A 
ATOM     23  S   UNL     1      -0.499  -9.933  -4.010  0.00  0.00    -0.061 S 
BRANCH  20  24
ATOM     24  N   UNL     1      -0.722 -14.941  -2.208  0.00  0.00    -0.358 N 
ATOM     25  H   UNL     1      -0.724 -15.528  -1.435  0.00  0.00    +0.142 HD
ATOM     26  H   UNL     1      -0.785 -15.315  -3.101  0.00  0.00    +0.142 HD
ENDBRANCH  20  24
ENDBRANCH  14  15
ENDBRANCH   1  14
TORSDOF 5
