REMARK  Name = ZINC09421725
REMARK  4 active torsions:
REMARK  status: ('A' for Active; 'I' for Inactive)
REMARK    1  A    between atoms: N_11  and  C_12
REMARK    2  A    between atoms: C_12  and  C_14
REMARK    3  A    between atoms: C_14  and  O_15
REMARK    4  A    between atoms: O_15  and  C_16
REMARK                            x       y       z     vdW  Elec       q    Type
REMARK                         _______ _______ _______ _____ _____    ______ ____
ROOT
ATOM      1  O   UNL     1       7.080  -4.253  -0.397  0.00  0.00    -0.483 OA
ENDROOT
BRANCH   1   2
ATOM      2  C   UNL     1       7.918  -5.314  -0.519  0.00  0.00    +0.125 A 
ATOM      3  C   UNL     1       7.397  -6.605  -0.541  0.00  0.00    +0.046 A 
ATOM      4  C   UNL     1       8.230  -7.681  -0.660  0.00  0.00    +0.018 A 
ATOM      5  C   UNL     1       9.611  -7.483  -0.761  0.00  0.00    +0.059 A 
ATOM      6  C   UNL     1      10.143  -6.182  -0.747  0.00  0.00    +0.135 A 
ATOM      7  C   UNL     1       9.284  -5.101  -0.626  0.00  0.00    +0.092 A 
ATOM      8  O   UNL     1      11.476  -5.977  -0.859  0.00  0.00    -0.484 OA
ATOM      9  C   UNL     1      12.364  -7.038  -0.509  0.00  0.00    +0.118 C 
ATOM     10  C   UNL     1      13.796  -6.656  -0.890  0.00  0.00    +0.048 C 
ATOM     11  C   UNL     1      14.202  -5.388  -0.135  0.00  0.00    +0.004 C 
ATOM     12  C   UNL     1      14.125  -5.645   1.371  0.00  0.00    +0.000 C 
ATOM     13  C   UNL     1      12.694  -6.029   1.752  0.00  0.00    +0.004 C 
ATOM     14  C   UNL     1      12.288  -7.296   0.997  0.00  0.00    +0.048 C 
ATOM     15  C   UNL     1      11.961  -8.312  -1.264  0.00  0.00    +0.127 C 
ATOM     16  C   UNL     1      10.527  -8.627  -0.880  0.00  0.00    +0.170 C 
ATOM     17  O   UNL     1      10.155  -9.765  -0.681  0.00  0.00    -0.292 OA
ENDBRANCH   1   2
BRANCH   1  18
ATOM     18  C   UNL     1       5.684  -4.538  -0.290  0.00  0.00    +0.326 C 
BRANCH  18  19
ATOM     19  C   UNL     1       4.916  -3.248  -0.162  0.00  0.00    +0.277 C 
ATOM     20  O   UNL     1       5.508  -2.186  -0.163  0.00  0.00    -0.270 OA
BRANCH  19  31
ATOM     21  C   UNL     1      -0.018   1.375  -0.018  0.00  0.00    +0.002 A 
ATOM     22  C   UNL     1       1.167   2.090  -0.015  0.00  0.00    +0.002 A 
ATOM     23  C   UNL     1       2.379   1.429  -0.020  0.00  0.00    +0.028 A 
ATOM     24  C   UNL     1       2.410   0.041  -0.029  0.00  0.00    +0.065 A 
ATOM     25  C   UNL     1       1.214  -0.680  -0.032  0.00  0.00    +0.065 A 
ATOM     26  C   UNL     1       0.001  -0.005  -0.027  0.00  0.00    +0.028 A 
ATOM     27  N   UNL     1       1.549  -2.030  -0.041  0.00  0.00    -0.326 N 
ATOM     28  H   UNL     1       0.924  -2.771  -0.045  0.00  0.00    +0.169 HD
ATOM     29  C   UNL     1       2.904  -2.132  -0.042  0.00  0.00    +0.199 A 
ATOM     30  N   UNL     1       3.447  -0.886  -0.035  0.00  0.00    -0.326 N 
ATOM     31  N   UNL     1       3.591  -3.271  -0.050  0.00  0.00    -0.144 NA
ATOM     32  H   UNL     1       4.394  -0.678  -0.035  0.00  0.00    +0.169 HD
ENDBRANCH  19  31
ENDBRANCH  18  19
ENDBRANCH   1  18
TORSDOF 4
