REMARK  Name = ZINC01794892
REMARK  5 active torsions:
REMARK  status: ('A' for Active; 'I' for Inactive)
REMARK    1  A    between atoms: C_5  and  C_7
REMARK    2  A    between atoms: C_13  and  C_28
REMARK    3  A    between atoms: C_14  and  C_21
REMARK    4  A    between atoms: C_16  and  C_19
REMARK    5  A    between atoms: C_17  and  N_18
REMARK                            x       y       z     vdW  Elec       q    Type
REMARK                         _______ _______ _______ _____ _____    ______ ____
ROOT
ATOM      1  C   UNL     1      -5.173   1.584   0.642  0.00  0.00    +0.030 C 
ATOM      2  C   UNL     1      -3.928   2.033   0.345  0.00  0.00    +0.080 A 
ATOM      3  C   UNL     1      -2.720   1.273   0.000  0.00  0.00    +0.271 A 
ATOM      4  O   UNL     1      -2.743   0.058  -0.052  0.00  0.00    -0.266 OA
ATOM      5  N   UNL     1      -1.587   1.954  -0.263  0.00  0.00    -0.257 N 
ATOM      6  C   UNL     1      -1.632   3.331  -0.179  0.00  0.00    +0.099 A 
ATOM      7  C   UNL     1      -0.572   4.148  -0.411  0.00  0.00    +0.057 C 
ATOM      8  C   UNL     1       0.755   3.516  -0.781  0.00  0.00    +0.102 C 
ATOM      9  C   UNL     1       0.765   2.002  -0.856  0.00  0.00    +0.079 C 
ATOM     10  C   UNL     1      -0.378   1.331  -0.596  0.00  0.00    +0.118 C 
ATOM     11  S   UNL     1      -3.315   3.708   0.269  0.00  0.00    -0.065 S 
ENDROOT
BRANCH   1  16
ATOM     12  C   UNL     1      -4.729  -2.000   1.647  0.00  0.00    +0.001 A 
ATOM     13  C   UNL     1      -5.872  -2.572   1.114  0.00  0.00    +0.001 A 
ATOM     14  C   UNL     1      -6.788  -1.795   0.427  0.00  0.00    +0.020 A 
ATOM     15  C   UNL     1      -6.569  -0.442   0.268  0.00  0.00    +0.048 A 
ATOM     16  C   UNL     1      -5.415   0.144   0.806  0.00  0.00    -0.005 A 
ATOM     17  C   UNL     1      -4.492  -0.651   1.494  0.00  0.00    +0.009 A 
ATOM     18 CL   UNL     1      -7.719   0.532  -0.594  0.00  0.00    -0.083 Cl
ENDBRANCH   1  16
BRANCH   8  19
ATOM     19  C   UNL     1       1.178   4.057  -2.122  0.00  0.00    -0.016 A 
ATOM     20  C   UNL     1       0.442   3.756  -3.252  0.00  0.00    +0.006 A 
ATOM     21  C   UNL     1       0.829   4.252  -4.483  0.00  0.00    +0.000 A 
ATOM     22  C   UNL     1       1.953   5.051  -4.584  0.00  0.00    +0.001 A 
ATOM     23  C   UNL     1       2.691   5.352  -3.455  0.00  0.00    +0.020 A 
ATOM     24  C   UNL     1       2.300   4.860  -2.222  0.00  0.00    +0.045 A 
ATOM     25 CL   UNL     1       3.221   5.245  -0.802  0.00  0.00    -0.083 Cl
ENDBRANCH   8  19
BRANCH   7  26
ATOM     26  C   UNL     1      -0.702   5.542  -0.311  0.00  0.00    +0.241 C 
ATOM     27  O   UNL     1      -1.777   6.034  -0.013  0.00  0.00    -0.271 OA
ATOM     28  N   UNL     1       0.361   6.337  -0.546  0.00  0.00    -0.326 N 
ATOM     29  H   UNL     1       0.259   7.430  -0.468  0.00  0.00    +0.145 HD
ATOM     30  H   UNL     1       1.331   5.893  -0.815  0.00  0.00    +0.145 HD
ENDBRANCH   7  26
BRANCH  10  31
ATOM     31  N   UNL     1      -0.354  -0.041  -0.667  0.00  0.00    -0.343 N 
ATOM     32  H   UNL     1       0.579  -0.562  -0.926  0.00  0.00    +0.144 HD
ATOM     33  H   UNL     1      -1.269  -0.618  -0.466  0.00  0.00    +0.144 HD
ENDBRANCH  10  31
BRANCH   9  34
ATOM     34  C   UNL     1       1.964   1.297  -1.195  0.00  0.00    +0.099 C 
ATOM     35  N   UNL     1       2.915   0.737  -1.465  0.00  0.00    -0.191 NA
ENDBRANCH   9  34
TORSDOF 5
