REMARK  Name = ZINC03341259
REMARK  7 active torsions:
REMARK  status: ('A' for Active; 'I' for Inactive)
REMARK    1  A    between atoms: C_9  and  C_10
REMARK    2  A    between atoms: C_9  and  C_12
REMARK    3  A    between atoms: C_12  and  C_14
REMARK    4  A    between atoms: C_14  and  O_15
REMARK    5  A    between atoms: O_15  and  C_16
REMARK    6  A    between atoms: C_16  and  C_18
REMARK    7  A    between atoms: C_18  and  C_19
REMARK                            x       y       z     vdW  Elec       q    Type
REMARK                         _______ _______ _______ _____ _____    ______ ____
ROOT
ATOM      1  C   UNL     1      -0.018   1.503   0.010  0.00  0.00    +0.312 C 
ENDROOT
BRANCH   1   2
ATOM      2  C   UNL     1       0.002  -0.004   0.002  0.00  0.00    +0.214 C 
ATOM      3  O   UNL     1       1.063  -0.598  -0.011  0.00  0.00    -0.288 OA
BRANCH   2  12
ATOM      4  C   UNL     1      -1.817  -6.649  -0.016  0.00  0.00    +0.002 A 
ATOM      5  C   UNL     1      -0.432  -6.631  -0.030  0.00  0.00    +0.002 A 
ATOM      6  C   UNL     1       0.248  -5.429  -0.030  0.00  0.00    +0.025 A 
ATOM      7  C   UNL     1      -0.459  -4.235  -0.016  0.00  0.00    +0.054 A 
ATOM      8  C   UNL     1      -1.855  -4.254  -0.003  0.00  0.00    +0.054 A 
ATOM      9  C   UNL     1      -2.530  -5.467  -0.003  0.00  0.00    +0.025 A 
ATOM     10  N   UNL     1      -2.282  -2.931   0.008  0.00  0.00    -0.300 N 
ATOM     11  C   UNL     1      -1.186  -2.129   0.002  0.00  0.00    +0.114 C 
ATOM     12  C   UNL     1      -1.205  -0.723   0.010  0.00  0.00    +0.133 C 
ATOM     13  N   UNL     1      -0.068  -2.901  -0.019  0.00  0.00    -0.300 N 
ATOM     14  H   UNL     1      -3.205  -2.631   0.018  0.00  0.00    +0.153 HD
ATOM     15  H   UNL     1       0.846  -2.576  -0.031  0.00  0.00    +0.153 HD
BRANCH  12  16
ATOM     16  C   UNL     1      -2.455  -0.024   0.025  0.00  0.00    +0.106 C 
ATOM     17  N   UNL     1      -3.446   0.530   0.038  0.00  0.00    -0.191 NA
ENDBRANCH  12  16
ENDBRANCH   2  12
ENDBRANCH   1   2
BRANCH   1  18
ATOM     18  O   UNL     1       1.344   2.005   0.000  0.00  0.00    -0.457 OA
BRANCH  18  19
ATOM     19  C   UNL     1       1.502   3.338   0.006  0.00  0.00    +0.309 C 
ATOM     20  O   UNL     1       0.534   4.061   0.019  0.00  0.00    -0.251 OA
BRANCH  19  21
ATOM     21  C   UNL     1       2.886   3.933  -0.004  0.00  0.00    +0.144 C 
BRANCH  21  22
ATOM     22  C   UNL     1       2.785   5.460   0.005  0.00  0.00    +0.148 C 
ATOM     23  C   UNL     1       4.164   6.059  -0.103  0.00  0.00    +0.231 C 
ATOM     24  O   UNL     1       4.547   6.434  -1.191  0.00  0.00    -0.274 OA
ATOM     25  N   UNL     1       4.980   6.196   0.937  0.00  0.00    -0.284 N 
ATOM     26  C   UNL     1       4.678   5.934   2.270  0.00  0.00    +0.047 A 
ATOM     27  C   UNL     1       5.716   5.782   3.184  0.00  0.00    +0.024 A 
ATOM     28  C   UNL     1       5.442   5.509   4.509  0.00  0.00    +0.002 A 
ATOM     29  C   UNL     1       4.136   5.386   4.944  0.00  0.00    +0.001 A 
ATOM     30  C   UNL     1       3.094   5.539   4.048  0.00  0.00    +0.016 A 
ATOM     31  C   UNL     1       3.363   5.813   2.717  0.00  0.00    +0.030 A 
ATOM     32  S   UNL     1       2.038   6.014   1.568  0.00  0.00    -0.110 S 
ATOM     33  H   UNL     1       5.878   6.512   0.748  0.00  0.00    +0.155 HD
ENDBRANCH  21  22
ENDBRANCH  19  21
ENDBRANCH  18  19
ENDBRANCH   1  18
TORSDOF 7
