REMARK  Name = ZINC42527329
REMARK  5 active torsions:
REMARK  status: ('A' for Active; 'I' for Inactive)
REMARK    1  A    between atoms: C_4  and  N_6
REMARK    2  A    between atoms: N_6  and  C_7
REMARK    3  A    between atoms: C_7  and  C_8
REMARK    4  A    between atoms: C_8  and  O_9
REMARK    5  A    between atoms: C_16  and  C_18
REMARK                            x       y       z     vdW  Elec       q    Type
REMARK                         _______ _______ _______ _____ _____    ______ ____
ROOT
ATOM      1  N   UNL     1       1.234  -1.152  -2.564  0.00  0.00    -0.280 N 
ATOM      2  C   UNL     1       0.924  -0.753  -3.813  0.00  0.00    +0.306 C 
ATOM      3  O   UNL     1       0.344   0.301  -3.988  0.00  0.00    -0.252 OA
ATOM      4  N   UNL     1       1.257  -1.522  -4.868  0.00  0.00    -0.262 N 
ATOM      5  C   UNL     1       1.666  -2.934  -4.703  0.00  0.00    +0.179 C 
ATOM      6  S   UNL     1       2.624  -3.214  -6.257  0.00  0.00    -0.139 S 
ATOM      7  C   UNL     1       1.669  -2.029  -7.306  0.00  0.00    +0.105 C 
ATOM      8  C   UNL     1       1.228  -1.010  -6.228  0.00  0.00    +0.201 C 
ENDROOT
BRANCH   1  12
ATOM      9  C   UNL     1      -1.653   0.596  -1.648  0.00  0.00    +0.002 C 
ATOM     10  C   UNL     1      -0.653   1.442  -0.822  0.00  0.00    +0.002 C 
ATOM     11  C   UNL     1       0.720   0.880  -1.268  0.00  0.00    +0.022 C 
ATOM     12  C   UNL     1       0.477  -0.635  -1.421  0.00  0.00    +0.078 C 
ATOM     13  C   UNL     1      -1.032  -0.816  -1.662  0.00  0.00    +0.022 C 
ENDBRANCH   1  12
BRANCH   8  14
ATOM     14  C   UNL     1      -0.175  -0.556  -6.538  0.00  0.00    +0.377 C 
ATOM     15  O   UNL     1      -0.401   0.077  -7.555  0.00  0.00    -0.244 OA
ATOM     16  O   UNL     1      -1.085  -0.823  -5.771  0.00  0.00    -0.244 OA
ENDBRANCH   8  14
BRANCH   1  17
ATOM     17  C   UNL     1       2.327  -2.103  -2.348  0.00  0.00    +0.137 C 
BRANCH  17  18
ATOM     18  C   UNL     1       1.753  -3.510  -2.175  0.00  0.00    +0.175 C 
BRANCH  18  19
ATOM     19  O   UNL     1       0.617  -3.670  -3.028  0.00  0.00    -0.393 OA
ATOM     20  H   UNL     1       0.201  -4.541  -2.970  0.00  0.00    +0.209 HD
ENDBRANCH  18  19
ENDBRANCH  17  18
ENDBRANCH   1  17
TORSDOF 5
