REMARK  Name = ZINC54380697
REMARK  3 active torsions:
REMARK  status: ('A' for Active; 'I' for Inactive)
REMARK    1  A    between atoms: C_3  and  O_9
REMARK    2  A    between atoms: O_9  and  C_10
REMARK    3  A    between atoms: C_11  and  C_16
REMARK                            x       y       z     vdW  Elec       q    Type
REMARK                         _______ _______ _______ _____ _____    ______ ____
ROOT
ATOM      1  C   UNL     1       3.481   3.457  -0.177  0.00  0.00    +0.250 A 
ATOM      2  C   UNL     1       4.660   4.213  -0.239  0.00  0.00    +0.163 A 
ATOM      3  N   UNL     1       4.590   5.540  -0.273  0.00  0.00    -0.245 NA
ATOM      4  C   UNL     1       3.416   6.139  -0.249  0.00  0.00    +0.131 A 
ATOM      5  C   UNL     1       2.250   5.391  -0.187  0.00  0.00    +0.134 A 
ATOM      6  N   UNL     1       2.306   4.071  -0.158  0.00  0.00    -0.218 NA
ENDROOT
BRANCH   2   7
ATOM      7  C   UNL     1       5.976   3.537  -0.266  0.00  0.00    +0.118 C 
ATOM      8  N   UNL     1       7.014   4.124  -0.859  0.00  0.00    -0.385 N 
ATOM      9  N   UNL     1       6.122   2.342   0.303  0.00  0.00    -0.343 N 
ATOM     10  H   UNL     1       6.891   4.959  -1.337  0.00  0.00    +0.157 HD
ATOM     11  H   UNL     1       5.366   1.914   0.734  0.00  0.00    +0.144 HD
ATOM     12  H   UNL     1       6.985   1.899   0.285  0.00  0.00    +0.144 HD
ATOM     13  H   UNL     1       7.893   3.717  -0.812  0.00  0.00    +0.157 HD
ENDBRANCH   2   7
BRANCH   1  14
ATOM     14  O   UNL     1       3.542   2.104  -0.142  0.00  0.00    -0.433 OA
BRANCH  14  17
ATOM     15  C   UNL     1       0.622   0.229   0.955  0.00  0.00    +0.019 A 
ATOM     16  C   UNL     1       1.811   0.932   0.995  0.00  0.00    +0.050 A 
ATOM     17  C   UNL     1       2.372   1.412  -0.179  0.00  0.00    +0.166 A 
ATOM     18  C   UNL     1       1.737   1.183  -1.394  0.00  0.00    +0.167 A 
ATOM     19  C   UNL     1       0.548   0.479  -1.428  0.00  0.00    +0.057 A 
ATOM     20  C   UNL     1      -0.009   0.002  -0.255  0.00  0.00    +0.021 A 
ATOM     21 BR   UNL     1      -1.635  -0.962  -0.304  0.00  0.00    -0.050 Br
ATOM     22  F   UNL     1       2.281   1.649  -2.539  0.00  0.00    -0.202 F 
ENDBRANCH  14  17
ENDBRANCH   1  14
TORSDOF 3
