REMARK  Name = ZINC50964268
REMARK  6 active torsions:
REMARK  status: ('A' for Active; 'I' for Inactive)
REMARK    1  A    between atoms: C_1  and  C_2
REMARK    2  A    between atoms: C_2  and  C_4
REMARK    3  A    between atoms: C_2  and  N_13
REMARK    4  A    between atoms: C_7  and  S_9
REMARK    5  A    between atoms: S_9  and  N_12
REMARK    6  A    between atoms: C_14  and  C_16
REMARK                            x       y       z     vdW  Elec       q    Type
REMARK                         _______ _______ _______ _____ _____    ______ ____
ROOT
ATOM      1  C   UNL     1      -0.019   1.526   0.010  0.00  0.00    +0.033 C 
ATOM      2  C   UNL     1       0.002  -0.004   0.002  0.00  0.00    +0.107 C 
ENDROOT
BRANCH   2   3
ATOM      3  C   UNL     1       0.731  -0.503   1.223  0.00  0.00    +0.012 A 
ATOM      4  C   UNL     1       0.222  -0.979   2.386  0.00  0.00    +0.015 A 
ATOM      5  C   UNL     1       1.091  -1.386   3.381  0.00  0.00    +0.037 A 
ATOM      6  C   UNL     1       2.426  -1.298   3.164  0.00  0.00    +0.142 A 
ATOM      7  S   UNL     1       2.489  -0.629   1.510  0.00  0.00    -0.072 S 
BRANCH   6   8
ATOM      8  S   UNL     1       3.755  -1.737   4.234  0.00  0.00    +0.062 S 
ATOM      9  O   UNL     1       4.880  -0.973   3.820  0.00  0.00    -0.153 OA
ATOM     10  O   UNL     1       3.245  -1.684   5.559  0.00  0.00    -0.153 OA
BRANCH   8  11
ATOM     11  N   UNL     1       4.124  -3.323   3.932  0.00  0.00    -0.203 NA
ATOM     12  H   UNL     1       3.626  -3.818   3.263  0.00  0.00    +0.144 HD
ATOM     13  H   UNL     1       4.837  -3.758   4.426  0.00  0.00    +0.144 HD
ENDBRANCH   8  11
ENDBRANCH   6   8
ENDBRANCH   2   3
BRANCH   2  14
ATOM     14  N   UNL     1       0.688  -0.476  -1.203  0.00  0.00    -0.306 N 
ATOM     15  C   UNL     1       0.006  -0.608  -2.358  0.00  0.00    +0.242 C 
ATOM     16  O   UNL     1      -1.175  -0.336  -2.400  0.00  0.00    -0.273 OA
ATOM     17  H   UNL     1       1.632  -0.695  -1.170  0.00  0.00    +0.149 HD
BRANCH  15  18
ATOM     18  C   UNL     1       0.712  -1.094  -3.598  0.00  0.00    +0.204 C 
ATOM     19  C   UNL     1       1.767  -0.069  -4.020  0.00  0.00    +0.041 C 
ATOM     20  C   UNL     1       2.438  -0.541  -5.314  0.00  0.00    +0.005 C 
ATOM     21  C   UNL     1       1.364  -0.745  -6.387  0.00  0.00    +0.028 C 
ATOM     22  C   UNL     1       0.324  -1.744  -5.874  0.00  0.00    +0.161 C 
ATOM     23  O   UNL     1      -0.238  -1.260  -4.653  0.00  0.00    -0.367 OA
ENDBRANCH  15  18
ENDBRANCH   2  14
TORSDOF 5
