REMARK  Name = ZINC39537554
REMARK  6 active torsions:
REMARK  status: ('A' for Active; 'I' for Inactive)
REMARK    1  A    between atoms: C_1  and  C_2
REMARK    2  A    between atoms: C_2  and  O_3
REMARK    3  A    between atoms: O_3  and  C_4
REMARK    4  A    between atoms: N_9  and  C_12
REMARK    5  A    between atoms: C_12  and  C_14
REMARK    6  A    between atoms: C_12  and  C_20
REMARK                            x       y       z     vdW  Elec       q    Type
REMARK                         _______ _______ _______ _____ _____    ______ ____
ROOT
ATOM      1  C   UNL     1       4.889  -3.699   4.332  0.00  0.00    +0.174 C 
ENDROOT
BRANCH   1   7
ATOM      2  C   UNL     1       0.801  -1.812   1.304  0.00  0.00    +0.403 C 
ATOM      3  O   UNL     1       0.321  -2.554   0.470  0.00  0.00    -0.226 OA
ATOM      4  N   UNL     1       1.441  -2.324   2.374  0.00  0.00    -0.265 N 
ATOM      5  C   UNL     1       2.023  -1.444   3.398  0.00  0.00    +0.126 C 
ATOM      6  C   UNL     1       3.480  -1.860   3.627  0.00  0.00    +0.104 C 
ATOM      7  N   UNL     1       3.533  -3.295   3.938  0.00  0.00    -0.285 NA
ATOM      8  C   UNL     1       3.050  -4.103   2.810  0.00  0.00    +0.104 C 
ATOM      9  C   UNL     1       1.570  -3.779   2.551  0.00  0.00    +0.126 C 
BRANCH   2  10
ATOM     10  O   UNL     1       0.693  -0.477   1.160  0.00  0.00    -0.451 OA
BRANCH  10  12
ATOM     11  C   UNL     1      -0.019   1.526   0.010  0.00  0.00    +0.048 C 
ATOM     12  C   UNL     1       0.002  -0.004   0.002  0.00  0.00    +0.230 C 
ENDBRANCH  10  12
ENDBRANCH   2  10
ENDBRANCH   1   7
BRANCH   1  13
ATOM     13  C   UNL     1       4.904  -5.173   4.643  0.00  0.00    -0.021 A 
ATOM     14  C   UNL     1       3.845  -5.747   5.321  0.00  0.00    +0.005 A 
ATOM     15  C   UNL     1       3.859  -7.100   5.606  0.00  0.00    +0.000 A 
ATOM     16  C   UNL     1       4.931  -7.879   5.212  0.00  0.00    +0.000 A 
ATOM     17  C   UNL     1       5.989  -7.305   4.533  0.00  0.00    +0.000 A 
ATOM     18  C   UNL     1       5.974  -5.953   4.244  0.00  0.00    +0.005 A 
ENDBRANCH   1  13
BRANCH   1  19
ATOM     19  C   UNL     1       5.309  -2.924   5.554  0.00  0.00    +0.232 C 
ATOM     20  O   UNL     1       4.553  -2.115   6.048  0.00  0.00    -0.274 OA
ATOM     21  N   UNL     1       6.525  -3.130   6.098  0.00  0.00    -0.328 N 
ATOM     22  H   UNL     1       7.130  -3.777   5.703  0.00  0.00    +0.145 HD
ATOM     23  H   UNL     1       6.795  -2.631   6.885  0.00  0.00    +0.145 HD
ENDBRANCH   1  19
TORSDOF 5
