REMARK  Name = ZINC20358035
REMARK  2 active torsions:
REMARK  status: ('A' for Active; 'I' for Inactive)
REMARK    1  A    between atoms: N_4  and  C_6
REMARK    2  A    between atoms: C_11  and  N_12
REMARK                            x       y       z     vdW  Elec       q    Type
REMARK                         _______ _______ _______ _____ _____    ______ ____
ROOT
ATOM      1  C   UNL     1       2.420   1.465  -0.013  0.00  0.00    +0.087 A 
ATOM      2  C   UNL     1       2.868   0.518   0.897  0.00  0.00    +0.046 A 
ATOM      3  C   UNL     1       4.199   0.124   0.841  0.00  0.00    +0.038 A 
ATOM      4  C   UNL     1       5.033   0.689  -0.105  0.00  0.00    +0.128 A 
ATOM      5  N   UNL     1       4.582   1.592  -0.956  0.00  0.00    -0.238 NA
ATOM      6  C   UNL     1       3.321   1.992  -0.941  0.00  0.00    +0.140 A 
ATOM      7 BR   UNL     1       4.864  -1.167   2.051  0.00  0.00    -0.049 Br
ENDROOT
BRANCH   1  11
ATOM      8  C   UNL     1      -0.688   3.195   0.025  0.00  0.00    +0.019 A 
ATOM      9  C   UNL     1      -1.116   1.852   0.017  0.00  0.00    +0.019 A 
ATOM     10  C   UNL     1      -0.013   1.076   0.008  0.00  0.00    +0.091 A 
ATOM     11  N   UNL     1       1.082   1.891   0.002  0.00  0.00    -0.320 N 
ATOM     12  C   UNL     1       0.660   3.190   0.012  0.00  0.00    +0.091 A 
ENDBRANCH   1  11
BRANCH   6  13
ATOM     13  N   UNL     1       2.889   2.946  -1.858  0.00  0.00    -0.342 N 
ATOM     14  H   UNL     1       3.595   3.365  -2.590  0.00  0.00    +0.144 HD
ATOM     15  H   UNL     1       1.842   3.282  -1.850  0.00  0.00    +0.144 HD
ENDBRANCH   6  13
TORSDOF 2
