REMARK  Name = ZINC40551463
REMARK  7 active torsions:
REMARK  status: ('A' for Active; 'I' for Inactive)
REMARK    1  A    between atoms: C_3  and  C_6
REMARK    2  A    between atoms: C_6  and  C_7
REMARK    3  A    between atoms: C_7  and  N_8
REMARK    4  A    between atoms: N_11  and  CA_12
REMARK    5  A    between atoms: CA_12  and  CB_14
REMARK    6  A    between atoms: CA_12  and  C_21
REMARK    7  A    between atoms: CB_14  and  CG_15
REMARK                            x       y       z     vdW  Elec       q    Type
REMARK                         _______ _______ _______ _____ _____    ______ ____
ROOT
ATOM      1  N   UNK A   0       5.633   2.506   1.403  0.00  0.00    -0.299 N 
ATOM      2  C   UNK A   0       6.279   2.728   2.565  0.00  0.00    +0.300 C 
ATOM      3  O   UNK A   0       5.717   2.517   3.623  0.00  0.00    -0.253 OA
ATOM      4  N   HIS A   1       7.547   3.184   2.555  0.00  0.00    -0.286 N 
ATOM      5  H   UNK A   0       6.082   2.674   0.560  0.00  0.00    +0.150 HD
ATOM      6  H   HIS A   1       7.995   3.352   1.712  0.00  0.00    +0.151 HD
ENDROOT
BRANCH   1   7
ATOM      7  C   UNK A   0       4.255   2.011   1.414  0.00  0.00    +0.111 C 
BRANCH   7   8
ATOM      8  C   UNK A   0       3.761   1.845  -0.024  0.00  0.00    +0.061 C 
BRANCH   8  11
ATOM      9  C   UNK A   0      -0.016   1.351   0.009  0.00  0.00    +0.008 A 
ATOM     10  C   UNK A   0       1.183   2.038   0.002  0.00  0.00    +0.011 A 
ATOM     11  C   UNK A   0       2.343   1.336  -0.013  0.00  0.00    -0.009 A 
ATOM     12  S   UNK A   0       1.754  -0.349  -0.017  0.00  0.00    -0.102 S 
ATOM     13  C   UNK A   0       0.002  -0.004   0.002  0.00  0.00    +0.045 A 
ENDBRANCH   8  11
ENDBRANCH   7   8
ENDBRANCH   1   7
BRANCH   4  14
ATOM     14  CA  HIS A   1       8.249   3.425   3.819  0.00  0.00    +0.193 C 
BRANCH  14  15
ATOM     15  C   HIS A   1       8.868   2.139   4.303  0.00  0.00    +0.376 C 
ATOM     16  O   HIS A   1       8.894   1.163   3.574  0.00  0.00    -0.244 OA
ATOM     17  OXT HIS A   1       9.342   2.075   5.424  0.00  0.00    -0.244 OA
ENDBRANCH  14  15
BRANCH  14  18
ATOM     18  CB  HIS A   1       9.346   4.469   3.601  0.00  0.00    +0.088 C 
BRANCH  18  19
ATOM     19  CG  HIS A   1       8.718   5.789   3.236  0.00  0.00    +0.035 A 
ATOM     20  CD2 HIS A   1       8.340   6.185   2.005  0.00  0.00    +0.105 A 
ATOM     21  NE2 HIS A   1       7.827   7.420   2.106  0.00  0.00    -0.352 N 
ATOM     22  HD1 HIS A   1       8.569   6.828   5.049  0.00  0.00    +0.166 HD
ATOM     23  CE1 HIS A   1       7.874   7.805   3.352  0.00  0.00    +0.171 A 
ATOM     24  ND1 HIS A   1       8.417   6.814   4.091  0.00  0.00    -0.350 N 
ATOM     25  HE2 HIS A   1       7.477   7.945   1.369  0.00  0.00    +0.166 HD
ENDBRANCH  18  19
ENDBRANCH  14  18
ENDBRANCH   4  14
TORSDOF 7
