REMARK  Name = ZINC43757636
REMARK  7 active torsions:
REMARK  status: ('A' for Active; 'I' for Inactive)
REMARK    1  A    between atoms: C_1  and  C_2
REMARK    2  A    between atoms: C_16  and  O_31
REMARK    3  A    between atoms: C_19  and  C_30
REMARK    4  A    between atoms: C_24  and  C_25
REMARK    5  A    between atoms: C_24  and  O_29
REMARK    6  A    between atoms: C_25  and  C_27
REMARK    7  A    between atoms: C_27  and  O_28
REMARK                            x       y       z     vdW  Elec       q    Type
REMARK                         _______ _______ _______ _____ _____    ______ ____
ROOT
ATOM      1  C   UNL     1      -0.096   1.948   0.042  0.00  0.00    +0.012 C 
ATOM      2  C   UNL     1      -0.320   0.427   0.026  0.00  0.00    -0.023 C 
ATOM      3  C   UNL     1      -1.840   0.226   0.130  0.00  0.00    +0.015 C 
ATOM      4  C   UNL     1      -2.193  -1.259   0.186  0.00  0.00    +0.075 C 
ATOM      5  C   UNL     1      -1.447  -1.866   1.356  0.00  0.00    +0.134 C 
ATOM      6  O   UNL     1      -2.023  -2.484   2.214  0.00  0.00    -0.297 OA
ATOM      7  C   UNL     1       0.050  -1.660   1.398  0.00  0.00    +0.078 C 
ATOM      8  C   UNL     1       0.358  -0.167   1.260  0.00  0.00    +0.002 C 
ATOM      9  C   UNL     1       1.875   0.010   1.144  0.00  0.00    +0.005 C 
ATOM     10  C   UNL     1       2.369  -0.794  -0.055  0.00  0.00    +0.004 C 
ATOM     11  C   UNL     1       1.722  -0.310  -1.349  0.00  0.00    -0.001 C 
ATOM     12  C   UNL     1       0.208  -0.194  -1.254  0.00  0.00    +0.027 C 
ATOM     13  C   UNL     1      -0.433   0.434  -2.483  0.00  0.00    +0.119 C 
ATOM     14  C   UNL     1       0.317   1.601  -3.115  0.00  0.00    +0.041 C 
ATOM     15  C   UNL     1       1.793   1.320  -3.233  0.00  0.00    +0.009 C 
ATOM     16  C   UNL     1       2.345   0.971  -1.830  0.00  0.00    +0.002 C 
ATOM     17  C   UNL     1       3.858   0.948  -2.092  0.00  0.00    +0.008 C 
ATOM     18  C   UNL     1       4.066   2.178  -3.017  0.00  0.00    +0.043 C 
ATOM     19  C   UNL     1       2.679   2.512  -3.623  0.00  0.00    +0.131 C 
ATOM     20  C   UNL     1       2.050   0.200  -4.242  0.00  0.00    +0.015 C 
ENDROOT
BRANCH  19  21
ATOM     21  C   UNL     1       2.771   2.616  -5.122  0.00  0.00    +0.190 C 
ATOM     22  O   UNL     1       3.694   2.102  -5.707  0.00  0.00    -0.292 OA
BRANCH  21  23
ATOM     23  C   UNL     1       1.713   3.363  -5.892  0.00  0.00    +0.233 C 
BRANCH  23  24
ATOM     24  O   UNL     1       2.021   3.322  -7.287  0.00  0.00    -0.387 OA
ATOM     25  H   UNL     1       1.380   3.784  -7.845  0.00  0.00    +0.210 HD
ENDBRANCH  23  24
ENDBRANCH  21  23
ENDBRANCH  19  21
BRANCH  19  26
ATOM     26  O   UNL     1       2.163   3.717  -3.063  0.00  0.00    -0.380 OA
ATOM     27  H   UNL     1       2.683   4.504  -3.277  0.00  0.00    +0.211 HD
ENDBRANCH  19  26
BRANCH  13  28
ATOM     28  O   UNL     1      -0.662  -0.588  -3.463  0.00  0.00    -0.391 OA
ATOM     29  H   UNL     1      -1.070  -0.267  -4.279  0.00  0.00    +0.210 HD
ENDBRANCH  13  28
TORSDOF 5
