REMARK  Name = ZINC49716053
REMARK  5 active torsions:
REMARK  status: ('A' for Active; 'I' for Inactive)
REMARK    1  A    between atoms: C_1  and  C_2
REMARK    2  A    between atoms: C_2  and  C_3
REMARK    3  A    between atoms: C_6  and  S_10
REMARK    4  A    between atoms: C_8  and  N_9
REMARK    5  A    between atoms: S_10  and  N_13
REMARK                            x       y       z     vdW  Elec       q    Type
REMARK                         _______ _______ _______ _____ _____    ______ ____
ROOT
ATOM      1  C   UNL     1      -1.412  -0.526   0.013  0.00  0.00    -0.027 A 
ATOM      2  C   UNL     1      -2.015  -0.864   1.208  0.00  0.00    +0.007 A 
ATOM      3  C   UNL     1      -3.312  -1.343   1.219  0.00  0.00    +0.029 A 
ATOM      4  C   UNL     1      -4.010  -1.485   0.034  0.00  0.00    +0.107 A 
ATOM      5  C   UNL     1      -3.413  -1.148  -1.165  0.00  0.00    +0.051 A 
ATOM      6  C   UNL     1      -2.112  -0.662  -1.179  0.00  0.00    +0.030 A 
ENDROOT
BRANCH   6   7
ATOM      7  N   UNL     1      -1.507  -0.315  -2.390  0.00  0.00    -0.358 N 
ATOM      8  H   UNL     1      -0.597   0.021  -2.398  0.00  0.00    +0.142 HD
ATOM      9  H   UNL     1      -1.997  -0.410  -3.221  0.00  0.00    +0.142 HD
ENDBRANCH   6   7
BRANCH   4  10
ATOM     10  S   UNL     1      -5.662  -2.096   0.053  0.00  0.00    +0.061 S 
ATOM     11  O   UNL     1      -5.905  -2.650  -1.233  0.00  0.00    -0.153 OA
ATOM     12  O   UNL     1      -5.801  -2.854   1.247  0.00  0.00    -0.153 OA
BRANCH  10  13
ATOM     13  N   UNL     1      -6.667  -0.788   0.202  0.00  0.00    -0.173 NA
ATOM     14  C   UNL     1      -7.147  -0.184   1.462  0.00  0.00    +0.113 C 
ATOM     15  C   UNL     1      -8.073   0.993   1.026  0.00  0.00    +0.006 C 
ATOM     16  C   UNL     1      -7.084   2.061   0.463  0.00  0.00    +0.006 C 
ATOM     17  C   UNL     1      -6.514   1.409  -0.819  0.00  0.00    +0.021 C 
ATOM     18  C   UNL     1      -7.257   0.013  -0.909  0.00  0.00    +0.080 C 
ATOM     19  C   UNL     1      -8.658   0.384  -0.299  0.00  0.00    +0.025 C 
ENDBRANCH  10  13
ENDBRANCH   4  10
BRANCH   1  21
ATOM     20  C   UNL     1      -0.019   1.526   0.010  0.00  0.00    +0.009 C 
ATOM     21  C   UNL     1       0.002  -0.004   0.002  0.00  0.00    +0.033 C 
ENDBRANCH   1  21
TORSDOF 4
