REMARK  Name = ZINC05438769
REMARK  5 active torsions:
REMARK  status: ('A' for Active; 'I' for Inactive)
REMARK    1  A    between atoms: C_1  and  C_2
REMARK    2  A    between atoms: C_5  and  C_26
REMARK    3  A    between atoms: C_6  and  N_8
REMARK    4  A    between atoms: C_9  and  C_11
REMARK    5  A    between atoms: C_14  and  N_18
REMARK                            x       y       z     vdW  Elec       q    Type
REMARK                         _______ _______ _______ _____ _____    ______ ____
ROOT
ATOM      1  C   UNL     1      -4.865   1.367   0.244  0.00  0.00    +0.055 A 
ATOM      2  C   UNL     1      -4.846  -0.031   0.236  0.00  0.00    +0.016 A 
ATOM      3  C   UNL     1      -6.014  -0.732   0.341  0.00  0.00    +0.025 A 
ATOM      4  C   UNL     1      -7.227  -0.059   0.457  0.00  0.00    +0.052 A 
ATOM      5  C   UNL     1      -7.258   1.332   0.466  0.00  0.00    +0.045 A 
ATOM      6  C   UNL     1      -6.083   2.046   0.365  0.00  0.00    +0.055 A 
ATOM      7 CL   UNL     1      -6.114   3.782   0.383  0.00  0.00    -0.083 Cl
ENDROOT
BRANCH   4   8
ATOM      8  N   UNL     1      -8.412  -0.779   0.563  0.00  0.00    -0.207 N 
ATOM      9  C   UNL     1      -9.598  -0.197   1.211  0.00  0.00    +0.131 C 
ATOM     10  C   UNL     1     -10.770  -0.210   0.232  0.00  0.00    +0.022 C 
ATOM     11  C   UNL     1     -11.169  -1.642  -0.115  0.00  0.00    +0.026 C 
ATOM     12  C   UNL     1     -10.085  -2.285  -0.989  0.00  0.00    +0.189 C 
ATOM     13  S   UNL     1      -8.536  -2.324  -0.044  0.00  0.00    +0.045 S 
ATOM     14  O   UNL     1      -7.426  -2.465  -0.920  0.00  0.00    -0.155 OA
ATOM     15  O   UNL     1      -8.676  -3.159   1.097  0.00  0.00    -0.155 OA
ENDBRANCH   4   8
BRANCH   1  17
ATOM     16  N   UNL     1      -2.433   1.468   0.021  0.00  0.00    -0.281 N 
ATOM     17  C   UNL     1      -3.605   2.124   0.132  0.00  0.00    +0.250 C 
ATOM     18  O   UNL     1      -3.623   3.340   0.139  0.00  0.00    -0.270 OA
ATOM     19  H   UNL     1      -2.424   0.502  -0.066  0.00  0.00    +0.155 HD
BRANCH  16  25
ATOM     20  C   UNL     1       0.099   5.479   1.311  0.00  0.00    +0.044 C 
ATOM     21  C   UNL     1       0.027   4.128   0.649  0.00  0.00    -0.049 A 
ATOM     22  C   UNL     1       1.150   3.593   0.044  0.00  0.00    +0.004 A 
ATOM     23  C   UNL     1       1.087   2.353  -0.565  0.00  0.00    +0.005 A 
ATOM     24  C   UNL     1      -0.098   1.644  -0.571  0.00  0.00    -0.029 A 
ATOM     25  C   UNL     1      -1.229   2.180   0.031  0.00  0.00    +0.037 A 
ATOM     26  C   UNL     1      -1.161   3.424   0.646  0.00  0.00    +0.027 A 
ATOM     27  C   UNL     1      -0.166   0.293  -1.235  0.00  0.00    +0.045 C 
ENDBRANCH  16  25
ENDBRANCH   1  17
TORSDOF 3
