REMARK  Name = ZINC03885362
REMARK  5 active torsions:
REMARK  status: ('A' for Active; 'I' for Inactive)
REMARK    1  A    between atoms: C_1  and  C_2
REMARK    2  A    between atoms: C_5  and  N_9
REMARK    3  A    between atoms: N_9  and  S_10
REMARK    4  A    between atoms: S_10  and  C_13
REMARK    5  A    between atoms: C_17  and  N_19
REMARK                            x       y       z     vdW  Elec       q    Type
REMARK                         _______ _______ _______ _____ _____    ______ ____
ROOT
ATOM      1  S   UNL     1       0.081  -0.000   0.082  0.00  0.00    +0.072 S 
ATOM      2  O   UNL     1      -1.238  -0.465   0.337  0.00  0.00    -0.150 OA
ATOM      3  O   UNL     1       0.831  -0.421  -1.049  0.00  0.00    -0.150 OA
ENDROOT
BRANCH   1   4
ATOM      4  C   UNL     1       1.041  -0.405   1.502  0.00  0.00    +0.110 A 
ATOM      5  C   UNL     1       2.421  -0.435   1.417  0.00  0.00    +0.030 A 
ATOM      6  C   UNL     1       3.179  -0.748   2.531  0.00  0.00    +0.024 A 
ATOM      7  C   UNL     1       2.558  -1.042   3.731  0.00  0.00    +0.062 A 
ATOM      8  C   UNL     1       1.171  -1.017   3.817  0.00  0.00    +0.045 A 
ATOM      9  C   UNL     1       0.414  -0.698   2.698  0.00  0.00    +0.053 A 
ATOM     10 CL   UNL     1       3.510  -1.440   5.127  0.00  0.00    -0.082 Cl
BRANCH   8  11
ATOM     11  N   UNL     1       0.540  -1.313   5.029  0.00  0.00    -0.357 N 
ATOM     12  H   UNL     1      -0.428  -1.295   5.088  0.00  0.00    +0.142 HD
ATOM     13  H   UNL     1       1.070  -1.536   5.810  0.00  0.00    +0.142 HD
ENDBRANCH   8  11
ENDBRANCH   1   4
BRANCH   1  14
ATOM     14  N   UNL     1      -0.006   1.652   0.004  0.00  0.00    -0.216 N 
ATOM     15  H   UNL     1       0.381   2.123  -0.750  0.00  0.00    +0.174 HD
BRANCH  14  20
ATOM     16  C   UNL     1      -2.553   4.554   4.158  0.00  0.00    +0.045 C 
ATOM     17  C   UNL     1      -1.877   3.783   3.054  0.00  0.00    -0.032 A 
ATOM     18  C   UNL     1      -2.475   2.649   2.537  0.00  0.00    +0.006 A 
ATOM     19  C   UNL     1      -1.861   1.943   1.521  0.00  0.00    +0.025 A 
ATOM     20  C   UNL     1      -0.633   2.367   1.027  0.00  0.00    +0.049 A 
ATOM     21  C   UNL     1      -0.034   3.506   1.548  0.00  0.00    +0.044 A 
ATOM     22  C   UNL     1      -0.657   4.211   2.561  0.00  0.00    +0.046 A 
ATOM     23 CL   UNL     1       0.092   5.635   3.214  0.00  0.00    -0.083 Cl
ENDBRANCH  14  20
ENDBRANCH   1  14
TORSDOF 4
