REMARK  Name = ZINC37163213
REMARK  5 active torsions:
REMARK  status: ('A' for Active; 'I' for Inactive)
REMARK    1  A    between atoms: C_1  and  C_2
REMARK    2  A    between atoms: C_2  and  C_4
REMARK    3  A    between atoms: C_2  and  N_16
REMARK    4  A    between atoms: N_16  and  C_17
REMARK    5  A    between atoms: C_17  and  C_18
REMARK                            x       y       z     vdW  Elec       q    Type
REMARK                         _______ _______ _______ _____ _____    ______ ____
ROOT
ATOM      1  C   UNL     1      -0.019   1.526   0.010  0.00  0.00    -0.009 C 
ATOM      2  C   UNL     1       0.002  -0.004   0.002  0.00  0.00    -0.044 C 
ENDROOT
BRANCH   2   3
ATOM      3  C   UNL     1      -1.412  -0.526   0.013  0.00  0.00    -0.060 A 
ATOM      4  C   UNL     1      -2.121  -0.570   1.201  0.00  0.00    +0.004 A 
ATOM      5  C   UNL     1      -3.417  -1.046   1.221  0.00  0.00    +0.028 A 
ATOM      6  C   UNL     1      -4.011  -1.482   0.046  0.00  0.00    +0.067 A 
ATOM      7  C   UNL     1      -3.295  -1.438  -1.153  0.00  0.00    +0.067 A 
ATOM      8  C   UNL     1      -1.996  -0.953  -1.164  0.00  0.00    +0.029 A 
ATOM      9  N   UNL     1      -4.139  -1.932  -2.144  0.00  0.00    -0.306 N 
ATOM     10  H   UNL     1      -3.918  -2.023  -3.084  0.00  0.00    +0.170 HD
ATOM     11  C   UNL     1      -5.314  -2.262  -1.575  0.00  0.00    +0.325 A 
ATOM     12  O   UNL     1      -6.272  -2.725  -2.165  0.00  0.00    -0.247 OA
ATOM     13  N   UNL     1      -5.267  -2.002  -0.255  0.00  0.00    -0.306 N 
ATOM     14  H   UNL     1      -5.986  -2.151   0.379  0.00  0.00    +0.170 HD
ENDBRANCH   2   3
BRANCH   2  15
ATOM     15  N   UNL     1       0.713  -0.491   1.192  0.00  0.00    +0.386 N 
ATOM     16  H   UNL     1       0.290  -0.099   2.020  0.00  0.00    -0.085 HD
ATOM     17  H   UNL     1       0.655  -1.497   1.230  0.00  0.00    -0.085 HD
BRANCH  15  18
ATOM     18  C   UNL     1       2.122  -0.083   1.122  0.00  0.00    -0.045 C 
BRANCH  18  19
ATOM     19  C   UNL     1       2.851  -0.582   2.343  0.00  0.00    -0.050 A 
ATOM     20  C   UNL     1       3.094   0.274   3.401  0.00  0.00    +0.003 A 
ATOM     21  C   UNL     1       3.763  -0.184   4.521  0.00  0.00    +0.000 A 
ATOM     22  C   UNL     1       4.188  -1.498   4.584  0.00  0.00    +0.001 A 
ATOM     23  C   UNL     1       3.944  -2.354   3.527  0.00  0.00    +0.015 A 
ATOM     24  C   UNL     1       3.271  -1.898   2.408  0.00  0.00    +0.019 A 
ATOM     25 BR   UNL     1       2.932  -3.071   0.964  0.00  0.00    -0.050 Br
ENDBRANCH  18  19
ENDBRANCH  15  18
ENDBRANCH   2  15
TORSDOF 4
