REMARK  Name = ZINC16579025
REMARK  6 active torsions:
REMARK  status: ('A' for Active; 'I' for Inactive)
REMARK    1  A    between atoms: C_1  and  S_2
REMARK    2  A    between atoms: S_2  and  N_5
REMARK    3  A    between atoms: N_5  and  C_6
REMARK    4  A    between atoms: C_9  and  S_12
REMARK    5  A    between atoms: S_12  and  N_15
REMARK    6  A    between atoms: N_15  and  C_16
REMARK                            x       y       z     vdW  Elec       q    Type
REMARK                         _______ _______ _______ _____ _____    ______ ____
ROOT
ATOM      1  C   UNL     1      -1.226   1.659  -0.207  0.00  0.00    +0.048 A 
ATOM      2  C   UNL     1      -1.453   2.892   0.392  0.00  0.00    +0.026 A 
ATOM      3  C   UNL     1      -2.648   3.551   0.178  0.00  0.00    +0.030 A 
ATOM      4  C   UNL     1      -3.621   2.981  -0.622  0.00  0.00    +0.105 A 
ATOM      5  C   UNL     1      -3.400   1.751  -1.214  0.00  0.00    +0.030 A 
ATOM      6  C   UNL     1      -2.205   1.089  -1.010  0.00  0.00    +0.026 A 
ENDROOT
BRANCH   4   7
ATOM      7  S   UNL     1      -5.146   3.823  -0.886  0.00  0.00    +0.059 S 
ATOM      8  O   UNL     1      -4.892   5.203  -0.664  0.00  0.00    -0.153 OA
ATOM      9  O   UNL     1      -5.673   3.333  -2.112  0.00  0.00    -0.153 OA
BRANCH   7  10
ATOM     10  N   UNL     1      -6.188   3.336   0.305  0.00  0.00    -0.187 NA
ATOM     11  H   UNL     1      -6.984   2.831   0.077  0.00  0.00    +0.148 HD
BRANCH  10  12
ATOM     12  C   UNL     1      -5.906   3.667   1.705  0.00  0.00    +0.077 C 
ATOM     13  C   UNL     1      -6.332   2.654   2.769  0.00  0.00    +0.022 C 
ATOM     14  C   UNL     1      -7.100   3.968   2.613  0.00  0.00    +0.022 C 
ENDBRANCH  10  12
ENDBRANCH   7  10
ENDBRANCH   4   7
BRANCH   1  15
ATOM     15  N   UNL     1      -0.017   0.992   0.003  0.00  0.00    -0.221 N 
ATOM     16  H   UNL     1      -0.016   0.044   0.210  0.00  0.00    +0.173 HD
BRANCH  15  18
ATOM     17  C   UNL     1       1.466   2.432  -1.814  0.00  0.00    +0.218 C 
ATOM     18  S   UNL     1       1.415   1.817  -0.108  0.00  0.00    +0.040 S 
ATOM     19  O   UNL     1       1.280   2.901   0.800  0.00  0.00    -0.155 OA
ATOM     20  O   UNL     1       2.418   0.829   0.086  0.00  0.00    -0.155 OA
ENDBRANCH  15  18
ENDBRANCH   1  15
TORSDOF 5
