REMARK  Name = ZINC67187362
REMARK  11 active torsions:
REMARK  status: ('A' for Active; 'I' for Inactive)
REMARK    1  A    between atoms: C_1  and  C_2
REMARK    2  A    between atoms: C_3  and  C_11
REMARK    3  A    between atoms: C_4  and  C_10
REMARK    4  A    between atoms: N_5  and  C_7
REMARK    5  A    between atoms: C_7  and  C_8
REMARK    6  A    between atoms: C_8  and  O_9
REMARK    7  A    between atoms: C_11  and  N_12
REMARK    8  A    between atoms: N_12  and  C_13
REMARK    9  A    between atoms: C_13  and  C_14
REMARK   10  A    between atoms: C_14  and  C_15
REMARK   11  A    between atoms: C_15  and  N_16
REMARK                            x       y       z     vdW  Elec       q    Type
REMARK                         _______ _______ _______ _____ _____    ______ ____
ROOT
ATOM      1  N   UNL     1       1.374  -0.169  -3.038  0.00  0.00    +0.382 N 
ATOM      2  H   UNL     1       1.843   0.513  -2.461  0.00  0.00    -0.085 HD
ATOM      3  H   UNL     1       1.863  -1.050  -2.981  0.00  0.00    -0.085 HD
ENDROOT
BRANCH   1   4
ATOM      4  C   UNL     1      -0.006  -0.343  -2.566  0.00  0.00    -0.043 C 
BRANCH   4   7
ATOM      5  C   UNL     1      -0.018   1.503   0.010  0.00  0.00    +0.068 C 
ATOM      6  C   UNL     1       0.002  -0.004   0.002  0.00  0.00    +0.062 A 
ATOM      7  C   UNL     1       0.008  -0.818  -1.135  0.00  0.00    -0.021 A 
ATOM      8  C   UNL     1       0.028  -2.107  -0.725  0.00  0.00    +0.038 A 
ATOM      9  N   UNL     1       0.034  -2.109   0.625  0.00  0.00    -0.266 N 
ATOM     10  N   UNL     1       0.023  -0.777   1.058  0.00  0.00    -0.176 NA
ATOM     11  C   UNL     1       0.040  -3.323  -1.615  0.00  0.00    +0.065 C 
BRANCH   9  12
ATOM     12  C   UNL     1       0.055  -3.295   1.485  0.00  0.00    +0.171 C 
BRANCH  12  13
ATOM     13  C   UNL     1       1.504  -3.688   1.777  0.00  0.00    +0.179 C 
BRANCH  13  14
ATOM     14  O   UNL     1       1.524  -4.844   2.616  0.00  0.00    -0.393 OA
ATOM     15  H   UNL     1       2.413  -5.150   2.843  0.00  0.00    +0.209 HD
ENDBRANCH  13  14
ENDBRANCH  12  13
ENDBRANCH   9  12
ENDBRANCH   4   7
ENDBRANCH   1   4
BRANCH   1  16
ATOM     16  C   UNL     1       1.360   0.294  -4.432  0.00  0.00    -0.081 C 
BRANCH  16  17
ATOM     17  C   UNL     1       2.798   0.475  -4.923  0.00  0.00    -0.004 C 
BRANCH  17  18
ATOM     18  C   UNL     1       2.784   0.957  -6.375  0.00  0.00    +0.082 C 
BRANCH  18  19
ATOM     19  N   UNL     1       4.164   1.131  -6.847  0.00  0.00    -0.299 NA
ATOM     20  C   UNL     1       4.837   2.214  -6.118  0.00  0.00    +0.103 C 
ATOM     21  C   UNL     1       6.319   2.244  -6.508  0.00  0.00    +0.123 C 
ATOM     22  N   UNL     1       6.414   2.327  -7.973  0.00  0.00    -0.297 N 
ATOM     23  C   UNL     1       5.655   1.357  -8.777  0.00  0.00    +0.123 C 
ATOM     24  C   UNL     1       4.199   1.362  -8.297  0.00  0.00    +0.103 C 
ATOM     25  C   UNL     1       7.199   3.292  -8.581  0.00  0.00    +0.218 A 
ATOM     26  N   UNL     1       7.874   4.146  -7.825  0.00  0.00    -0.223 NA
ATOM     27  C   UNL     1       8.634   5.080  -8.373  0.00  0.00    +0.116 A 
ATOM     28  C   UNL     1       8.717   5.158  -9.755  0.00  0.00    +0.039 A 
ATOM     29  C   UNL     1       7.998   4.250 -10.515  0.00  0.00    +0.116 A 
ATOM     30  N   UNL     1       7.261   3.337  -9.903  0.00  0.00    -0.223 NA
ENDBRANCH  18  19
ENDBRANCH  17  18
ENDBRANCH  16  17
ENDBRANCH   1  16
TORSDOF 9
