REMARK  Name = ZINC26507610
REMARK  1 active torsions:
REMARK  status: ('A' for Active; 'I' for Inactive)
REMARK    1  A    between atoms: C_6  and  C_7
REMARK                            x       y       z     vdW  Elec       q    Type
REMARK                         _______ _______ _______ _____ _____    ______ ____
ROOT
ATOM      1  C   UNL     1      -1.293  -0.775   0.011  0.00  0.00    +0.186 C 
ATOM      2  N   UNL     1      -2.333   0.001  -0.681  0.00  0.00    -0.219 NA
ATOM      3  N   UNL     1      -3.491  -0.717  -0.771  0.00  0.00    -0.260 N 
ATOM      4  C   UNL     1      -3.460  -2.061  -0.823  0.00  0.00    +0.158 C 
ATOM      5  S   UNL     1      -4.927  -2.934  -0.946  0.00  0.00    -0.016 S 
ATOM      6  N   UNL     1      -2.293  -2.730  -0.781  0.00  0.00    -0.260 N 
ATOM      7  N   UNL     1      -1.109  -2.055  -0.691  0.00  0.00    -0.219 NA
ATOM      8  H   UNL     1      -2.490   0.885  -0.221  0.00  0.00    +0.146 HD
ATOM      9  H   UNL     1      -4.344  -0.255  -0.797  0.00  0.00    +0.168 HD
ATOM     10  H   UNL     1      -2.293  -3.699  -0.814  0.00  0.00    +0.168 HD
ATOM     11  H   UNL     1      -0.705  -1.911  -1.604  0.00  0.00    +0.146 HD
ENDROOT
BRANCH   1  17
ATOM     12  C   UNL     1      -0.017   1.378   0.010  0.00  0.00    +0.008 A 
ATOM     13  C   UNL     1       1.171   2.086   0.002  0.00  0.00    +0.020 A 
ATOM     14  C   UNL     1       2.378   1.410  -0.013  0.00  0.00    +0.041 A 
ATOM     15  C   UNL     1       2.396   0.027  -0.021  0.00  0.00    +0.020 A 
ATOM     16  C   UNL     1       1.208  -0.679  -0.013  0.00  0.00    +0.008 A 
ATOM     17  C   UNL     1       0.002  -0.004   0.002  0.00  0.00    -0.013 A 
ATOM     18 CL   UNL     1       3.870   2.298  -0.023  0.00  0.00    -0.084 Cl
ENDBRANCH   1  17
TORSDOF 1
