REMARK  Name = ZINC56968320
REMARK  6 active torsions:
REMARK  status: ('A' for Active; 'I' for Inactive)
REMARK    1  A    between atoms: C_1  and  C_2
REMARK    2  A    between atoms: C_5  and  C_24
REMARK    3  A    between atoms: C_8  and  C_23
REMARK    4  A    between atoms: C_9  and  C_11
REMARK    5  A    between atoms: N_16  and  C_19
REMARK    6  A    between atoms: C_19  and  C_20
REMARK                            x       y       z     vdW  Elec       q    Type
REMARK                         _______ _______ _______ _____ _____    ______ ____
ROOT
ATOM      1  C   UNL     1       0.068  -1.578   4.791  0.00  0.00    +0.282 C 
ATOM      2  O   UNL     1       0.191  -0.572   5.463  0.00  0.00    -0.267 OA
ATOM      3  N   UNL     1      -0.012  -2.783   5.389  0.00  0.00    -0.293 N 
ATOM      4  C   UNL     1       0.002  -4.022   4.597  0.00  0.00    +0.123 C 
ATOM      5  C   UNL     1       1.067  -4.959   5.175  0.00  0.00    +0.104 C 
ATOM      6  N   UNL     1       0.824  -5.143   6.612  0.00  0.00    -0.291 NA
ATOM      7  C   UNL     1       0.956  -3.875   7.342  0.00  0.00    +0.104 C 
ATOM      8  C   UNL     1      -0.108  -2.894   6.853  0.00  0.00    +0.123 C 
ENDROOT
BRANCH   1  17
ATOM      9  C   UNL     1       0.509   1.440  -0.010  0.00  0.00    +0.044 C 
ATOM     10  C   UNL     1       0.159  -0.026  -0.005  0.00  0.00    -0.039 A 
ATOM     11  C   UNL     1      -0.061  -0.684  -1.182  0.00  0.00    +0.004 A 
ATOM     12  C   UNL     1      -0.383  -2.034  -1.185  0.00  0.00    +0.007 A 
ATOM     13  C   UNL     1      -0.487  -2.735  -0.003  0.00  0.00    -0.008 A 
ATOM     14  C   UNL     1      -0.268  -2.088   1.208  0.00  0.00    +0.139 A 
ATOM     15  C   UNL     1       0.064  -0.720   1.204  0.00  0.00    +0.027 A 
ATOM     16  C   UNL     1       0.234  -0.349   2.608  0.00  0.00    +0.008 A 
ATOM     17  C   UNL     1       0.006  -1.479   3.326  0.00  0.00    +0.194 A 
ATOM     18  O   UNL     1      -0.296  -2.496   2.491  0.00  0.00    -0.450 OA
ATOM     19  C   UNL     1       0.590   1.011   3.150  0.00  0.00    +0.048 C 
ATOM     20  C   UNL     1      -0.838  -4.200  -0.022  0.00  0.00    +0.047 C 
ENDBRANCH   1  17
BRANCH   6  21
ATOM     21  C   UNL     1       1.718  -6.167   7.170  0.00  0.00    +0.180 C 
BRANCH  21  22
ATOM     22  C   UNL     1       1.281  -6.505   8.572  0.00  0.00    +0.225 C 
ATOM     23  O   UNL     1       0.320  -5.948   9.059  0.00  0.00    -0.275 OA
ATOM     24  N   UNL     1       1.958  -7.426   9.285  0.00  0.00    -0.328 N 
ATOM     25  H   UNL     1       2.727  -7.872   8.896  0.00  0.00    +0.145 HD
ATOM     26  H   UNL     1       1.677  -7.644  10.188  0.00  0.00    +0.145 HD
ENDBRANCH  21  22
ENDBRANCH   6  21
TORSDOF 3
