REMARK  Name = ZINC10004165
REMARK  7 active torsions:
REMARK  status: ('A' for Active; 'I' for Inactive)
REMARK    1  A    between atoms: C_5  and  C_7
REMARK    2  A    between atoms: N_8  and  N_9
REMARK    3  A    between atoms: N_18  and  C1*_19
REMARK    4  A    between atoms: C2*_21  and  O2*_31
REMARK    5  A    between atoms: C3*_23  and  O3*_30
REMARK    6  A    between atoms: C4*_25  and  C5*_28
REMARK    7  A    between atoms: C5*_28  and  O5*_29
REMARK                            x       y       z     vdW  Elec       q    Type
REMARK                         _______ _______ _______ _____ _____    ______ ____
ROOT
ATOM      1  N   UNL     1      -0.987   4.364   1.874  0.00  0.00    -0.206 N 
ATOM      2  C   UNL     1      -2.231   3.857   2.192  0.00  0.00    +0.220 A 
ATOM      3  N   UNL     1      -3.095   4.427   2.995  0.00  0.00    -0.208 NA
ATOM      4  C   UNL     1      -4.209   3.659   3.076  0.00  0.00    +0.149 A 
ATOM      5  C   UNL     1      -5.431   3.765   3.761  0.00  0.00    +0.147 A 
ATOM      6  N   UNL     1      -6.330   2.799   3.607  0.00  0.00    -0.219 NA
ATOM      7  C   UNL     1      -6.089   1.758   2.830  0.00  0.00    +0.225 A 
ATOM      8  N   UNL     1      -4.959   1.617   2.170  0.00  0.00    -0.216 NA
ATOM      9  C   UNL     1      -4.001   2.534   2.262  0.00  0.00    +0.169 A 
ATOM     10  N   UNL     1      -2.746   2.680   1.719  0.00  0.00    -0.266 N 
ATOM     11  N   UNL     1      -5.693   4.853   4.578  0.00  0.00    -0.341 N 
ATOM     12  H   UNL     1      -0.404   3.877   1.271  0.00  0.00    +0.177 HD
ATOM     13  H   UNL     1      -6.502   5.336   4.242  0.00  0.00    +0.144 HD
ATOM     14  H   UNL     1      -5.029   5.552   4.682  0.00  0.00    +0.144 HD
ENDROOT
BRANCH  10  15
ATOM     15  C1* UNL     1      -2.085   1.752   0.799  0.00  0.00    +0.255 C 
ATOM     16  C2* UNL     1      -1.990   2.365  -0.621  0.00  0.00    +0.195 C 
ATOM     17  C3* UNL     1      -0.778   1.606  -1.224  0.00  0.00    +0.178 C 
ATOM     18  C4* UNL     1      -0.013   1.086   0.008  0.00  0.00    +0.177 C 
ATOM     19  O4* UNL     1      -0.705   1.559   1.176  0.00  0.00    -0.346 OA
BRANCH  17  20
ATOM     20  O3* UNL     1      -1.222   0.516  -2.034  0.00  0.00    -0.386 OA
ATOM     21  H3* UNL     1      -0.505  -0.029  -2.387  0.00  0.00    +0.210 HD
ENDBRANCH  17  20
BRANCH  16  22
ATOM     22  O2* UNL     1      -1.729   3.768  -0.554  0.00  0.00    -0.385 OA
ATOM     23  H2* UNL     1      -1.661   4.198  -1.418  0.00  0.00    +0.210 HD
ENDBRANCH  16  22
BRANCH  18  24
ATOM     24  C5* UNL     1       1.419   1.625  -0.003  0.00  0.00    +0.190 C 
BRANCH  24  25
ATOM     25  O5* UNL     1       2.152   1.052   1.081  0.00  0.00    -0.392 OA
ATOM     26  H5* UNL     1       3.071   1.350   1.136  0.00  0.00    +0.210 HD
ENDBRANCH  24  25
ENDBRANCH  18  24
ENDBRANCH  10  15
BRANCH   1  28
ATOM     27  C   UNL     1       0.603   6.060   2.122  0.00  0.00    +0.139 C 
ATOM     28  N   UNL     1      -0.567   5.583   2.421  0.00  0.00    -0.188 NA
BRANCH  27  33
ATOM     29  C   UNL     1       2.711   9.060   2.922  0.00  0.00    +0.001 A 
ATOM     30  C   UNL     1       1.877   9.754   3.781  0.00  0.00    +0.001 A 
ATOM     31  C   UNL     1       0.629   9.250   4.103  0.00  0.00    +0.020 A 
ATOM     32  C   UNL     1       0.206   8.051   3.563  0.00  0.00    +0.050 A 
ATOM     33  C   UNL     1       1.045   7.343   2.699  0.00  0.00    +0.013 A 
ATOM     34  C   UNL     1       2.304   7.859   2.379  0.00  0.00    +0.011 A 
ATOM     35 CL   UNL     1      -1.363   7.423   3.962  0.00  0.00    -0.083 Cl
ENDBRANCH  27  33
ENDBRANCH   1  28
TORSDOF 7
