REMARK  Name = ZINC40347488
REMARK  5 active torsions:
REMARK  status: ('A' for Active; 'I' for Inactive)
REMARK    1  A    between atoms: C_4  and  C_8
REMARK    2  A    between atoms: C_8  and  N_9
REMARK    3  A    between atoms: N_9  and  S_10
REMARK    4  A    between atoms: S_10  and  C_13
REMARK    5  A    between atoms: C_18  and  N_19
REMARK                            x       y       z     vdW  Elec       q    Type
REMARK                         _______ _______ _______ _____ _____    ______ ____
ROOT
ATOM      1  S   UNL     1       5.447  -1.901   1.745  0.00  0.00    +0.060 S 
ATOM      2  O   UNL     1       5.771  -1.859   3.128  0.00  0.00    -0.153 OA
ATOM      3  O   UNL     1       4.947  -3.072   1.115  0.00  0.00    -0.153 OA
ENDROOT
BRANCH   1   4
ATOM      4  C   UNL     1       6.908  -1.444   0.871  0.00  0.00    +0.127 A 
ATOM      5  C   UNL     1       7.359  -2.224  -0.175  0.00  0.00    +0.050 A 
ATOM      6  C   UNL     1       8.506  -1.865  -0.862  0.00  0.00    +0.043 A 
ATOM      7  C   UNL     1       9.204  -0.726  -0.502  0.00  0.00    +0.022 A 
ATOM      8  C   UNL     1       8.757   0.057   0.544  0.00  0.00    +0.026 A 
ATOM      9  C   UNL     1       7.603  -0.297   1.231  0.00  0.00    +0.051 A 
ATOM     10 CL   UNL     1       9.071  -2.848  -2.177  0.00  0.00    -0.083 Cl
BRANCH   9  11
ATOM     11  N   UNL     1       7.145   0.497   2.286  0.00  0.00    -0.356 N 
ATOM     12  H   UNL     1       6.295   0.298   2.709  0.00  0.00    +0.142 HD
ATOM     13  H   UNL     1       7.677   1.247   2.595  0.00  0.00    +0.142 HD
ENDBRANCH   9  11
ENDBRANCH   1   4
BRANCH   1  14
ATOM     14  N   UNL     1       4.328  -0.708   1.484  0.00  0.00    -0.186 NA
ATOM     15  H   UNL     1       4.016  -0.166   2.225  0.00  0.00    +0.148 HD
BRANCH  14  16
ATOM     16  C   UNL     1       3.809  -0.473   0.135  0.00  0.00    +0.142 C 
BRANCH  16  20
ATOM     17  C   UNL     1       0.279   1.926   0.364  0.00  0.00    +0.039 A 
ATOM     18  C   UNL     1       1.525   2.518   0.451  0.00  0.00    +0.018 A 
ATOM     19  C   UNL     1       2.667   1.742   0.377  0.00  0.00    +0.022 A 
ATOM     20  C   UNL     1       2.564   0.372   0.216  0.00  0.00    -0.015 A 
ATOM     21  C   UNL     1       1.319  -0.222   0.129  0.00  0.00    +0.044 A 
ATOM     22  C   UNL     1       0.175   0.555   0.203  0.00  0.00    +0.124 A 
ATOM     23  F   UNL     1      -1.042  -0.025   0.118  0.00  0.00    -0.205 F 
ATOM     24 BR   UNL     1       4.371   2.553   0.496  0.00  0.00    -0.050 Br
ENDBRANCH  16  20
ENDBRANCH  14  16
ENDBRANCH   1  14
TORSDOF 5
