REMARK  Name = ZINC09820169
REMARK  7 active torsions:
REMARK  status: ('A' for Active; 'I' for Inactive)
REMARK    1  A    between atoms: C_1  and  C_2
REMARK    2  A    between atoms: N_4  and  C_5
REMARK    3  A    between atoms: C_8  and  S_11
REMARK    4  A    between atoms: S_11  and  N_14
REMARK    5  A    between atoms: C_17  and  C_20
REMARK    6  A    between atoms: C_20  and  C_21
REMARK    7  A    between atoms: N_23  and  C_24
REMARK                            x       y       z     vdW  Elec       q    Type
REMARK                         _______ _______ _______ _____ _____    ______ ____
ROOT
ATOM      1  N   UNL     1      -0.172   8.821   0.798  0.00  0.00    -0.103 NA
ATOM      2  C   UNL     1       0.818   8.523   1.722  0.00  0.00    +0.192 A 
ATOM      3  N   UNL     1       0.895   8.867   2.994  0.00  0.00    -0.336 N 
ATOM      4  C   UNL     1       1.916   8.493   3.741  0.00  0.00    +0.033 A 
ATOM      5  C   UNL     1       2.896   7.752   3.171  0.00  0.00    +0.070 A 
ATOM      6  S   UNL     1       2.277   7.609   1.502  0.00  0.00    -0.057 S 
ATOM      7  H   UNL     1       0.100   9.477   3.448  0.00  0.00    +0.168 HD
ENDROOT
BRANCH   1   8
ATOM      8  S   UNL     1      -0.041   8.275  -0.760  0.00  0.00    +0.101 S 
ATOM      9  O   UNL     1       1.270   8.607  -1.197  0.00  0.00    -0.146 OA
ATOM     10  O   UNL     1      -1.206   8.715  -1.444  0.00  0.00    -0.146 OA
BRANCH   8  14
ATOM     11  C   UNL     1      -0.251   3.753  -0.619  0.00  0.00    +0.033 A 
ATOM     12  C   UNL     1       0.975   4.396  -0.515  0.00  0.00    +0.025 A 
ATOM     13  C   UNL     1       1.037   5.776  -0.564  0.00  0.00    +0.031 A 
ATOM     14  C   UNL     1      -0.123   6.516  -0.705  0.00  0.00    +0.113 A 
ATOM     15  C   UNL     1      -1.346   5.879  -0.802  0.00  0.00    +0.031 A 
ATOM     16  C   UNL     1      -1.414   4.500  -0.759  0.00  0.00    +0.025 A 
BRANCH  11  20
ATOM     17  C   UNL     1      -1.230   0.194  -1.355  0.00  0.00    +0.109 C 
ATOM     18  C   UNL     1      -1.227   1.701  -1.322  0.00  0.00    +0.214 C 
ATOM     19  O   UNL     1      -2.048   2.323  -1.962  0.00  0.00    -0.276 OA
ATOM     20  N   UNL     1      -0.316   2.356  -0.575  0.00  0.00    -0.286 N 
ATOM     21  H   UNL     1       0.376   1.793   0.068  0.00  0.00    +0.155 HD
ENDBRANCH  11  20
ENDBRANCH   8  14
ENDBRANCH   1   8
BRANCH   4  22
ATOM     22  C   UNL     1       1.993   8.886   5.194  0.00  0.00    +0.149 C 
BRANCH  22  23
ATOM     23  C   UNL     1       1.873  10.383   5.316  0.00  0.00    +0.223 C 
ATOM     24  O   UNL     1       1.739  11.064   4.321  0.00  0.00    -0.275 OA
ATOM     25  N   UNL     1       1.915  10.966   6.531  0.00  0.00    -0.285 N 
ATOM     26  H   UNL     1       2.121  10.359   7.425  0.00  0.00    +0.155 HD
BRANCH  25  27
ATOM     27  C   UNL     1       1.698  12.343   6.654  0.00  0.00    +0.033 A 
ATOM     28  C   UNL     1       2.362  13.067   7.635  0.00  0.00    +0.023 A 
ATOM     29  C   UNL     1       2.150  14.427   7.751  0.00  0.00    +0.002 A 
ATOM     30  C   UNL     1       1.268  15.065   6.899  0.00  0.00    +0.000 A 
ATOM     31  C   UNL     1       0.601  14.346   5.924  0.00  0.00    +0.002 A 
ATOM     32  C   UNL     1       0.813  12.987   5.799  0.00  0.00    +0.023 A 
ENDBRANCH  25  27
ENDBRANCH  22  23
ENDBRANCH   4  22
TORSDOF 6
