REMARK  Name = ZINC32795445
REMARK  6 active torsions:
REMARK  status: ('A' for Active; 'I' for Inactive)
REMARK    1  A    between atoms: C_1  and  C_2
REMARK    2  A    between atoms: C_3  and  C_7
REMARK    3  A    between atoms: N_9  and  N_10
REMARK    4  A    between atoms: N_13  and  C_14
REMARK    5  A    between atoms: C_14  and  C_16
REMARK    6  A    between atoms: C_14  and  C_17
REMARK                            x       y       z     vdW  Elec       q    Type
REMARK                         _______ _______ _______ _____ _____    ______ ____
ROOT
ATOM      1  N   UNL     1      -1.234   1.650   0.017  0.00  0.00    -0.218 N 
ATOM      2  C   UNL     1      -2.392   0.960   0.019  0.00  0.00    +0.316 C 
ATOM      3  O   UNL     1      -3.453   1.554   0.027  0.00  0.00    -0.251 OA
ATOM      4  N   UNL     1      -2.373  -0.388   0.011  0.00  0.00    -0.292 N 
ATOM      5  H   UNL     1      -1.249   2.750   0.023  0.00  0.00    +0.174 HD
ATOM      6  H   UNL     1      -1.413  -0.924   0.004  0.00  0.00    +0.151 HD
ENDROOT
BRANCH   1   9
ATOM      7  C   UNL     1       1.147   1.655   0.000  0.00  0.00    +0.263 C 
ATOM      8  O   UNL     1       1.130   2.872   0.007  0.00  0.00    -0.269 OA
ATOM      9  N   UNL     1      -0.011   0.966   0.007  0.00  0.00    -0.229 N 
ATOM     10  H   UNL     1       0.004  -0.134   0.006  0.00  0.00    +0.173 HD
BRANCH   7  13
ATOM     11  C   UNL     1       4.002   2.955  -0.019  0.00  0.00    +0.087 C 
ATOM     12  C   UNL     1       3.683   1.482  -0.025  0.00  0.00    +0.114 A 
ATOM     13  C   UNL     1       2.433   0.936  -0.016  0.00  0.00    +0.079 A 
ATOM     14  C   UNL     1       2.637  -0.520  -0.019  0.00  0.00    +0.054 A 
ATOM     15  C   UNL     1       3.966  -0.706  -0.040  0.00  0.00    +0.196 A 
ATOM     16  O   UNL     1       4.577   0.488  -0.039  0.00  0.00    -0.467 OA
ENDBRANCH   7  13
ENDBRANCH   1   9
BRANCH   4  17
ATOM     17  C   UNL     1      -3.632  -1.137   0.013  0.00  0.00    +0.102 C 
ATOM     18  C   UNL     1      -4.128  -1.298   1.452  0.00  0.00    +0.033 C 
BRANCH  17  19
ATOM     19  C   UNL     1      -3.408  -2.497  -0.596  0.00  0.00    -0.026 A 
ATOM     20  C   UNL     1      -2.248  -3.197  -0.317  0.00  0.00    +0.005 A 
ATOM     21  C   UNL     1      -2.044  -4.446  -0.871  0.00  0.00    +0.002 A 
ATOM     22  C   UNL     1      -2.994  -4.993  -1.713  0.00  0.00    +0.020 A 
ATOM     23  C   UNL     1      -4.152  -4.291  -1.997  0.00  0.00    +0.041 A 
ATOM     24  C   UNL     1      -4.358  -3.043  -1.438  0.00  0.00    +0.025 A 
ATOM     25 CL   UNL     1      -5.345  -4.977  -3.055  0.00  0.00    -0.084 Cl
ENDBRANCH  17  19
ENDBRANCH   4  17
TORSDOF 4
