REMARK  Name = ZINC63375676
REMARK  12 active torsions:
REMARK  status: ('A' for Active; 'I' for Inactive)
REMARK    1  A    between atoms: C_1  and  C_2
REMARK    2  A    between atoms: C_2  and  C_3
REMARK    3  A    between atoms: C_2  and  C_4
REMARK    4  A    between atoms: C_4  and  N_5
REMARK    5  A    between atoms: C_6  and  O_36
REMARK    6  A    between atoms: C_8  and  C_19
REMARK    7  A    between atoms: N_12  and  C_15
REMARK    8  A    between atoms: C_15  and  C_16
REMARK    9  A    between atoms: C_16  and  C_17
REMARK   10  A    between atoms: C_16  and  C_18
REMARK   11  A    between atoms: C_26  and  O_31
REMARK   12  A    between atoms: O_31  and  C_32
REMARK                            x       y       z     vdW  Elec       q    Type
REMARK                         _______ _______ _______ _____ _____    ______ ____
ROOT
ATOM      1  N   UNL     1      -1.937  -0.115  -1.189  0.00  0.00    -0.258 N 
ATOM      2  C   UNL     1      -2.436   1.260  -1.246  0.00  0.00    +0.219 C 
ATOM      3  C   UNL     1      -3.692   1.312  -2.119  0.00  0.00    +0.142 C 
ATOM      4  C   UNL     1      -3.443   0.546  -3.393  0.00  0.00    +0.232 C 
ATOM      5  O   UNL     1      -3.947   0.915  -4.432  0.00  0.00    -0.275 OA
ATOM      6  N   UNL     1      -2.659  -0.548  -3.377  0.00  0.00    -0.225 N 
ATOM      7  C   UNL     1      -2.014  -0.922  -2.259  0.00  0.00    +0.313 C 
ATOM      8  O   UNL     1      -1.493  -2.019  -2.213  0.00  0.00    -0.252 OA
ENDROOT
BRANCH   3   9
ATOM      9  C   UNL     1      -4.865   0.683  -1.364  0.00  0.00    +0.096 C 
ATOM     10  C   UNL     1      -6.096   0.635  -2.272  0.00  0.00    +0.124 C 
ATOM     11  C   UNL     1      -7.252   0.159  -1.398  0.00  0.00    -0.036 C 
ATOM     12  C   UNL     1      -7.779  -0.890  -2.012  0.00  0.00    +0.003 A 
ATOM     13  C   UNL     1      -8.956  -1.720  -1.710  0.00  0.00    +0.055 A 
ATOM     14  C   UNL     1      -9.211  -2.752  -2.561  0.00  0.00    +0.121 A 
ATOM     15  C   UNL     1      -8.426  -3.055  -3.683  0.00  0.00    +0.047 A 
ATOM     16  C   UNL     1      -7.325  -2.355  -4.057  0.00  0.00    +0.029 A 
ATOM     17  C   UNL     1      -6.950  -1.209  -3.217  0.00  0.00    +0.043 A 
ATOM     18  N   UNL     1      -5.963  -0.346  -3.348  0.00  0.00    -0.376 N 
ATOM     19  C   UNL     1      -7.551   0.799  -0.064  0.00  0.00    +0.048 C 
ATOM     20  C   UNL     1      -6.206   0.890   0.680  0.00  0.00    +0.085 C 
ATOM     21  N   UNL     1      -5.191   1.500  -0.184  0.00  0.00    -0.310 NA
ATOM     22  H   UNL     1      -4.359   1.727   0.340  0.00  0.00    +0.122 HD
ATOM     23  H   UNL     1      -5.270  -0.354  -4.027  0.00  0.00    +0.160 HD
BRANCH  14  24
ATOM     24  O   UNL     1     -10.291  -3.536  -2.307  0.00  0.00    -0.495 OA
ATOM     25  C   UNL     1     -10.539  -4.613  -3.213  0.00  0.00    +0.277 C 
ENDBRANCH  14  24
ENDBRANCH   3   9
BRANCH   2  26
ATOM     26  O   UNL     1      -1.432   2.108  -1.806  0.00  0.00    -0.373 OA
ATOM     27  H   UNL     1      -0.636   2.187  -1.264  0.00  0.00    +0.212 HD
ENDBRANCH   2  26
BRANCH   1  28
ATOM     28  C   UNL     1      -1.339  -0.615   0.051  0.00  0.00    +0.115 C 
BRANCH  28  30
ATOM     29  C   UNL     1      -3.118  -2.344   0.350  0.00  0.00    +0.009 C 
ATOM     30  C   UNL     1      -2.443  -1.124   0.981  0.00  0.00    +0.000 C 
ATOM     31  C   UNL     1      -1.834  -1.519   2.328  0.00  0.00    +0.009 C 
ENDBRANCH  28  30
ENDBRANCH   1  28
BRANCH   6  32
ATOM     32  C   UNL     1      -2.502  -1.341  -4.599  0.00  0.00    +0.121 C 
BRANCH  32  33
ATOM     33  C   UNL     1      -1.312  -0.810  -5.402  0.00  0.00    +0.001 C 
ATOM     34  C   UNL     1      -0.023  -1.029  -4.608  0.00  0.00    +0.009 C 
ATOM     35  C   UNL     1      -1.223  -1.555  -6.735  0.00  0.00    +0.009 C 
ENDBRANCH  32  33
ENDBRANCH   6  32
TORSDOF 7
