REMARK  Name = ZINC39964735
REMARK  8 active torsions:
REMARK  status: ('A' for Active; 'I' for Inactive)
REMARK    1  A    between atoms: C_1  and  C_2
REMARK    2  A    between atoms: C_7  and  C_12
REMARK    3  A    between atoms: C_12  and  C_34
REMARK    4  A    between atoms: C_13  and  C_14
REMARK    5  A    between atoms: C_17  and  O_20
REMARK    6  A    between atoms: O_20  and  C_21
REMARK    7  A    between atoms: C_24  and  C_30
REMARK    8  A    between atoms: C_26  and  N_27
REMARK                            x       y       z     vdW  Elec       q    Type
REMARK                         _______ _______ _______ _____ _____    ______ ____
ROOT
ATOM      1  C   UNL     1      -0.034  -6.935   3.008  0.00  0.00    -0.024 A 
ATOM      2  C   UNL     1      -1.173  -6.218   2.623  0.00  0.00    +0.011 A 
ATOM      3  C   UNL     1      -2.425  -6.720   2.899  0.00  0.00    +0.047 A 
ATOM      4  C   UNL     1      -2.559  -7.936   3.559  0.00  0.00    +0.129 A 
ATOM      5  C   UNL     1      -1.431  -8.652   3.944  0.00  0.00    +0.047 A 
ATOM      6  C   UNL     1      -0.174  -8.161   3.668  0.00  0.00    +0.011 A 
ENDROOT
BRANCH   1   8
ATOM      7  C   UNL     1       1.548  -5.082   2.835  0.00  0.00    +0.072 C 
ATOM      8  C   UNL     1       1.306  -6.404   2.716  0.00  0.00    +0.026 C 
BRANCH   7  15
ATOM      9  C   UNL     1       1.337   1.707   4.485  0.00  0.00    +0.044 C 
ATOM     10  C   UNL     1       0.957   0.379   3.883  0.00  0.00    -0.048 A 
ATOM     11  C   UNL     1       0.298   0.364   2.641  0.00  0.00    +0.005 A 
ATOM     12  C   UNL     1      -0.078  -0.777   2.030  0.00  0.00    +0.027 A 
ATOM     13  C   UNL     1       0.203  -2.069   2.672  0.00  0.00    +0.060 A 
ATOM     14  N   UNL     1      -0.037  -3.301   2.326  0.00  0.00    -0.359 N 
ATOM     15  C   UNL     1       0.486  -4.168   3.389  0.00  0.00    +0.216 C 
ATOM     16  N   UNL     1       1.065  -3.277   4.403  0.00  0.00    -0.359 N 
ATOM     17  C   UNL     1       0.901  -2.054   3.987  0.00  0.00    +0.061 A 
ATOM     18  C   UNL     1       1.267  -0.749   4.554  0.00  0.00    +0.030 A 
ATOM     19  H   UNL     1      -0.482  -3.592   1.514  0.00  0.00    +0.162 HD
ATOM     20  H   UNL     1       1.491  -3.549   5.230  0.00  0.00    +0.162 HD
ENDBRANCH   7  15
BRANCH   7  21
ATOM     21  C   UNL     1       2.815  -4.547   2.434  0.00  0.00    +0.099 C 
ATOM     22  N   UNL     1       3.820  -4.123   2.117  0.00  0.00    -0.191 NA
ENDBRANCH   7  21
ENDBRANCH   1   8
BRANCH   4  23
ATOM     23  O   UNL     1      -3.796  -8.426   3.830  0.00  0.00    -0.454 OA
BRANCH  23  24
ATOM     24  C   UNL     1      -4.499  -8.981   2.808  0.00  0.00    +0.159 A 
ATOM     25  C   UNL     1      -3.926  -9.094   1.550  0.00  0.00    +0.049 A 
ATOM     26  C   UNL     1      -4.643  -9.659   0.513  0.00  0.00    +0.016 A 
ATOM     27  C   UNL     1      -5.931 -10.112   0.729  0.00  0.00    +0.057 A 
ATOM     28  C   UNL     1      -6.505 -10.001   1.982  0.00  0.00    +0.048 A 
ATOM     29  C   UNL     1      -5.790  -9.442   3.023  0.00  0.00    +0.169 A 
BRANCH  27  30
ATOM     30  C   UNL     1      -6.712 -10.727  -0.404  0.00  0.00    +0.417 C 
ATOM     31  F   UNL     1      -5.928 -10.730  -1.563  0.00  0.00    -0.166 F 
ATOM     32  F   UNL     1      -7.057 -12.042  -0.072  0.00  0.00    -0.166 F 
ATOM     33  F   UNL     1      -7.874  -9.982  -0.628  0.00  0.00    -0.166 F 
ENDBRANCH  27  30
BRANCH  29  34
ATOM     34  N   UNL     1      -6.403  -9.329   4.366  0.00  0.00    +0.060 N 
ATOM     35  O   UNL     1      -7.528  -9.730   4.553  0.00  0.00    -0.126 OA
ATOM     36  O   UNL     1      -5.779  -8.835   5.276  0.00  0.00    -0.126 OA
ENDBRANCH  29  34
ENDBRANCH  23  24
ENDBRANCH   4  23
TORSDOF 7
