REMARK  Name = ZINC26892014
REMARK  4 active torsions:
REMARK  status: ('A' for Active; 'I' for Inactive)
REMARK    1  A    between atoms: C_1  and  C_2
REMARK    2  A    between atoms: C_14  and  C_15
REMARK    3  A    between atoms: C_14  and  O_16
REMARK    4  A    between atoms: C_21  and  O_27
REMARK                            x       y       z     vdW  Elec       q    Type
REMARK                         _______ _______ _______ _____ _____    ______ ____
ROOT
ATOM      1  C   UNL     1       2.758  -0.348  -2.762  0.00  0.00    +0.014 C 
ATOM      2  C   UNL     1       2.205   0.071  -1.304  0.00  0.00    -0.000 C 
ATOM      3  C   UNL     1       3.214  -0.220  -0.275  0.00  0.00    +0.010 C 
ATOM      4  C   UNL     1       4.476   0.632  -0.477  0.00  0.00    +0.007 C 
ATOM      5  C   UNL     1       4.072   2.092  -0.378  0.00  0.00    +0.024 C 
ATOM      6  C   UNL     1       3.090   2.442  -1.395  0.00  0.00    -0.001 C 
ATOM      7  C   UNL     1       1.813   1.522  -1.402  0.00  0.00    +0.001 C 
ATOM      8  C   UNL     1       1.039   1.895  -0.101  0.00  0.00    +0.004 C 
ATOM      9  C   UNL     1      -0.219   1.102   0.056  0.00  0.00    +0.003 C 
ATOM     10  C   UNL     1       0.156  -0.376   0.167  0.00  0.00    +0.035 C 
ATOM     11  C   UNL     1       0.991  -0.831  -1.145  0.00  0.00    +0.069 C 
ATOM     12  C   UNL     1       0.038  -0.778  -2.377  0.00  0.00    +0.042 C 
ATOM     13  C   UNL     1       3.678   2.575  -2.792  0.00  0.00    +0.004 C 
ATOM     14  C   UNL     1       4.776   3.670  -2.829  0.00  0.00    +0.007 C 
ATOM     15  C   UNL     1       5.865   3.284  -1.786  0.00  0.00    +0.028 C 
ATOM     16  C   UNL     1       5.318   3.062  -0.453  0.00  0.00    +0.073 C 
ATOM     17  C   UNL     1       6.316   2.667   0.602  0.00  0.00    +0.043 C 
ATOM     18  C   UNL     1       7.275   1.518   0.063  0.00  0.00    +0.077 C 
ATOM     19  C   UNL     1       7.702   1.763  -1.327  0.00  0.00    +0.134 C 
ATOM     20  O   UNL     1       8.931   1.687  -1.664  0.00  0.00    -0.297 OA
ATOM     21  C   UNL     1       6.618   2.163  -2.324  0.00  0.00    +0.080 C 
ENDROOT
BRANCH  11  22
ATOM     22  O   UNL     1       1.392  -2.163  -0.955  0.00  0.00    -0.388 OA
ATOM     23  H   UNL     1       0.637  -2.952  -0.822  0.00  0.00    +0.210 HD
ENDBRANCH  11  22
BRANCH  16  24
ATOM     24  O   UNL     1       4.732   4.331   0.051  0.00  0.00    -0.388 OA
ATOM     25  H   UNL     1       5.356   5.233   0.126  0.00  0.00    +0.210 HD
ENDBRANCH  16  24
TORSDOF 2
