REMARK  Name = ZINC04581305
REMARK  6 active torsions:
REMARK  status: ('A' for Active; 'I' for Inactive)
REMARK    1  A    between atoms: C_1  and  C_2
REMARK    2  A    between atoms: C_2  and  C_4
REMARK    3  A    between atoms: C_2  and  O_11
REMARK    4  A    between atoms: N_9  and  C_10
REMARK    5  A    between atoms: O_11  and  C_12
REMARK    6  A    between atoms: C_12  and  C_14
REMARK                            x       y       z     vdW  Elec       q    Type
REMARK                         _______ _______ _______ _____ _____    ______ ____
ROOT
ATOM      1  O   UNL     1      -2.279   7.331  -2.821  0.00  0.00    -0.448 OA
ENDROOT
BRANCH   1   3
ATOM      2  C   UNL     1      -1.359   9.489  -3.473  0.00  0.00    +0.062 C 
ATOM      3  C   UNL     1      -2.623   8.715  -3.096  0.00  0.00    +0.259 C 
BRANCH   3   4
ATOM      4  C   UNL     1      -3.606   8.771  -4.238  0.00  0.00    +0.261 C 
ATOM      5  O   UNL     1      -3.979   7.745  -4.767  0.00  0.00    -0.271 OA
ATOM      6  N   UNL     1      -4.069   9.960  -4.671  0.00  0.00    -0.237 N 
ATOM      7  C   UNL     1      -4.947  10.009  -5.692  0.00  0.00    +0.306 C 
ATOM      8  O   UNL     1      -5.322   8.982  -6.222  0.00  0.00    -0.252 OA
ATOM      9  N   UNL     1      -5.411  11.199  -6.125  0.00  0.00    -0.302 N 
ATOM     10  C   UNL     1      -6.366  11.253  -7.234  0.00  0.00    +0.129 C 
ATOM     11  H   UNL     1      -3.771  10.780  -4.247  0.00  0.00    +0.159 HD
ATOM     12  H   UNL     1      -5.112  12.019  -5.701  0.00  0.00    +0.150 HD
ENDBRANCH   3   4
ENDBRANCH   1   3
BRANCH   1  13
ATOM     13  C   UNL     1      -1.958   7.022  -1.548  0.00  0.00    +0.347 C 
ATOM     14  O   UNL     1      -1.965   7.886  -0.692  0.00  0.00    -0.244 OA
BRANCH  13  15
ATOM     15  C   UNL     1      -1.600   5.647  -1.196  0.00  0.00    +0.097 A 
ATOM     16  C   UNL     1      -1.242   5.125   0.035  0.00  0.00    +0.026 A 
ATOM     17  C   UNL     1      -0.946   3.775   0.111  0.00  0.00    -0.036 A 
ATOM     18  C   UNL     1      -1.031   3.059  -1.050  0.00  0.00    -0.006 A 
ATOM     19  S   UNL     1      -1.511   4.204  -2.244  0.00  0.00    -0.086 S 
ATOM     20  C   UNL     1      -0.761   1.597  -1.231  0.00  0.00    +0.043 C 
ATOM     21  C   UNL     1      -0.013   1.086   0.008  0.00  0.00    +0.005 C 
ATOM     22  C   UNL     1      -0.735   1.583   1.263  0.00  0.00    +0.005 C 
ATOM     23  C   UNL     1      -0.541   3.091   1.415  0.00  0.00    +0.036 C 
ENDBRANCH  13  15
ENDBRANCH   1  13
TORSDOF 4
