REMARK  Name = ZINC20545270
REMARK  4 active torsions:
REMARK  status: ('A' for Active; 'I' for Inactive)
REMARK    1  A    between atoms: C_1  and  O_2
REMARK    2  A    between atoms: O_2  and  C_3
REMARK    3  A    between atoms: C_6  and  N_10
REMARK    4  A    between atoms: N_10  and  C_11
REMARK                            x       y       z     vdW  Elec       q    Type
REMARK                         _______ _______ _______ _____ _____    ______ ____
ROOT
ATOM      1  C   UNL     1       2.606  -3.965   4.286  0.00  0.00    +0.190 C 
ATOM      2  C   UNL     1       3.766  -4.411   5.146  0.00  0.00    +0.004 A 
ATOM      3  C   UNL     1       5.127  -4.229   5.050  0.00  0.00    +0.027 A 
ATOM      4  C   UNL     1       5.966  -4.769   6.011  0.00  0.00    +0.041 A 
ATOM      5  C   UNL     1       5.431  -5.489   7.065  0.00  0.00    +0.022 A 
ATOM      6  C   UNL     1       4.067  -5.673   7.162  0.00  0.00    +0.025 A 
ATOM      7  C   UNL     1       3.217  -5.133   6.199  0.00  0.00    +0.039 A 
ATOM      8  N   UNL     1       1.827  -5.179   6.079  0.00  0.00    -0.283 N 
ATOM      9  C   UNL     1       1.387  -4.524   4.988  0.00  0.00    +0.242 C 
ATOM     10  O   UNL     1       0.233  -4.402   4.635  0.00  0.00    -0.273 OA
ATOM     11 CL   UNL     1       7.683  -4.542   5.894  0.00  0.00    -0.084 Cl
ATOM     12  H   UNL     1       1.246  -5.633   6.708  0.00  0.00    +0.155 HD
ENDROOT
BRANCH   1  13
ATOM     13  N   UNL     1       2.541  -2.502   4.231  0.00  0.00    -0.329 N 
ATOM     14  H   UNL     1       2.944  -1.972   4.936  0.00  0.00    +0.147 HD
BRANCH  13  18
ATOM     15  C   UNL     1       0.626  -0.619   1.042  0.00  0.00    +0.138 A 
ATOM     16  C   UNL     1       1.202   0.139   2.051  0.00  0.00    +0.049 A 
ATOM     17  C   UNL     1       1.836  -0.484   3.108  0.00  0.00    +0.026 A 
ATOM     18  C   UNL     1       1.898  -1.871   3.161  0.00  0.00    +0.030 A 
ATOM     19  C   UNL     1       1.322  -2.630   2.151  0.00  0.00    +0.046 A 
ATOM     20  C   UNL     1       0.682  -2.005   1.097  0.00  0.00    +0.084 A 
ATOM     21 CL   UNL     1      -0.046  -2.953  -0.162  0.00  0.00    -0.080 Cl
BRANCH  15  23
ATOM     22  C   UNL     1      -0.017   1.425   0.010  0.00  0.00    +0.277 C 
ATOM     23  O   UNL     1       0.002  -0.004   0.002  0.00  0.00    -0.494 OA
ENDBRANCH  15  23
ENDBRANCH  13  18
ENDBRANCH   1  13
TORSDOF 3
