REMARK  Name = ZINC66568427
REMARK  9 active torsions:
REMARK  status: ('A' for Active; 'I' for Inactive)
REMARK    1  A    between atoms: C_1  and  C_2
REMARK    2  A    between atoms: C_2  and  N_3
REMARK    3  A    between atoms: C_7  and  C_9
REMARK    4  A    between atoms: C_9  and  C_11
REMARK    5  A    between atoms: C_9  and  N_12
REMARK    6  A    between atoms: C_15  and  C_18
REMARK    7  A    between atoms: C_18  and  C_19
REMARK    8  A    between atoms: N_24  and  C_27
REMARK    9  A    between atoms: C_27  and  C_28
REMARK                            x       y       z     vdW  Elec       q    Type
REMARK                         _______ _______ _______ _____ _____    ______ ____
ROOT
ATOM      1  N   UNL     1       2.428  -5.504  -3.946  0.00  0.00    +0.387 N 
ATOM      2  C   UNL     1       1.092  -6.110  -3.986  0.00  0.00    -0.078 C 
ATOM      3  C   UNL     1       1.213  -7.630  -3.853  0.00  0.00    -0.015 C 
ATOM      4  C   UNL     1       2.056  -8.173  -5.010  0.00  0.00    -0.006 C 
ATOM      5  C   UNL     1       3.422  -7.479  -5.003  0.00  0.00    -0.015 C 
ATOM      6  C   UNL     1       3.219  -5.965  -5.093  0.00  0.00    -0.078 C 
ATOM      7  H   UNL     1       2.891  -5.772  -3.090  0.00  0.00    -0.081 HD
ENDROOT
BRANCH   1   8
ATOM      8  C   UNL     1       2.302  -4.041  -3.995  0.00  0.00    +0.017 C 
ATOM      9  C   UNL     1       3.696  -3.410  -4.004  0.00  0.00    -0.004 C 
BRANCH   8  14
ATOM     10  N   UNL     1      -0.556  -0.841  -1.828  0.00  0.00    -0.299 N 
ATOM     11  C   UNL     1       0.151  -1.986  -1.767  0.00  0.00    +0.306 C 
ATOM     12  O   UNL     1       0.175  -2.632  -0.738  0.00  0.00    -0.252 OA
ATOM     13  N   UNL     1       0.833  -2.416  -2.848  0.00  0.00    -0.242 N 
ATOM     14  C   UNL     1       1.540  -3.561  -2.787  0.00  0.00    +0.207 C 
ATOM     15  O   UNL     1       1.564  -4.206  -1.760  0.00  0.00    -0.277 OA
ATOM     16  H   UNL     1      -0.575  -0.325  -2.650  0.00  0.00    +0.150 HD
ATOM     17  H   UNL     1       0.814  -1.900  -3.669  0.00  0.00    +0.159 HD
BRANCH  10  19
ATOM     18  C   UNL     1      -2.008   0.939  -0.987  0.00  0.00    +0.024 C 
ATOM     19  C   UNL     1      -1.297  -0.374  -0.653  0.00  0.00    +0.102 C 
ENDBRANCH  10  19
ENDBRANCH   8  14
ENDBRANCH   1   8
BRANCH   4  20
ATOM     20  C   UNL     1       2.248  -9.681  -4.840  0.00  0.00    +0.099 C 
BRANCH  20  21
ATOM     21  C   UNL     1       2.972 -10.234  -6.040  0.00  0.00    +0.216 C 
ATOM     22  O   UNL     1       3.303  -9.495  -6.943  0.00  0.00    -0.276 OA
ATOM     23  N   UNL     1       3.253 -11.550  -6.110  0.00  0.00    -0.299 N 
ATOM     24  C   UNL     1       2.856 -12.466  -5.030  0.00  0.00    +0.123 C 
ATOM     25  C   UNL     1       2.103 -13.649  -5.646  0.00  0.00    +0.103 C 
ATOM     26  N   UNL     1       2.928 -14.254  -6.701  0.00  0.00    -0.300 NA
ATOM     27  C   UNL     1       3.168 -13.307  -7.798  0.00  0.00    +0.103 C 
ATOM     28  C   UNL     1       3.959 -12.111  -7.272  0.00  0.00    +0.123 C 
BRANCH  26  29
ATOM     29  C   UNL     1       2.318 -15.494  -7.200  0.00  0.00    +0.081 C 
ATOM     30  C   UNL     1       3.312 -16.222  -8.107  0.00  0.00    +0.020 C 
ENDBRANCH  26  29
ENDBRANCH  20  21
ENDBRANCH   4  20
TORSDOF 6
