REMARK  Name = ZINC20866103
REMARK  7 active torsions:
REMARK  status: ('A' for Active; 'I' for Inactive)
REMARK    1  A    between atoms: C_4  and  C_7
REMARK    2  A    between atoms: C_7  and  C_12
REMARK    3  A    between atoms: C_12  and  O_14
REMARK    4  A    between atoms: O_14  and  C_15
REMARK    5  A    between atoms: C_15  and  C_16
REMARK    6  A    between atoms: N_18  and  C_19
REMARK    7  A    between atoms: C_20  and  C_28
REMARK                            x       y       z     vdW  Elec       q    Type
REMARK                         _______ _______ _______ _____ _____    ______ ____
ROOT
ATOM      1  C   UNL     1      -3.260   0.048  -5.122  0.00  0.00    +0.255 C 
ATOM      2  O   UNL     1      -3.404   1.236  -5.321  0.00  0.00    -0.272 OA
ATOM      3  N   UNL     1      -3.794  -0.848  -5.976  0.00  0.00    -0.277 N 
ATOM      4  H   UNL     1      -3.664  -1.925  -5.795  0.00  0.00    +0.155 HD
ENDROOT
BRANCH   3   5
ATOM      5  C   UNL     1      -4.507  -0.411  -7.082  0.00  0.00    +0.084 A 
ATOM      6  C   UNL     1      -5.120  -1.172  -8.068  0.00  0.00    +0.068 A 
ATOM      7  C   UNL     1      -5.815  -0.463  -9.128  0.00  0.00    -0.023 A 
ATOM      8  C   UNL     1      -5.776   0.885  -9.040  0.00  0.00    -0.004 A 
ATOM      9  S   UNL     1      -4.842   1.216  -7.573  0.00  0.00    -0.077 S 
ATOM     10  C   UNL     1      -6.393   1.869  -9.985  0.00  0.00    +0.043 C 
ATOM     11  C   UNL     1      -6.762   1.131 -11.280  0.00  0.00    +0.005 C 
ATOM     12  C   UNL     1      -7.507  -0.157 -10.918  0.00  0.00    +0.005 C 
ATOM     13  C   UNL     1      -6.541  -1.154 -10.276  0.00  0.00    +0.037 C 
BRANCH   6  14
ATOM     14  C   UNL     1      -5.072  -2.637  -8.037  0.00  0.00    +0.244 C 
ATOM     15  O   UNL     1      -5.941  -3.263  -7.459  0.00  0.00    -0.270 OA
ATOM     16  N   UNL     1      -4.065  -3.291  -8.650  0.00  0.00    -0.325 N 
ATOM     17  H   UNL     1      -4.029  -4.390  -8.627  0.00  0.00    +0.145 HD
ATOM     18  H   UNL     1      -3.280  -2.726  -9.173  0.00  0.00    +0.145 HD
ENDBRANCH   6  14
ENDBRANCH   3   5
BRANCH   1  19
ATOM     19  C   UNL     1      -2.485  -0.426  -3.919  0.00  0.00    +0.328 C 
BRANCH  19  20
ATOM     20  O   UNL     1      -2.017   0.721  -3.162  0.00  0.00    -0.455 OA
BRANCH  20  21
ATOM     21  C   UNL     1      -1.304   0.469  -2.053  0.00  0.00    +0.318 C 
ATOM     22  O   UNL     1      -1.079  -0.672  -1.725  0.00  0.00    -0.250 OA
BRANCH  21  23
ATOM     23  C   UNL     1      -0.784   1.609  -1.216  0.00  0.00    +0.093 C 
ATOM     24  C   UNL     1      -0.004   1.063  -0.007  0.00  0.00    +0.023 C 
ATOM     25  C   UNL     1      -0.735   1.568   1.254  0.00  0.00    +0.001 C 
ATOM     26  C   UNL     1      -2.181   1.842   0.770  0.00  0.00    +0.001 C 
ATOM     27  C   UNL     1      -1.963   2.427  -0.647  0.00  0.00    +0.023 C 
BRANCH  23  31
ATOM     28  C   UNL     1       1.740   4.124  -3.572  0.00  0.00    +0.000 A 
ATOM     29  C   UNL     1       1.387   4.505  -2.291  0.00  0.00    +0.000 A 
ATOM     30  C   UNL     1       0.569   3.691  -1.528  0.00  0.00    +0.005 A 
ATOM     31  C   UNL     1       0.106   2.496  -2.047  0.00  0.00    -0.031 A 
ATOM     32  C   UNL     1       0.464   2.113  -3.326  0.00  0.00    +0.005 A 
ATOM     33  C   UNL     1       1.277   2.929  -4.090  0.00  0.00    +0.000 A 
ENDBRANCH  23  31
ENDBRANCH  21  23
ENDBRANCH  20  21
ENDBRANCH  19  20
ENDBRANCH   1  19
TORSDOF 7
