REMARK  Name = ZINC40313745
REMARK  6 active torsions:
REMARK  status: ('A' for Active; 'I' for Inactive)
REMARK    1  A    between atoms: C_1  and  C_2
REMARK    2  A    between atoms: C_2  and  O_3
REMARK    3  A    between atoms: O_3  and  C_4
REMARK    4  A    between atoms: C_12  and  C_14
REMARK    5  A    between atoms: C_18  and  N_21
REMARK    6  A    between atoms: C_19  and  C_20
REMARK                            x       y       z     vdW  Elec       q    Type
REMARK                         _______ _______ _______ _____ _____    ______ ____
ROOT
ATOM      1  C   UNL     1       0.825  -1.781  -1.298  0.00  0.00    +0.403 C 
ATOM      2  O   UNL     1       0.362  -2.531  -0.461  0.00  0.00    -0.226 OA
ATOM      3  N   UNL     1       1.430  -2.283  -2.392  0.00  0.00    -0.264 N 
ATOM      4  C   UNL     1       1.999  -1.388  -3.409  0.00  0.00    +0.130 C 
ATOM      5  C   UNL     1       3.475  -1.752  -3.611  0.00  0.00    +0.127 C 
ATOM      6  N   UNL     1       3.578  -3.205  -3.809  0.00  0.00    -0.295 N 
ATOM      7  C   UNL     1       3.009  -4.100  -2.792  0.00  0.00    +0.127 C 
ATOM      8  C   UNL     1       1.538  -3.736  -2.587  0.00  0.00    +0.130 C 
ATOM      9  C   UNL     1       4.184  -3.707  -4.903  0.00  0.00    +0.247 C 
ATOM     10  O   UNL     1       4.558  -2.961  -5.787  0.00  0.00    -0.270 OA
ENDROOT
BRANCH   9  11
ATOM     11  C   UNL     1       4.391  -5.165  -5.029  0.00  0.00    +0.042 A 
ATOM     12  C   UNL     1       5.051  -5.869  -4.020  0.00  0.00    +0.013 A 
ATOM     13  C   UNL     1       5.245  -7.230  -4.140  0.00  0.00    +0.003 A 
ATOM     14  C   UNL     1       4.787  -7.902  -5.258  0.00  0.00    +0.023 A 
ATOM     15  C   UNL     1       4.128  -7.211  -6.268  0.00  0.00    +0.028 A 
ATOM     16  C   UNL     1       3.924  -5.844  -6.154  0.00  0.00    -0.018 A 
ATOM     17  C   UNL     1       3.205  -5.093  -7.245  0.00  0.00    +0.046 C 
BRANCH  15  18
ATOM     18  N   UNL     1       3.668  -7.895  -7.396  0.00  0.00    -0.358 N 
ATOM     19  H   UNL     1       3.807  -8.851  -7.474  0.00  0.00    +0.142 HD
ATOM     20  H   UNL     1       3.208  -7.413  -8.101  0.00  0.00    +0.142 HD
ENDBRANCH  15  18
ENDBRANCH   9  11
BRANCH   1  21
ATOM     21  O   UNL     1       0.733  -0.448  -1.131  0.00  0.00    -0.451 OA
BRANCH  21  23
ATOM     22  C   UNL     1       0.071   1.544   0.066  0.00  0.00    +0.048 C 
ATOM     23  C   UNL     1       0.078   0.015   0.052  0.00  0.00    +0.230 C 
ENDBRANCH  21  23
ENDBRANCH   1  21
TORSDOF 4
