REMARK  Name = ZINC63491568
REMARK  5 active torsions:
REMARK  status: ('A' for Active; 'I' for Inactive)
REMARK    1  A    between atoms: C_1  and  C_2
REMARK    2  A    between atoms: C_8  and  S_10
REMARK    3  A    between atoms: S_10  and  C_11
REMARK    4  A    between atoms: C_11  and  C_12
REMARK    5  A    between atoms: C_18  and  C_20
REMARK                            x       y       z     vdW  Elec       q    Type
REMARK                         _______ _______ _______ _____ _____    ______ ____
ROOT
ATOM      1  C   UNL     1       5.376  -1.973  -0.035  0.00  0.00    +0.021 C 
ATOM      2  N   UNL     1       5.906  -2.526   1.108  0.00  0.00    -0.319 N 
ATOM      3  C   UNL     1       7.361  -2.435   1.289  0.00  0.00    +0.230 C 
ATOM      4  N   UNL     1       7.973  -2.863  -0.005  0.00  0.00    -0.245 N 
ATOM      5  C   UNL     1       9.046  -3.719   0.150  0.00  0.00    +0.091 C 
ATOM      6  C   UNL     1       9.279  -4.360   1.290  0.00  0.00    -0.000 C 
ATOM      7  S   UNL     1       7.930  -3.809   2.370  0.00  0.00    -0.086 S 
ATOM      8  C   UNL     1      10.405  -5.307   1.617  0.00  0.00    +0.052 C 
ATOM      9  C   UNL     1       7.428  -2.461  -1.184  0.00  0.00    +0.247 C 
ATOM     10  O   UNL     1       8.051  -2.554  -2.227  0.00  0.00    -0.270 OA
ATOM     11  C   UNL     1       6.112  -1.937  -1.166  0.00  0.00    +0.087 C 
ATOM     12  H   UNL     1       5.341  -2.959   1.767  0.00  0.00    +0.148 HD
ENDROOT
BRANCH   1  13
ATOM     13  C   UNL     1       3.977  -1.414  -0.025  0.00  0.00    +0.128 C 
BRANCH  13  14
ATOM     14  S   UNL     1       2.781  -2.777  -0.027  0.00  0.00    -0.082 S 
BRANCH  14  22
ATOM     15  C   UNL     1      -0.018   1.503   0.010  0.00  0.00    +0.066 C 
ATOM     16  C   UNL     1       0.002  -0.004   0.002  0.00  0.00    +0.046 A 
ATOM     17  C   UNL     1      -1.171  -0.701   0.004  0.00  0.00    +0.093 A 
ATOM     18  C   UNL     1      -1.128  -2.107  -0.004  0.00  0.00    +0.252 A 
ATOM     19  O   UNL     1      -2.158  -2.761  -0.004  0.00  0.00    -0.268 OA
ATOM     20  N   UNL     1       0.076  -2.718  -0.014  0.00  0.00    -0.302 N 
ATOM     21  H   UNL     1       0.130  -3.687  -0.020  0.00  0.00    +0.171 HD
ATOM     22  C   UNL     1       1.214  -1.970  -0.015  0.00  0.00    +0.170 A 
ATOM     23  N   UNL     1       1.164  -0.652  -0.013  0.00  0.00    -0.228 NA
ENDBRANCH  14  22
ENDBRANCH  13  14
ENDBRANCH   1  13
TORSDOF 3
