REMARK  Name = ZINC00752645
REMARK  10 active torsions:
REMARK  status: ('A' for Active; 'I' for Inactive)
REMARK    1  A    between atoms: C_1  and  C_2
REMARK    2  A    between atoms: C_2  and  C_3
REMARK    3  A    between atoms: C_3  and  C_4
REMARK    4  A    between atoms: C_5  and  C_22
REMARK    5  A    between atoms: C_6  and  C_14
REMARK    6  A    between atoms: C_8  and  C_12
REMARK    7  A    between atoms: C_9  and  N_11
REMARK    8  A    between atoms: C_22  and  O_24
REMARK    9  A    between atoms: O_24  and  C_25
REMARK   10  A    between atoms: C_25  and  C_26
REMARK                            x       y       z     vdW  Elec       q    Type
REMARK                         _______ _______ _______ _____ _____    ______ ____
ROOT
ATOM      1  C   UNL     1       1.766   2.559   0.593  0.00  0.00    +0.118 C 
ATOM      2  C   UNL     1       1.219   1.599  -0.163  0.00  0.00    +0.087 C 
ATOM      3  C   UNL     1      -0.199   1.149   0.058  0.00  0.00    +0.105 C 
ATOM      4  C   UNL     1      -0.675   1.611   1.409  0.00  0.00    +0.098 C 
ATOM      5  C   UNL     1      -0.009   2.579   2.083  0.00  0.00    +0.198 C 
ATOM      6  O   UNL     1       1.090   3.166   1.579  0.00  0.00    -0.445 OA
ENDROOT
BRANCH   3   7
ATOM      7  C   UNL     1      -1.085   1.736  -1.011  0.00  0.00    -0.033 A 
ATOM      8  C   UNL     1      -1.192   3.108  -1.141  0.00  0.00    +0.007 A 
ATOM      9  C   UNL     1      -1.999   3.648  -2.125  0.00  0.00    +0.040 A 
ATOM     10  C   UNL     1      -2.709   2.815  -2.973  0.00  0.00    +0.137 A 
ATOM     11  C   UNL     1      -2.605   1.440  -2.837  0.00  0.00    +0.053 A 
ATOM     12  C   UNL     1      -1.792   0.902  -1.856  0.00  0.00    +0.022 A 
ATOM     13 BR   UNL     1      -3.572   0.300  -3.994  0.00  0.00    -0.047 Br
ATOM     14  F   UNL     1      -3.502   3.342  -3.930  0.00  0.00    -0.204 F 
ENDBRANCH   3   7
BRANCH   5  15
ATOM     15  N   UNL     1      -0.471   2.974   3.314  0.00  0.00    -0.328 N 
ATOM     16  H   UNL     1      -0.006   3.667   3.808  0.00  0.00    +0.145 HD
ATOM     17  H   UNL     1      -1.264   2.559   3.691  0.00  0.00    +0.145 HD
ENDBRANCH   5  15
BRANCH   4  18
ATOM     18  C   UNL     1      -1.843   1.019   1.989  0.00  0.00    +0.101 C 
ATOM     19  N   UNL     1      -2.770   0.550   2.449  0.00  0.00    -0.191 NA
ENDBRANCH   4  18
BRANCH   2  20
ATOM     20  C   UNL     1       1.988   0.998  -1.190  0.00  0.00    +0.339 C 
ATOM     21  O   UNL     1       1.840   1.349  -2.346  0.00  0.00    -0.245 OA
BRANCH  20  22
ATOM     22  O   UNL     1       2.885   0.037  -0.887  0.00  0.00    -0.462 OA
BRANCH  22  23
ATOM     23  C   UNL     1       3.626  -0.525  -1.972  0.00  0.00    +0.229 C 
ATOM     24  C   UNL     1       4.585  -1.590  -1.437  0.00  0.00    +0.048 C 
ENDBRANCH  22  23
ENDBRANCH  20  22
ENDBRANCH   2  20
BRANCH   1  25
ATOM     25  C   UNL     1       3.192   2.970   0.328  0.00  0.00    +0.075 C 
BRANCH  25  27
ATOM     26  C   UNL     1       4.655   4.577  -0.904  0.00  0.00    +0.004 C 
ATOM     27  C   UNL     1       3.208   4.160  -0.634  0.00  0.00    +0.004 C 
ENDBRANCH  25  27
ENDBRANCH   1  25
TORSDOF 8
