REMARK  Name = ZINC64117880
REMARK  9 active torsions:
REMARK  status: ('A' for Active; 'I' for Inactive)
REMARK    1  A    between atoms: C_1  and  C_2
REMARK    2  A    between atoms: N_5  and  C_11
REMARK    3  A    between atoms: C_7  and  C_10
REMARK    4  A    between atoms: C_14  and  N_18
REMARK    5  A    between atoms: N_18  and  C_19
REMARK    6  A    between atoms: C_19  and  C_21
REMARK    7  A    between atoms: C_19  and  C_22
REMARK    8  A    between atoms: C_27  and  C_34
REMARK    9  A    between atoms: C_28  and  C_33
REMARK                            x       y       z     vdW  Elec       q    Type
REMARK                         _______ _______ _______ _____ _____    ______ ____
ROOT
ATOM      1  N   UNL     1      -4.199  -5.398  -3.206  0.00  0.00    -0.334 N 
ATOM      2  H   UNL     1      -3.776  -5.739  -4.009  0.00  0.00    +0.147 HD
ENDROOT
BRANCH   1   6
ATOM      3  C   UNL     1      -2.096  -2.851  -0.659  0.00  0.00    +0.066 A 
ATOM      4  C   UNL     1      -1.491  -3.339  -1.809  0.00  0.00    +0.028 A 
ATOM      5  C   UNL     1      -2.188  -4.183  -2.652  0.00  0.00    +0.025 A 
ATOM      6  C   UNL     1      -3.494  -4.543  -2.351  0.00  0.00    +0.030 A 
ATOM      7  C   UNL     1      -4.101  -4.056  -1.201  0.00  0.00    +0.063 A 
ATOM      8  C   UNL     1      -3.403  -3.216  -0.354  0.00  0.00    +0.146 A 
ATOM      9  F   UNL     1      -3.991  -2.745   0.768  0.00  0.00    -0.203 F 
BRANCH   3  13
ATOM     10  C   UNL     1      -0.019   1.526   0.010  0.00  0.00    +0.039 C 
ATOM     11  C   UNL     1       0.002  -0.004   0.002  0.00  0.00    +0.133 C 
ATOM     12  C   UNL     1      -1.436  -0.536   0.015  0.00  0.00    +0.136 C 
ATOM     13  N   UNL     1      -1.389  -1.995   0.196  0.00  0.00    -0.323 N 
ATOM     14  C   UNL     1      -0.578  -2.530   1.302  0.00  0.00    +0.136 C 
ATOM     15  C   UNL     1       0.818  -1.901   1.226  0.00  0.00    +0.133 C 
ATOM     16  O   UNL     1       0.691  -0.479   1.161  0.00  0.00    -0.371 OA
ATOM     17  C   UNL     1       1.539  -2.407  -0.025  0.00  0.00    +0.039 C 
ENDBRANCH   3  13
ENDBRANCH   1   6
BRANCH   1  18
ATOM     18  C   UNL     1      -5.578  -5.779  -2.888  0.00  0.00    +0.133 C 
ATOM     19  C   UNL     1      -6.537  -4.706  -3.409  0.00  0.00    +0.036 C 
BRANCH  18  20
ATOM     20  C   UNL     1      -5.898  -7.099  -3.541  0.00  0.00    +0.143 C 
ATOM     21  N   UNL     1      -4.935  -7.733  -4.165  0.00  0.00    -0.159 NA
ATOM     22  C   UNL     1      -5.118  -8.908  -4.775  0.00  0.00    +0.271 C 
ATOM     23  O   UNL     1      -4.200  -9.471  -5.346  0.00  0.00    -0.268 OA
ATOM     24  C   UNL     1      -6.489  -9.511  -4.734  0.00  0.00    +0.071 C 
ATOM     25  C   UNL     1      -6.904 -10.669  -5.269  0.00  0.00    -0.045 C 
ATOM     26  C   UNL     1      -8.354 -11.051  -5.080  0.00  0.00    +0.076 C 
ATOM     27  S   UNL     1      -8.991  -9.629  -4.104  0.00  0.00    -0.098 S 
ATOM     28  C   UNL     1      -7.482  -8.698  -4.001  0.00  0.00    +0.112 C 
ATOM     29  N   UNL     1      -7.136  -7.559  -3.450  0.00  0.00    -0.226 NA
ATOM     30  C   UNL     1      -9.073 -11.158  -6.427  0.00  0.00    +0.024 C 
ATOM     31  C   UNL     1      -5.957 -11.559  -6.032  0.00  0.00    +0.041 C 
ENDBRANCH  18  20
ENDBRANCH   1  18
TORSDOF 4
