REMARK  Name = ZINC10030009
REMARK  5 active torsions:
REMARK  status: ('A' for Active; 'I' for Inactive)
REMARK    1  A    between atoms: C_1  and  C_2
REMARK    2  A    between atoms: C_4  and  N_17
REMARK    3  A    between atoms: C_6  and  C_7
REMARK    4  A    between atoms: N_9  and  C_10
REMARK    5  A    between atoms: C_18  and  C_20
REMARK                            x       y       z     vdW  Elec       q    Type
REMARK                         _______ _______ _______ _____ _____    ______ ____
ROOT
ATOM      1  C   UNL     1       4.921  -4.476  -0.413  0.00  0.00    +0.045 C 
ATOM      2  C   UNL     1       3.510  -5.002  -0.379  0.00  0.00    -0.029 A 
ATOM      3  C   UNL     1       3.247  -6.342  -0.472  0.00  0.00    +0.035 A 
ATOM      4  C   UNL     1       1.935  -6.766  -0.434  0.00  0.00    +0.073 A 
ATOM      5  S   UNL     1       1.049  -5.286  -0.259  0.00  0.00    -0.069 S 
ATOM      6  C   UNL     1       2.423  -4.148  -0.251  0.00  0.00    +0.079 A 
ENDROOT
BRANCH   6   7
ATOM      7  C   UNL     1       2.409  -2.735  -0.137  0.00  0.00    +0.255 C 
ATOM      8  O   UNL     1       3.456  -2.112  -0.144  0.00  0.00    -0.269 OA
ATOM      9  N   UNL     1       1.237  -2.079  -0.021  0.00  0.00    -0.281 N 
ATOM     10  H   UNL     1       0.408  -2.578   0.053  0.00  0.00    +0.155 HD
BRANCH   9  11
ATOM     11  C   UNL     1       1.216  -0.681  -0.005  0.00  0.00    +0.034 A 
ATOM     12  C   UNL     1       0.161   0.005  -0.594  0.00  0.00    +0.025 A 
ATOM     13  C   UNL     1       0.143   1.386  -0.577  0.00  0.00    +0.022 A 
ATOM     14  C   UNL     1       1.173   2.086   0.026  0.00  0.00    +0.041 A 
ATOM     15  C   UNL     1       2.225   1.405   0.613  0.00  0.00    +0.022 A 
ATOM     16  C   UNL     1       2.249   0.024   0.599  0.00  0.00    +0.025 A 
ATOM     17 CL   UNL     1       1.147   3.822   0.045  0.00  0.00    -0.084 Cl
ENDBRANCH   9  11
ENDBRANCH   6   7
BRANCH   4  18
ATOM     18  N   UNL     1       1.444  -8.062  -0.511  0.00  0.00    -0.273 N 
ATOM     19  C   UNL     1       0.116  -8.283  -0.457  0.00  0.00    +0.284 C 
ATOM     20  O   UNL     1      -0.653  -7.347  -0.340  0.00  0.00    -0.266 OA
ATOM     21  H   UNL     1       2.057  -8.808  -0.604  0.00  0.00    +0.156 HD
BRANCH  19  22
ATOM     22  C   UNL     1      -0.403  -9.652  -0.537  0.00  0.00    +0.189 A 
ATOM     23  C   UNL     1      -1.719 -10.015  -0.495  0.00  0.00    +0.054 A 
ATOM     24  C   UNL     1      -1.755 -11.414  -0.605  0.00  0.00    +0.042 A 
ATOM     25  C   UNL     1      -0.476 -11.838  -0.708  0.00  0.00    +0.196 A 
ATOM     26  O   UNL     1       0.336 -10.773  -0.673  0.00  0.00    -0.458 OA
ENDBRANCH  19  22
ENDBRANCH   4  18
TORSDOF 4
