REMARK  Name = ZINC42116409
REMARK  3 active torsions:
REMARK  status: ('A' for Active; 'I' for Inactive)
REMARK    1  A    between atoms: C_3  and  C_10
REMARK    2  A    between atoms: C_5  and  C_7
REMARK    3  A    between atoms: C_10  and  N_11
REMARK                            x       y       z     vdW  Elec       q    Type
REMARK                         _______ _______ _______ _____ _____    ______ ____
ROOT
ATOM      1  C   UNL     1       3.671   2.203  -0.021  0.00  0.00    +0.163 C 
ENDROOT
BRANCH   1   2
ATOM      2  N   UNL     1       4.101   2.449   1.357  0.00  0.00    -0.270 N 
ATOM      3  C   UNL     1       3.755   3.546   2.146  0.00  0.00    +0.091 A 
ATOM      4  C   UNL     1       2.969   4.666   1.926  0.00  0.00    +0.031 A 
ATOM      5  C   UNL     1       2.812   5.604   2.928  0.00  0.00    +0.017 A 
ATOM      6  C   UNL     1       3.439   5.428   4.151  0.00  0.00    +0.021 A 
ATOM      7  C   UNL     1       4.225   4.314   4.377  0.00  0.00    +0.063 A 
ATOM      8  C   UNL     1       4.386   3.367   3.377  0.00  0.00    +0.158 A 
ATOM      9  O   UNL     1       5.079   2.204   3.309  0.00  0.00    -0.407 OA
ATOM     10  C   UNL     1       4.899   1.654   2.097  0.00  0.00    +0.422 A 
ATOM     11  O   UNL     1       5.385   0.604   1.724  0.00  0.00    -0.223 OA
ATOM     12 BR   UNL     1       3.219   6.717   5.516  0.00  0.00    -0.050 Br
ENDBRANCH   1   2
BRANCH   1  15
ATOM     13  C   UNL     1      -0.017   1.375   0.010  0.00  0.00    +0.001 A 
ATOM     14  C   UNL     1       1.170   2.086   0.002  0.00  0.00    +0.005 A 
ATOM     15  C   UNL     1       2.383   1.420  -0.013  0.00  0.00    -0.027 A 
ATOM     16  C   UNL     1       2.416   0.041  -0.021  0.00  0.00    +0.018 A 
ATOM     17  C   UNL     1       1.222  -0.682  -0.014  0.00  0.00    +0.037 A 
ATOM     18  C   UNL     1       0.002  -0.004   0.002  0.00  0.00    +0.013 A 
BRANCH  17  19
ATOM     19  C   UNL     1       1.250  -2.161  -0.023  0.00  0.00    +0.242 C 
ATOM     20  O   UNL     1       2.313  -2.748  -0.037  0.00  0.00    -0.270 OA
ATOM     21  N   UNL     1       0.095  -2.856  -0.016  0.00  0.00    -0.325 N 
ATOM     22  H   UNL     1      -0.754  -2.387  -0.004  0.00  0.00    +0.145 HD
ATOM     23  H   UNL     1       0.113  -3.826  -0.022  0.00  0.00    +0.145 HD
ENDBRANCH  17  19
ENDBRANCH   1  15
TORSDOF 3
