REMARK  Name = ZINC04574537
REMARK  5 active torsions:
REMARK  status: ('A' for Active; 'I' for Inactive)
REMARK    1  A    between atoms: C_1  and  C_2
REMARK    2  A    between atoms: C_3  and  C_26
REMARK    3  A    between atoms: C_4  and  C_19
REMARK    4  A    between atoms: C_9  and  C_11
REMARK    5  A    between atoms: C_14  and  O_17
REMARK                            x       y       z     vdW  Elec       q    Type
REMARK                         _______ _______ _______ _____ _____    ______ ____
ROOT
ATOM      1  C   UNL     1       0.182  -2.732  -0.226  0.00  0.00    +0.061 C 
ATOM      2  C   UNL     1      -1.163  -2.063  -0.106  0.00  0.00    +0.018 C 
ATOM      3  C   UNL     1      -1.212  -0.763   0.216  0.00  0.00    +0.060 C 
ATOM      4  C   UNL     1      -2.502  -0.002   0.367  0.00  0.00    +0.178 C 
ATOM      5  N   UNL     1      -3.604  -0.803  -0.159  0.00  0.00    -0.220 N 
ATOM      6  C   UNL     1      -3.493  -2.118  -0.474  0.00  0.00    +0.219 A 
ATOM      7  N   UNL     1      -4.651  -2.533  -0.906  0.00  0.00    -0.193 NA
ATOM      8  C   UNL     1      -5.527  -1.514  -0.888  0.00  0.00    +0.183 A 
ATOM      9  N   UNL     1      -4.920  -0.435  -0.436  0.00  0.00    -0.147 NA
ATOM     10  N   UNL     1      -2.296  -2.807  -0.326  0.00  0.00    -0.287 N 
ATOM     11  H   UNL     1      -2.262  -3.775  -0.379  0.00  0.00    +0.155 HD
ENDROOT
BRANCH   4  12
ATOM     12  C   UNL     1      -2.746   0.290   1.826  0.00  0.00    -0.000 A 
ATOM     13  C   UNL     1      -2.869  -0.750   2.728  0.00  0.00    +0.007 A 
ATOM     14  C   UNL     1      -3.088  -0.482   4.066  0.00  0.00    +0.000 A 
ATOM     15  C   UNL     1      -3.193   0.826   4.502  0.00  0.00    +0.001 A 
ATOM     16  C   UNL     1      -3.074   1.867   3.600  0.00  0.00    +0.020 A 
ATOM     17  C   UNL     1      -2.850   1.599   2.261  0.00  0.00    +0.046 A 
ATOM     18 CL   UNL     1      -2.701   2.906   1.128  0.00  0.00    -0.083 Cl
ENDBRANCH   4  12
BRANCH   8  19
ATOM     19  C   UNL     1      -6.948  -1.592  -1.309  0.00  0.00    +0.021 A 
ATOM     20  C   UNL     1      -7.760  -0.461  -1.238  0.00  0.00    +0.015 A 
ATOM     21  C   UNL     1      -9.079  -0.535  -1.634  0.00  0.00    +0.046 A 
ATOM     22  C   UNL     1      -9.601  -1.736  -2.094  0.00  0.00    +0.117 A 
ATOM     23  C   UNL     1      -8.796  -2.866  -2.161  0.00  0.00    +0.046 A 
ATOM     24  C   UNL     1      -7.475  -2.797  -1.770  0.00  0.00    +0.015 A 
BRANCH  22  25
ATOM     25  O   UNL     1     -10.902  -1.808  -2.478  0.00  0.00    -0.507 OA
ATOM     26  H   UNL     1     -11.511  -2.043  -1.764  0.00  0.00    +0.292 HD
ENDBRANCH  22  25
ENDBRANCH   8  19
BRANCH   3  27
ATOM     27  C   UNL     1       0.006  -0.071   0.418  0.00  0.00    +0.241 C 
ATOM     28  O   UNL     1       0.409   0.710  -0.424  0.00  0.00    -0.271 OA
ATOM     29  N   UNL     1       0.719  -0.278   1.543  0.00  0.00    -0.325 N 
ATOM     30  H   UNL     1       1.554   0.196   1.682  0.00  0.00    +0.145 HD
ATOM     31  H   UNL     1       0.396  -0.897   2.216  0.00  0.00    +0.145 HD
ENDBRANCH   3  27
TORSDOF 4
