REMARK  Name = ZINC12497392
REMARK  10 active torsions:
REMARK  status: ('A' for Active; 'I' for Inactive)
REMARK    1  A    between atoms: C_1  and  C_2
REMARK    2  A    between atoms: C_5  and  N_8
REMARK    3  A    between atoms: C_13  and  C_30
REMARK    4  A    between atoms: C_15  and  C_20
REMARK    5  A    between atoms: C_15  and  C_26
REMARK    6  A    between atoms: C_26  and  O_28
REMARK    7  A    between atoms: O_28  and  C_29
REMARK    8  A    between atoms: C_33  and  O_38
REMARK    9  A    between atoms: C_34  and  O_36
REMARK   10  A    between atoms: O_36  and  C_37
REMARK                            x       y       z     vdW  Elec       q    Type
REMARK                         _______ _______ _______ _____ _____    ______ ____
ROOT
ATOM      1  N   UNL     1       3.951   0.617   3.190  0.00  0.00    -0.210 N 
ATOM      2  C   UNL     1       2.760   0.517   2.516  0.00  0.00    +0.229 C 
ATOM      3  O   UNL     1       1.723   0.029   2.912  0.00  0.00    -0.275 OA
ATOM      4  C   UNL     1       3.015   1.123   1.229  0.00  0.00    +0.078 C 
ATOM      5  C   UNL     1       2.470   1.107  -0.143  0.00  0.00    -0.026 C 
ATOM      6  C   UNL     1       4.828   1.659  -0.148  0.00  0.00    +0.070 C 
ATOM      7  C   UNL     1       4.510   0.672   0.973  0.00  0.00    +0.090 C 
ATOM      8  C   UNL     1       4.995   0.945   2.370  0.00  0.00    +0.229 C 
ATOM      9  O   UNL     1       6.082   1.368   2.700  0.00  0.00    -0.275 OA
ATOM     10  N   UNL     1       3.557   1.797  -0.907  0.00  0.00    +0.398 N 
ATOM     11  H   UNL     1       3.325   2.791  -1.017  0.00  0.00    -0.083 HD
ATOM     12  H   UNL     1       3.657   1.364  -1.833  0.00  0.00    -0.083 HD
ENDROOT
BRANCH   1  17
ATOM     13  C   UNL     1       4.488  -0.242   8.774  0.00  0.00    +0.044 C 
ATOM     14  C   UNL     1       4.346  -0.014   7.292  0.00  0.00    -0.050 A 
ATOM     15  C   UNL     1       3.106  -0.135   6.691  0.00  0.00    +0.005 A 
ATOM     16  C   UNL     1       2.972   0.074   5.332  0.00  0.00    +0.024 A 
ATOM     17  C   UNL     1       4.084   0.405   4.569  0.00  0.00    +0.044 A 
ATOM     18  C   UNL     1       5.328   0.520   5.174  0.00  0.00    +0.024 A 
ATOM     19  C   UNL     1       5.455   0.315   6.535  0.00  0.00    +0.005 A 
ENDBRANCH   1  17
BRANCH   6  20
ATOM     20  C   UNL     1       5.916   1.110  -1.035  0.00  0.00    -0.047 A 
ATOM     21  C   UNL     1       6.878   0.268  -0.509  0.00  0.00    +0.003 A 
ATOM     22  C   UNL     1       7.873  -0.239  -1.324  0.00  0.00    +0.000 A 
ATOM     23  C   UNL     1       7.911   0.103  -2.663  0.00  0.00    +0.000 A 
ATOM     24  C   UNL     1       6.952   0.949  -3.188  0.00  0.00    +0.000 A 
ATOM     25  C   UNL     1       5.955   1.453  -2.374  0.00  0.00    +0.003 A 
ENDBRANCH   6  20
BRANCH   5  26
ATOM     26  C   UNL     1       1.177   1.877  -0.218  0.00  0.00    -0.057 A 
ATOM     27  C   UNL     1       1.198   3.260  -0.236  0.00  0.00    +0.006 A 
ATOM     28  C   UNL     1       0.014   3.970  -0.305  0.00  0.00    +0.049 A 
ATOM     29  C   UNL     1      -1.196   3.298  -0.355  0.00  0.00    +0.158 A 
ATOM     30  C   UNL     1      -1.217   1.906  -0.342  0.00  0.00    +0.161 A 
ATOM     31  C   UNL     1      -0.027   1.200  -0.268  0.00  0.00    +0.051 A 
BRANCH  30  32
ATOM     32  O   UNL     1      -2.402   1.242  -0.396  0.00  0.00    -0.491 OA
ATOM     33  C   UNL     1      -2.346  -0.186  -0.373  0.00  0.00    +0.277 C 
ENDBRANCH  30  32
BRANCH  29  34
ATOM     34  O   UNL     1      -2.362   3.996  -0.423  0.00  0.00    -0.503 OA
ATOM     35  H   UNL     1      -2.655   4.185  -1.325  0.00  0.00    +0.292 HD
ENDBRANCH  29  34
ENDBRANCH   5  26
BRANCH   6  36
ATOM     36  C   UNL     1       5.244   2.988   0.428  0.00  0.00    +0.301 C 
ATOM     37  O   UNL     1       6.415   3.232   0.601  0.00  0.00    -0.252 OA
BRANCH  36  38
ATOM     38  O   UNL     1       4.314   3.900   0.750  0.00  0.00    -0.469 OA
ATOM     39  C   UNL     1       4.787   5.158   1.301  0.00  0.00    +0.280 C 
ENDBRANCH  36  38
ENDBRANCH   6  36
TORSDOF 7
