REMARK  Name = ZINC62997989
REMARK  5 active torsions:
REMARK  status: ('A' for Active; 'I' for Inactive)
REMARK    1  A    between atoms: C_1  and  C_2
REMARK    2  A    between atoms: C_4  and  N_17
REMARK    3  A    between atoms: C_5  and  C_16
REMARK    4  A    between atoms: C_7  and  O_8
REMARK    5  A    between atoms: O_8  and  C_9
REMARK                            x       y       z     vdW  Elec       q    Type
REMARK                         _______ _______ _______ _____ _____    ______ ____
ROOT
ATOM      1  C   UNL     1      -0.081   1.535   0.034  0.00  0.00    +0.047 C 
ATOM      2  C   UNL     1      -0.030   0.029   0.003  0.00  0.00    -0.006 A 
ATOM      3  C   UNL     1      -0.029  -0.637  -1.207  0.00  0.00    +0.030 A 
ATOM      4  C   UNL     1       0.019  -2.025  -1.234  0.00  0.00    +0.028 A 
ATOM      5  C   UNL     1       0.065  -2.741  -0.045  0.00  0.00    -0.026 A 
ATOM      6  C   UNL     1       0.063  -2.073   1.163  0.00  0.00    +0.051 A 
ATOM      7  C   UNL     1       0.021  -0.687   1.190  0.00  0.00    +0.134 A 
ATOM      8  C   UNL     1       0.116  -4.247  -0.074  0.00  0.00    +0.046 C 
ENDROOT
BRANCH   4   9
ATOM      9  N   UNL     1       0.020  -2.701  -2.459  0.00  0.00    -0.358 N 
ATOM     10  H   UNL     1      -0.012  -2.200  -3.290  0.00  0.00    +0.142 HD
ATOM     11  H   UNL     1       0.053  -3.670  -2.478  0.00  0.00    +0.142 HD
ENDBRANCH   4   9
BRANCH   7  12
ATOM     12  O   UNL     1       0.025  -0.030   2.381  0.00  0.00    -0.438 OA
BRANCH  12  13
ATOM     13  C   UNL     1       1.217   0.389   2.873  0.00  0.00    +0.221 A 
ATOM     14  C   UNL     1       1.273   0.983   4.128  0.00  0.00    +0.069 A 
ATOM     15  C   UNL     1       2.495   1.405   4.620  0.00  0.00    +0.022 A 
ATOM     16  C   UNL     1       3.626   1.217   3.835  0.00  0.00    +0.036 A 
ATOM     17  C   UNL     1       3.496   0.619   2.596  0.00  0.00    +0.130 A 
ATOM     18  N   UNL     1       2.317   0.222   2.157  0.00  0.00    -0.220 NA
ATOM     19 BR   UNL     1       5.323   1.774   4.455  0.00  0.00    -0.049 Br
ENDBRANCH  12  13
ENDBRANCH   7  12
TORSDOF 3
