REMARK  Name = ZINC63732823
REMARK  8 active torsions:
REMARK  status: ('A' for Active; 'I' for Inactive)
REMARK    1  A    between atoms: C_1  and  C_2
REMARK    2  A    between atoms: N_4  and  C_5
REMARK    3  A    between atoms: C_5  and  C_7
REMARK    4  A    between atoms: C_5  and  C_17
REMARK    5  A    between atoms: C_7  and  C_8
REMARK    6  A    between atoms: N_19  and  N_20
REMARK    7  A    between atoms: C_21  and  C_23
REMARK    8  A    between atoms: C_28  and  O_29
REMARK                            x       y       z     vdW  Elec       q    Type
REMARK                         _______ _______ _______ _____ _____    ______ ____
ROOT
ATOM      1  C   UNL     1       0.020  -2.136  -1.177  0.00  0.00    +0.164 C 
ENDROOT
BRANCH   1   5
ATOM      2  C   UNL     1      -0.018   1.503   0.010  0.00  0.00    +0.109 C 
ATOM      3  C   UNL     1       0.002  -0.004   0.002  0.00  0.00    +0.211 C 
ATOM      4  O   UNL     1       0.020  -0.616   1.049  0.00  0.00    -0.276 OA
ATOM      5  N   UNL     1       0.000  -0.672  -1.169  0.00  0.00    -0.304 N 
ATOM      6  H   UNL     1      -0.015  -0.182  -2.006  0.00  0.00    +0.149 HD
ENDBRANCH   1   5
BRANCH   1   7
ATOM      7  C   UNL     1       1.264  -2.626  -0.481  0.00  0.00    +0.250 C 
ATOM      8  O   UNL     1       1.862  -1.893   0.279  0.00  0.00    -0.272 OA
ATOM      9  N   UNL     1       1.712  -3.877  -0.703  0.00  0.00    -0.233 N 
ATOM     10  H   UNL     1       1.234  -4.463  -1.310  0.00  0.00    +0.173 HD
BRANCH   9  11
ATOM     11  N   UNL     1       2.868  -4.332  -0.056  0.00  0.00    -0.230 N 
ATOM     12  C   UNL     1       3.317  -5.584  -0.278  0.00  0.00    +0.264 C 
ATOM     13  O   UNL     1       2.717  -6.318  -1.039  0.00  0.00    -0.269 OA
ATOM     14  H   UNL     1       3.346  -3.747   0.552  0.00  0.00    +0.173 HD
BRANCH  12  15
ATOM     15  C   UNL     1       4.534  -6.063   0.404  0.00  0.00    +0.079 A 
ATOM     16  C   UNL     1       5.223  -5.224   1.284  0.00  0.00    +0.017 A 
ATOM     17  C   UNL     1       6.359  -5.678   1.917  0.00  0.00    +0.001 A 
ATOM     18  C   UNL     1       6.824  -6.963   1.685  0.00  0.00    +0.004 A 
ATOM     19  C   UNL     1       6.153  -7.801   0.817  0.00  0.00    +0.046 A 
ATOM     20  C   UNL     1       5.004  -7.363   0.176  0.00  0.00    +0.129 A 
BRANCH  20  21
ATOM     21  O   UNL     1       4.340  -8.189  -0.672  0.00  0.00    -0.506 OA
ATOM     22  H   UNL     1       4.640  -8.133  -1.590  0.00  0.00    +0.292 HD
ENDBRANCH  20  21
ENDBRANCH  12  15
ENDBRANCH   9  11
ENDBRANCH   1   7
BRANCH   1  23
ATOM     23  C   UNL     1      -1.215  -2.667  -0.447  0.00  0.00    +0.065 C 
BRANCH  23  24
ATOM     24  C   UNL     1      -2.455  -2.281  -1.211  0.00  0.00    -0.039 C 
ATOM     25  C   UNL     1      -3.119  -3.034  -2.117  0.00  0.00    -0.001 A 
ATOM     26  C   UNL     1      -2.894  -4.386  -2.643  0.00  0.00    +0.010 A 
ATOM     27  C   UNL     1      -3.750  -4.882  -3.566  0.00  0.00    +0.001 A 
ATOM     28  C   UNL     1      -4.843  -4.139  -4.032  0.00  0.00    +0.002 A 
ATOM     29  C   UNL     1      -5.115  -2.891  -3.596  0.00  0.00    +0.026 A 
ATOM     30  C   UNL     1      -4.282  -2.271  -2.625  0.00  0.00    +0.043 A 
ATOM     31  N   UNL     1      -4.334  -1.091  -2.055  0.00  0.00    -0.380 N 
ATOM     32  C   UNL     1      -3.213  -0.976  -1.115  0.00  0.00    +0.144 C 
ATOM     33  H   UNL     1      -5.004  -0.410  -2.223  0.00  0.00    +0.160 HD
ENDBRANCH  23  24
ENDBRANCH   1  23
TORSDOF 7
