REMARK  Name = ZINC65168142
REMARK  6 active torsions:
REMARK  status: ('A' for Active; 'I' for Inactive)
REMARK    1  A    between atoms: C_1  and  C_2
REMARK    2  A    between atoms: C_2  and  C_3
REMARK    3  A    between atoms: C_4  and  C_9
REMARK    4  A    between atoms: C_7  and  N_8
REMARK    5  A    between atoms: C_15  and  C_17
REMARK    6  A    between atoms: N_21  and  C_22
REMARK                            x       y       z     vdW  Elec       q    Type
REMARK                         _______ _______ _______ _____ _____    ______ ____
ROOT
ATOM      1  C   UNL     1       3.591  -1.601   0.656  0.00  0.00    +0.044 C 
ATOM      2  C   UNL     1       4.172  -2.518  -0.423  0.00  0.00    +0.029 C 
ATOM      3  C   UNL     1       4.808  -1.664  -1.525  0.00  0.00    +0.109 C 
ATOM      4  N   UNL     1       5.788  -0.756  -0.913  0.00  0.00    -0.296 N 
ATOM      5  C   UNL     1       5.357   0.105   0.196  0.00  0.00    +0.109 C 
ATOM      6  C   UNL     1       4.715  -0.768   1.278  0.00  0.00    +0.029 C 
ATOM      7  C   UNL     1       7.058  -0.715  -1.361  0.00  0.00    +0.263 C 
ATOM      8  O   UNL     1       7.446  -1.539  -2.169  0.00  0.00    -0.268 OA
ENDROOT
BRANCH   7   9
ATOM      9  C   UNL     1       7.974   0.322  -0.875  0.00  0.00    +0.104 A 
ATOM     10  C   UNL     1       7.620   1.577  -0.426  0.00  0.00    +0.032 A 
ATOM     11  C   UNL     1       8.800   2.231  -0.061  0.00  0.00    +0.020 A 
ATOM     12  C   UNL     1       9.832   1.384  -0.288  0.00  0.00    +0.086 A 
ATOM     13  N   UNL     1       9.343   0.218  -0.777  0.00  0.00    -0.346 N 
ATOM     14  C   UNL     1      10.139  -0.956  -1.144  0.00  0.00    +0.149 C 
ENDBRANCH   7   9
BRANCH   1  16
ATOM     15  C   UNL     1       1.586  -2.381   2.097  0.00  0.00    +0.037 A 
ATOM     16  C   UNL     1       2.935  -2.437   1.724  0.00  0.00    +0.092 A 
ATOM     17  N   UNL     1       3.526  -3.337   2.462  0.00  0.00    -0.081 NA
ATOM     18  O   UNL     1       2.561  -3.890   3.338  0.00  0.00    -0.339 OA
ATOM     19  C   UNL     1       1.387  -3.283   3.095  0.00  0.00    +0.219 A 
BRANCH  19  20
ATOM     20  N   UNL     1       0.191  -3.533   3.741  0.00  0.00    -0.327 N 
ATOM     21  H   UNL     1      -0.607  -3.041   3.491  0.00  0.00    +0.145 HD
ATOM     22  H   UNL     1       0.150  -4.199   4.444  0.00  0.00    +0.145 HD
ENDBRANCH  19  20
BRANCH  15  24
ATOM     23  C   UNL     1       0.502  -0.158   2.277  0.00  0.00    +0.009 C 
ATOM     24  C   UNL     1       0.539  -1.476   1.500  0.00  0.00    +0.039 C 
ENDBRANCH  15  24
ENDBRANCH   1  16
TORSDOF 4
