REMARK  Name = ZINC04531310
REMARK  7 active torsions:
REMARK  status: ('A' for Active; 'I' for Inactive)
REMARK    1  A    between atoms: C_1  and  C_2
REMARK    2  A    between atoms: C_2  and  C_4
REMARK    3  A    between atoms: C_2  and  S_17
REMARK    4  A    between atoms: N_6  and  N_7
REMARK    5  A    between atoms: C_8  and  C_9
REMARK    6  A    between atoms: C_14  and  O_15
REMARK    7  A    between atoms: S_17  and  C_18
REMARK                            x       y       z     vdW  Elec       q    Type
REMARK                         _______ _______ _______ _____ _____    ______ ____
ROOT
ATOM      1  C   UNL     1      -0.019   1.526   0.010  0.00  0.00    +0.029 C 
ATOM      2  C   UNL     1       0.002  -0.004   0.002  0.00  0.00    +0.138 C 
ENDROOT
BRANCH   2   3
ATOM      3  C   UNL     1      -1.412  -0.526   0.013  0.00  0.00    +0.245 C 
ATOM      4  O   UNL     1      -1.927  -0.901  -1.019  0.00  0.00    -0.273 OA
ATOM      5  N   UNL     1      -2.103  -0.575   1.169  0.00  0.00    -0.206 N 
ATOM      6  H   UNL     1      -1.691  -0.275   1.994  0.00  0.00    +0.177 HD
BRANCH   5   7
ATOM      7  N   UNL     1      -3.417  -1.060   1.179  0.00  0.00    -0.188 NA
ATOM      8  C   UNL     1      -4.083  -1.107   2.292  0.00  0.00    +0.142 C 
BRANCH   8   9
ATOM      9  C   UNL     1      -5.466  -1.617   2.302  0.00  0.00    +0.037 A 
ATOM     10  C   UNL     1      -6.188  -1.665   3.497  0.00  0.00    +0.028 A 
ATOM     11  C   UNL     1      -7.482  -2.143   3.500  0.00  0.00    +0.019 A 
ATOM     12  C   UNL     1      -8.068  -2.577   2.322  0.00  0.00    +0.019 A 
ATOM     13  C   UNL     1      -7.364  -2.535   1.134  0.00  0.00    +0.047 A 
ATOM     14  C   UNL     1      -6.066  -2.052   1.112  0.00  0.00    +0.126 A 
ATOM     15 BR   UNL     1      -8.459  -2.207   5.117  0.00  0.00    -0.050 Br
BRANCH  14  16
ATOM     16  O   UNL     1      -5.375  -2.006  -0.056  0.00  0.00    -0.506 OA
ATOM     17  H   UNL     1      -4.872  -2.809  -0.248  0.00  0.00    +0.292 HD
ENDBRANCH  14  16
ENDBRANCH   8   9
ENDBRANCH   5   7
ENDBRANCH   2   3
BRANCH   2  18
ATOM     18  S   UNL     1       0.851  -0.589  -1.490  0.00  0.00    -0.075 S 
BRANCH  18  19
ATOM     19  C   UNL     1       2.509  -0.029  -1.285  0.00  0.00    +0.170 A 
ATOM     20  N   UNL     1       3.418  -0.311  -2.265  0.00  0.00    -0.301 N 
ATOM     21  H   UNL     1       3.141  -0.810  -3.049  0.00  0.00    +0.171 HD
ATOM     22  C   UNL     1       4.702   0.101  -2.149  0.00  0.00    +0.260 A 
ATOM     23  O   UNL     1       5.524  -0.143  -3.013  0.00  0.00    -0.267 OA
ATOM     24  C   UNL     1       5.066   0.853  -0.940  0.00  0.00    +0.065 A 
ATOM     25  C   UNL     1       6.362   1.320  -0.727  0.00  0.00    +0.015 A 
ATOM     26  C   UNL     1       6.648   2.016   0.416  0.00  0.00    +0.001 A 
ATOM     27  C   UNL     1       5.662   2.259   1.363  0.00  0.00    +0.002 A 
ATOM     28  C   UNL     1       4.384   1.812   1.180  0.00  0.00    +0.028 A 
ATOM     29  C   UNL     1       4.060   1.099   0.022  0.00  0.00    +0.079 A 
ATOM     30  N   UNL     1       2.811   0.644  -0.202  0.00  0.00    -0.223 NA
ENDBRANCH  18  19
ENDBRANCH   2  18
TORSDOF 6
