REMARK  Name = ZINC40591453
REMARK  8 active torsions:
REMARK  status: ('A' for Active; 'I' for Inactive)
REMARK    1  A    between atoms: C_1  and  C_2
REMARK    2  A    between atoms: C_2  and  C_3
REMARK    3  A    between atoms: C_3  and  C_4
REMARK    4  A    between atoms: C_4  and  C_5
REMARK    5  A    between atoms: C_4  and  C_6
REMARK    6  A    between atoms: C_4  and  N_9
REMARK    7  A    between atoms: N_12  and  C_13
REMARK    8  A    between atoms: N_12  and  C_14
REMARK                            x       y       z     vdW  Elec       q    Type
REMARK                         _______ _______ _______ _____ _____    ______ ____
ROOT
ATOM      1  N   UNL     1      -2.787  -2.571   0.015  0.00  0.00    -0.284 N 
ATOM      2  C   UNL     1      -3.015  -3.899   0.010  0.00  0.00    +0.303 C 
ATOM      3  O   UNL     1      -2.080  -4.676  -0.003  0.00  0.00    -0.253 OA
ATOM      4  N   UNL     1      -4.280  -4.365   0.019  0.00  0.00    -0.284 N 
ATOM      5  C   UNL     1      -5.406  -3.429   0.035  0.00  0.00    +0.134 C 
ATOM      6  H   UNL     1      -3.533  -1.950   0.025  0.00  0.00    +0.151 HD
ENDROOT
BRANCH   4   7
ATOM      7  C   UNL     1      -4.528  -5.809   0.014  0.00  0.00    +0.100 C 
ATOM      8  C   UNL     1      -5.328  -6.194   1.270  0.00  0.00    +0.047 C 
ATOM      9  C   UNL     1      -5.844  -7.650   1.087  0.00  0.00    +0.168 C 
ATOM     10  S   UNL     1      -6.340  -7.612  -0.687  0.00  0.00    -0.029 S 
ATOM     11  O   UNL     1      -5.876  -8.796  -1.322  0.00  0.00    -0.174 OA
ATOM     12  O   UNL     1      -7.715  -7.266  -0.774  0.00  0.00    -0.174 OA
ATOM     13  C   UNL     1      -5.327  -6.189  -1.256  0.00  0.00    +0.188 C 
ENDBRANCH   4   7
BRANCH   1  14
ATOM     14  C   UNL     1      -1.413  -2.063   0.004  0.00  0.00    +0.134 C 
ATOM     15  C   UNL     1      -0.673  -2.570   1.244  0.00  0.00    +0.044 C 
BRANCH  14  16
ATOM     16  C   UNL     1      -0.707  -2.550  -1.235  0.00  0.00    +0.379 C 
ATOM     17  O   UNL     1       0.454  -2.238  -1.438  0.00  0.00    -0.244 OA
ATOM     18  O   UNL     1      -1.298  -3.254  -2.036  0.00  0.00    -0.244 OA
ENDBRANCH  14  16
BRANCH  14  19
ATOM     19  C   UNL     1      -1.433  -0.534   0.013  0.00  0.00    +0.037 C 
BRANCH  19  21
ATOM     20  C   UNL     1      -0.019   1.526   0.010  0.00  0.00    +0.004 C 
ATOM     21  C   UNL     1       0.002  -0.004   0.002  0.00  0.00    -0.001 C 
ENDBRANCH  19  21
ENDBRANCH  14  19
ENDBRANCH   1  14
TORSDOF 5
