REMARK  Name = ZINC43140505
REMARK  5 active torsions:
REMARK  status: ('A' for Active; 'I' for Inactive)
REMARK    1  A    between atoms: C_1  and  C_2
REMARK    2  A    between atoms: C_2  and  C_4
REMARK    3  A    between atoms: C_2  and  N_12
REMARK    4  A    between atoms: N_15  and  N_16
REMARK    5  A    between atoms: N_19  and  C_20
REMARK                            x       y       z     vdW  Elec       q    Type
REMARK                         _______ _______ _______ _____ _____    ______ ____
ROOT
ATOM      1  N   UNL     1       0.709  -0.508   1.182  0.00  0.00    -0.292 N 
ATOM      2  C   UNL     1       2.052  -0.620   1.166  0.00  0.00    +0.316 C 
ATOM      3  O   UNL     1       2.675  -0.325   0.165  0.00  0.00    -0.251 OA
ATOM      4  N   UNL     1       2.705  -1.060   2.260  0.00  0.00    -0.217 N 
ATOM      5  H   UNL     1       0.212  -0.744   1.981  0.00  0.00    +0.151 HD
ATOM      6  H   UNL     1       3.671  -1.141   2.249  0.00  0.00    +0.174 HD
ENDROOT
BRANCH   4   7
ATOM      7  N   UNL     1       1.987  -1.401   3.414  0.00  0.00    -0.217 N 
ATOM      8  C   UNL     1       2.639  -1.840   4.509  0.00  0.00    +0.320 C 
ATOM      9  O   UNL     1       2.016  -2.136   5.510  0.00  0.00    -0.251 OA
ATOM     10  N   UNL     1       3.982  -1.952   4.493  0.00  0.00    -0.268 N 
ATOM     11  H   UNL     1       1.020  -1.320   3.426  0.00  0.00    +0.174 HD
ATOM     12  H   UNL     1       4.473  -1.782   3.674  0.00  0.00    +0.156 HD
BRANCH  10  13
ATOM     13  C   UNL     1       4.668  -2.315   5.658  0.00  0.00    +0.035 A 
ATOM     14  C   UNL     1       5.917  -1.773   5.928  0.00  0.00    +0.023 A 
ATOM     15  C   UNL     1       6.591  -2.133   7.078  0.00  0.00    +0.002 A 
ATOM     16  C   UNL     1       6.023  -3.033   7.961  0.00  0.00    +0.000 A 
ATOM     17  C   UNL     1       4.779  -3.576   7.695  0.00  0.00    +0.002 A 
ATOM     18  C   UNL     1       4.097  -3.215   6.549  0.00  0.00    +0.023 A 
ENDBRANCH  10  13
ENDBRANCH   4   7
BRANCH   1  20
ATOM     19  C   UNL     1      -0.018   1.500  -0.010  0.00  0.00    +0.033 C 
ATOM     20  C   UNL     1       0.000  -0.030  -0.008  0.00  0.00    +0.103 C 
BRANCH  20  21
ATOM     21  C   UNL     1      -1.414  -0.550   0.008  0.00  0.00    -0.009 A 
ATOM     22  C   UNL     1      -2.016  -0.879   1.208  0.00  0.00    +0.008 A 
ATOM     23  C   UNL     1      -3.313  -1.356   1.223  0.00  0.00    +0.020 A 
ATOM     24  C   UNL     1      -4.010  -1.504   0.037  0.00  0.00    +0.042 A 
ATOM     25  C   UNL     1      -3.409  -1.174  -1.164  0.00  0.00    +0.040 A 
ATOM     26  C   UNL     1      -2.112  -0.692  -1.178  0.00  0.00    +0.047 A 
ATOM     27 CL   UNL     1      -1.358  -0.273  -2.685  0.00  0.00    -0.083 Cl
ATOM     28 CL   UNL     1      -5.639  -2.103   0.056  0.00  0.00    -0.083 Cl
ENDBRANCH  20  21
ENDBRANCH   1  20
TORSDOF 4
