REMARK  Name = ZINC65780138
REMARK  4 active torsions:
REMARK  status: ('A' for Active; 'I' for Inactive)
REMARK    1  A    between atoms: C_1  and  C_2
REMARK    2  A    between atoms: C_12  and  C_14
REMARK    3  A    between atoms: C_14  and  C_15
REMARK    4  A    between atoms: C_14  and  N_16
REMARK                            x       y       z     vdW  Elec       q    Type
REMARK                         _______ _______ _______ _____ _____    ______ ____
ROOT
ATOM      1  C   UNL     1      -0.470   0.436   0.305  0.00  0.00    +0.008 C 
ATOM      2  C   UNL     1      -0.053  -1.030   0.439  0.00  0.00    -0.008 C 
ATOM      3  C   UNL     1       0.645  -1.483  -0.847  0.00  0.00    +0.022 C 
ATOM      4  C   UNL     1       1.877  -0.610  -1.100  0.00  0.00    +0.108 C 
ATOM      5  N   UNL     1       2.733  -0.625   0.096  0.00  0.00    -0.297 N 
ATOM      6  C   UNL     1       2.127  -0.276   1.385  0.00  0.00    +0.079 C 
ATOM      7  C   UNL     1       0.911  -1.181   1.614  0.00  0.00    +0.012 C 
ATOM      8  C   UNL     1       0.233  -0.784   2.924  0.00  0.00    +0.005 C 
ATOM      9  C   UNL     1       1.223  -0.974   4.077  0.00  0.00    +0.000 C 
ATOM     10  C   UNL     1       2.460  -0.104   3.848  0.00  0.00    +0.002 C 
ATOM     11  C   UNL     1       3.126  -0.485   2.523  0.00  0.00    +0.023 C 
ATOM     12  C   UNL     1       4.038  -0.951   0.010  0.00  0.00    +0.236 C 
ATOM     13  O   UNL     1       4.750  -0.865   0.988  0.00  0.00    -0.274 OA
ENDROOT
BRANCH  12  14
ATOM     14  C   UNL     1       4.611  -1.424  -1.301  0.00  0.00    +0.157 C 
ATOM     15  C   UNL     1       4.963  -0.214  -2.169  0.00  0.00    +0.038 C 
BRANCH  14  16
ATOM     16  N   UNL     1       5.820  -2.212  -1.049  0.00  0.00    -0.289 N 
ATOM     17  C   UNL     1       6.222  -3.135  -1.945  0.00  0.00    +0.298 C 
ATOM     18  O   UNL     1       5.581  -3.313  -2.963  0.00  0.00    -0.253 OA
ATOM     19  N   UNL     1       7.334  -3.860  -1.713  0.00  0.00    -0.313 N 
ATOM     20  H   UNL     1       6.332  -2.069  -0.237  0.00  0.00    +0.151 HD
ATOM     21  H   UNL     1       7.846  -3.717  -0.901  0.00  0.00    +0.146 HD
ATOM     22  H   UNL     1       7.623  -4.524  -2.358  0.00  0.00    +0.146 HD
ENDBRANCH  14  16
ENDBRANCH  12  14
TORSDOF 2
