REMARK  Name = ZINC00274428
REMARK  7 active torsions:
REMARK  status: ('A' for Active; 'I' for Inactive)
REMARK    1  A    between atoms: C_1  and  O_2
REMARK    2  A    between atoms: O_2  and  C_3
REMARK    3  A    between atoms: C_5  and  C_11
REMARK    4  A    between atoms: C_8  and  O_9
REMARK    5  A    between atoms: N_12  and  N_13
REMARK    6  A    between atoms: C_14  and  C_16
REMARK    7  A    between atoms: C_16  and  C_17
REMARK                            x       y       z     vdW  Elec       q    Type
REMARK                         _______ _______ _______ _____ _____    ______ ____
ROOT
ATOM      1  C   UNL     1      -1.201  -0.638   0.010  0.00  0.00    +0.163 A 
ATOM      2  C   UNL     1      -2.371   0.099   0.019  0.00  0.00    +0.059 A 
ATOM      3  C   UNL     1      -3.605  -0.555   0.028  0.00  0.00    -0.001 A 
ATOM      4  C   UNL     1      -3.652  -1.951   0.026  0.00  0.00    +0.028 A 
ATOM      5  C   UNL     1      -2.481  -2.680   0.017  0.00  0.00    +0.063 A 
ATOM      6  C   UNL     1      -1.255  -2.030   0.003  0.00  0.00    +0.173 A 
ATOM      7 BR   UNL     1      -2.546  -4.570   0.015  0.00  0.00    -0.046 Br
ENDROOT
BRANCH   1   9
ATOM      8  C   UNL     1      -0.017   1.425   0.010  0.00  0.00    +0.277 C 
ATOM      9  O   UNL     1       0.002  -0.004   0.002  0.00  0.00    -0.491 OA
ENDBRANCH   1   9
BRANCH   6  10
ATOM     10  O   UNL     1      -0.104  -2.753  -0.012  0.00  0.00    -0.503 OA
ATOM     11  H   UNL     1       0.238  -2.967   0.867  0.00  0.00    +0.292 HD
ENDBRANCH   6  10
BRANCH   3  12
ATOM     12  C   UNL     1      -4.855   0.227   0.038  0.00  0.00    +0.138 C 
ATOM     13  N   UNL     1      -6.001  -0.382   0.046  0.00  0.00    -0.188 NA
BRANCH  13  14
ATOM     14  N   UNL     1      -7.189   0.360   0.056  0.00  0.00    -0.206 N 
ATOM     15  C   UNL     1      -8.379  -0.272   0.064  0.00  0.00    +0.246 C 
ATOM     16  O   UNL     1      -8.422  -1.485   0.063  0.00  0.00    -0.273 OA
ATOM     17  H   UNL     1      -7.155   1.330   0.057  0.00  0.00    +0.177 HD
BRANCH  15  18
ATOM     18  C   UNL     1      -9.657   0.526   0.075  0.00  0.00    +0.215 C 
BRANCH  18  19
ATOM     19  C   UNL     1     -10.809  -0.390   0.082  0.00  0.00    +0.072 C 
ATOM     20  N   UNL     1     -11.698  -1.098   0.088  0.00  0.00    -0.196 NA
ENDBRANCH  18  19
ENDBRANCH  15  18
ENDBRANCH  13  14
ENDBRANCH   3  12
TORSDOF 6
