REMARK  Name = ZINC05608669
REMARK  10 active torsions:
REMARK  status: ('A' for Active; 'I' for Inactive)
REMARK    1  A    between atoms: C_4  and  C_7
REMARK    2  A    between atoms: C_7  and  O_8
REMARK    3  A    between atoms: O_8  and  C_9
REMARK    4  A    between atoms: C_15  and  C_17
REMARK    5  A    between atoms: N_19  and  C_20
REMARK    6  A    between atoms: C_20  and  C_22
REMARK    7  A    between atoms: C_20  and  C_30
REMARK    8  A    between atoms: C_22  and  C_23
REMARK    9  A    between atoms: C_26  and  O_29
REMARK   10  A    between atoms: N_32  and  N_33
REMARK                            x       y       z     vdW  Elec       q    Type
REMARK                         _______ _______ _______ _____ _____    ______ ____
ROOT
ATOM      1  C   UNL     1      -0.733   1.976  -1.215  0.00  0.00    +0.234 C 
ATOM      2  O   UNL     1      -0.887   1.248  -2.173  0.00  0.00    -0.274 OA
ATOM      3  N   UNL     1      -1.200   3.239  -1.246  0.00  0.00    -0.302 N 
ATOM      4  H   UNL     1      -1.076   3.821  -0.479  0.00  0.00    +0.150 HD
ENDROOT
BRANCH   1  11
ATOM      5  C   UNL     1      -1.082  -0.804   0.028  0.00  0.00    +0.404 C 
ATOM      6  O   UNL     1      -2.195  -0.319   0.061  0.00  0.00    -0.226 OA
ATOM      7  N   UNL     1       0.002  -0.004   0.002  0.00  0.00    -0.256 N 
ATOM      8  C   UNL     1       1.404  -0.458  -0.040  0.00  0.00    +0.112 C 
ATOM      9  C   UNL     1       2.219   0.718   0.556  0.00  0.00    +0.021 C 
ATOM     10  C   UNL     1       1.449   1.944  -0.001  0.00  0.00    +0.033 C 
ATOM     11  C   UNL     1      -0.018   1.466   0.010  0.00  0.00    +0.165 C 
BRANCH   5  12
ATOM     12  O   UNL     1      -0.931  -2.142   0.017  0.00  0.00    -0.445 OA
BRANCH  12  13
ATOM     13  C   UNL     1      -2.143  -2.942   0.046  0.00  0.00    +0.269 C 
BRANCH  13  17
ATOM     14  C   UNL     1      -1.114  -7.088  -0.004  0.00  0.00    +0.000 A 
ATOM     15  C   UNL     1      -1.247  -6.423   1.201  0.00  0.00    +0.000 A 
ATOM     16  C   UNL     1      -1.580  -5.082   1.217  0.00  0.00    +0.007 A 
ATOM     17  C   UNL     1      -1.780  -4.405   0.028  0.00  0.00    -0.010 A 
ATOM     18  C   UNL     1      -1.651  -5.071  -1.176  0.00  0.00    +0.007 A 
ATOM     19  C   UNL     1      -1.313  -6.411  -1.192  0.00  0.00    +0.000 A 
ENDBRANCH  13  17
ENDBRANCH  12  13
ENDBRANCH   5  12
ENDBRANCH   1  11
BRANCH   3  20
ATOM     20  C   UNL     1      -1.895   3.735  -2.436  0.00  0.00    +0.164 C 
BRANCH  20  21
ATOM     21  C   UNL     1      -3.350   3.352  -2.364  0.00  0.00    +0.247 C 
ATOM     22  O   UNL     1      -3.767   2.726  -1.412  0.00  0.00    -0.272 OA
ATOM     23  N   UNL     1      -4.190   3.704  -3.358  0.00  0.00    -0.252 N 
ATOM     24  H   UNL     1      -3.857   4.204  -4.120  0.00  0.00    +0.169 HD
BRANCH  23  25
ATOM     25  N   UNL     1      -5.509   3.357  -3.293  0.00  0.00    -0.254 NA
ATOM     26  H   UNL     1      -5.932   3.698  -2.442  0.00  0.00    +0.140 HD
ATOM     27  H   UNL     1      -6.011   3.687  -4.104  0.00  0.00    +0.140 HD
ENDBRANCH  23  25
ENDBRANCH  20  21
BRANCH  20  28
ATOM     28  C   UNL     1      -1.771   5.258  -2.502  0.00  0.00    +0.067 C 
BRANCH  28  29
ATOM     29  C   UNL     1      -0.325   5.637  -2.697  0.00  0.00    -0.045 A 
ATOM     30  C   UNL     1       0.485   5.855  -1.599  0.00  0.00    +0.007 A 
ATOM     31  C   UNL     1       1.812   6.197  -1.776  0.00  0.00    +0.045 A 
ATOM     32  C   UNL     1       2.328   6.332  -3.056  0.00  0.00    +0.117 A 
ATOM     33  C   UNL     1       1.511   6.119  -4.157  0.00  0.00    +0.045 A 
ATOM     34  C   UNL     1       0.186   5.771  -3.975  0.00  0.00    +0.007 A 
BRANCH  32  35
ATOM     35  O   UNL     1       3.631   6.675  -3.232  0.00  0.00    -0.507 OA
ATOM     36  H   UNL     1       3.784   7.628  -3.283  0.00  0.00    +0.292 HD
ENDBRANCH  32  35
ENDBRANCH  28  29
ENDBRANCH  20  28
ENDBRANCH   3  20
TORSDOF 10
