REMARK  Name = ZINC50656549
REMARK  6 active torsions:
REMARK  status: ('A' for Active; 'I' for Inactive)
REMARK    1  A    between atoms: C_1  and  C_2
REMARK    2  A    between atoms: C_2  and  N_3
REMARK    3  A    between atoms: C_5  and  N_8
REMARK    4  A    between atoms: N_8  and  S_9
REMARK    5  A    between atoms: S_9  and  C_12
REMARK    6  A    between atoms: C_17  and  N_18
REMARK                            x       y       z     vdW  Elec       q    Type
REMARK                         _______ _______ _______ _____ _____    ______ ____
ROOT
ATOM      1  S   UNL     1       2.309  -3.485   4.513  0.00  0.00    +0.076 S 
ATOM      2  O   UNL     1       3.561  -2.818   4.602  0.00  0.00    -0.150 OA
ATOM      3  O   UNL     1       1.774  -4.248   5.585  0.00  0.00    -0.150 OA
ENDROOT
BRANCH   1   4
ATOM      4  C   UNL     1       2.415  -4.569   3.127  0.00  0.00    +0.149 A 
ATOM      5  C   UNL     1       3.589  -4.668   2.403  0.00  0.00    +0.049 A 
ATOM      6  C   UNL     1       3.627  -5.536   1.318  0.00  0.00    +0.038 A 
ATOM      7  C   UNL     1       2.500  -6.268   0.998  0.00  0.00    +0.128 A 
ATOM      8  N   UNL     1       1.394  -6.152   1.707  0.00  0.00    -0.238 NA
ATOM      9  C   UNL     1       1.320  -5.341   2.751  0.00  0.00    +0.143 A 
ATOM     10 BR   UNL     1       5.205  -5.712   0.291  0.00  0.00    -0.049 Br
BRANCH   9  11
ATOM     11  N   UNL     1       0.136  -5.255   3.475  0.00  0.00    -0.342 N 
ATOM     12  H   UNL     1       0.096  -4.712   4.277  0.00  0.00    +0.144 HD
ATOM     13  H   UNL     1      -0.650  -5.739   3.177  0.00  0.00    +0.144 HD
ENDBRANCH   9  11
ENDBRANCH   1   4
BRANCH   1  14
ATOM     14  N   UNL     1       1.182  -2.329   4.145  0.00  0.00    -0.213 N 
ATOM     15  H   UNL     1       0.373  -2.255   4.675  0.00  0.00    +0.174 HD
BRANCH  14  18
ATOM     16  N   UNL     1       1.091  -0.254   1.255  0.00  0.00    -0.270 N 
ATOM     17  C   UNL     1       0.487  -1.117   2.115  0.00  0.00    +0.132 A 
ATOM     18  C   UNL     1       1.397  -1.455   3.062  0.00  0.00    +0.085 A 
ATOM     19  C   UNL     1       2.591  -0.779   2.773  0.00  0.00    +0.158 A 
ATOM     20  N   UNL     1       2.409  -0.066   1.690  0.00  0.00    -0.178 NA
BRANCH  16  22
ATOM     21  C   UNL     1       0.621   1.886   0.168  0.00  0.00    +0.029 C 
ATOM     22  C   UNL     1       0.474   0.366   0.079  0.00  0.00    +0.140 C 
ENDBRANCH  16  22
ENDBRANCH  14  18
ENDBRANCH   1  14
TORSDOF 5
