REMARK  Name = ZINC09220788
REMARK  5 active torsions:
REMARK  status: ('A' for Active; 'I' for Inactive)
REMARK    1  A    between atoms: C_1  and  C_2
REMARK    2  A    between atoms: C_3  and  C_16
REMARK    3  A    between atoms: C_7  and  N_15
REMARK    4  A    between atoms: C_9  and  C_11
REMARK    5  A    between atoms: C_11  and  C_13
REMARK                            x       y       z     vdW  Elec       q    Type
REMARK                         _______ _______ _______ _____ _____    ______ ____
ROOT
ATOM      1  C   UNL     1      -2.988   3.195  -6.921  0.00  0.00    +0.045 C 
ATOM      2  C   UNL     1      -1.776   3.702  -6.181  0.00  0.00    -0.028 A 
ATOM      3  C   UNL     1      -1.008   4.662  -6.715  0.00  0.00    -0.008 A 
ATOM      4  S   UNL     1       0.264   4.909  -5.490  0.00  0.00    -0.074 S 
ATOM      5  C   UNL     1      -0.271   3.715  -4.293  0.00  0.00    +0.114 A 
ATOM      6  C   UNL     1      -1.428   3.156  -4.881  0.00  0.00    +0.050 A 
ATOM      7  C   UNL     1      -2.074   2.147  -4.115  0.00  0.00    +0.128 A 
ATOM      8  N   UNL     1      -1.566   1.802  -2.943  0.00  0.00    -0.216 NA
ATOM      9  C   UNL     1      -0.480   2.372  -2.452  0.00  0.00    +0.150 A 
ATOM     10  N   UNL     1       0.163   3.314  -3.115  0.00  0.00    -0.223 NA
ATOM     11  C   UNL     1      -1.179   5.366  -8.037  0.00  0.00    +0.052 C 
ENDROOT
BRANCH   9  12
ATOM     12  C   UNL     1       0.038   1.933  -1.107  0.00  0.00    +0.145 C 
ATOM     13  C   UNL     1      -0.850   2.511  -0.004  0.00  0.00    +0.033 C 
ATOM     14 CL   UNL     1       0.018   0.133  -1.013  0.00  0.00    -0.114 Cl
ENDBRANCH   9  12
BRANCH   7  15
ATOM     15  N   UNL     1      -3.216   1.529  -4.593  0.00  0.00    -0.343 N 
ATOM     16  H   UNL     1      -3.820   2.012  -5.178  0.00  0.00    +0.144 HD
ATOM     17  H   UNL     1      -3.412   0.613  -4.342  0.00  0.00    +0.144 HD
ENDBRANCH   7  15
TORSDOF 2
