REMARK  Name = ZINC15016142
REMARK  3 active torsions:
REMARK  status: ('A' for Active; 'I' for Inactive)
REMARK    1  A    between atoms: C_1  and  C_2
REMARK    2  A    between atoms: C_8  and  C_12
REMARK    3  A    between atoms: C_8  and  O_24
REMARK                            x       y       z     vdW  Elec       q    Type
REMARK                         _______ _______ _______ _____ _____    ______ ____
ROOT
ATOM      1  C   UNL     1      -0.018   1.503   0.010  0.00  0.00    +0.044 C 
ATOM      2  C   UNL     1       0.002  -0.004   0.002  0.00  0.00    -0.050 A 
ATOM      3  C   UNL     1       0.006  -0.691  -1.198  0.00  0.00    +0.005 A 
ATOM      4  C   UNL     1       0.025  -2.070  -1.213  0.00  0.00    +0.024 A 
ATOM      5  C   UNL     1       0.040  -2.782  -0.015  0.00  0.00    +0.040 A 
ATOM      6  C   UNL     1       0.037  -2.081   1.184  0.00  0.00    +0.015 A 
ATOM      7  C   UNL     1       0.023  -0.704   1.196  0.00  0.00    +0.012 A 
ATOM      8  C   UNL     1       0.056  -3.118   2.283  0.00  0.00    +0.184 C 
ATOM      9  C   UNL     1       0.071  -4.439   1.543  0.00  0.00    +0.255 C 
ATOM     10  O   UNL     1       0.088  -5.544   2.042  0.00  0.00    -0.272 OA
ATOM     11  N   UNL     1       0.060  -4.156   0.229  0.00  0.00    -0.282 N 
ATOM     12  H   UNL     1       0.066  -4.829  -0.469  0.00  0.00    +0.155 HD
ENDROOT
BRANCH   8  13
ATOM     13  C   UNL     1       1.316  -2.969   3.138  0.00  0.00    +0.152 C 
ATOM     14  C   UNL     1       1.421  -4.106   4.129  0.00  0.00    -0.010 A 
ATOM     15  C   UNL     1       0.616  -4.522   5.165  0.00  0.00    +0.021 A 
ATOM     16  C   UNL     1       0.977  -5.625   5.920  0.00  0.00    +0.018 A 
ATOM     17  C   UNL     1       2.148  -6.304   5.630  0.00  0.00    +0.017 A 
ATOM     18  C   UNL     1       2.956  -5.888   4.592  0.00  0.00    +0.025 A 
ATOM     19  C   UNL     1       2.598  -4.779   3.828  0.00  0.00    +0.038 A 
ATOM     20  N   UNL     1       3.238  -4.173   2.745  0.00  0.00    -0.285 N 
ATOM     21  C   UNL     1       2.558  -3.107   2.282  0.00  0.00    +0.228 C 
ATOM     22  O   UNL     1       2.876  -2.392   1.355  0.00  0.00    -0.275 OA
ATOM     23 BR   UNL     1      -0.125  -6.201   7.344  0.00  0.00    -0.050 Br
ATOM     24  H   UNL     1       4.077  -4.483   2.370  0.00  0.00    +0.155 HD
ENDBRANCH   8  13
BRANCH   8  25
ATOM     25  O   UNL     1      -1.116  -3.011   3.094  0.00  0.00    -0.374 OA
ATOM     26  H   UNL     1      -1.943  -3.128   2.606  0.00  0.00    +0.211 HD
ENDBRANCH   8  25
TORSDOF 2
