REMARK  Name = ZINC37553120
REMARK  6 active torsions:
REMARK  status: ('A' for Active; 'I' for Inactive)
REMARK    1  A    between atoms: C_3  and  C_18
REMARK    2  A    between atoms: C_5  and  N_7
REMARK    3  A    between atoms: N_7  and  S_8
REMARK    4  A    between atoms: S_8  and  C_11
REMARK    5  A    between atoms: C_19  and  C_20
REMARK    6  A    between atoms: C_20  and  N_21
REMARK                            x       y       z     vdW  Elec       q    Type
REMARK                         _______ _______ _______ _____ _____    ______ ____
ROOT
ATOM      1  C   UNL     1      -0.017   1.380   0.010  0.00  0.00    +0.006 A 
ATOM      2  C   UNL     1       1.191   2.061   0.002  0.00  0.00    +0.037 A 
ATOM      3  C   UNL     1       2.380   1.335  -0.013  0.00  0.00    +0.116 A 
ATOM      4  N   UNL     1       2.362   0.006  -0.021  0.00  0.00    -0.220 NA
ATOM      5  C   UNL     1       1.225  -0.670  -0.013  0.00  0.00    +0.164 A 
ATOM      6  C   UNL     1       0.002  -0.004   0.002  0.00  0.00    +0.047 A 
ENDROOT
BRANCH   3   7
ATOM      7  C   UNL     1       3.634   2.027  -0.022  0.00  0.00    -0.048 C 
ATOM      8  C   UNL     1       4.661   2.595  -0.029  0.00  0.00    -0.115 C 
BRANCH   8   9
ATOM      9  C   UNL     1       5.950   3.307  -0.038  0.00  0.00    +0.005 C 
BRANCH   9  10
ATOM     10  N   UNL     1       7.048   2.331  -0.054  0.00  0.00    +0.385 N 
ATOM     11  H   UNL     1       7.931   2.819  -0.060  0.00  0.00    -0.089 HD
ATOM     12  H   UNL     1       6.992   1.748   0.767  0.00  0.00    -0.089 HD
ATOM     13  H   UNL     1       6.976   1.756  -0.880  0.00  0.00    -0.089 HD
ENDBRANCH   9  10
ENDBRANCH   8   9
ENDBRANCH   3   7
BRANCH   5  14
ATOM     14  N   UNL     1       1.251  -2.059  -0.021  0.00  0.00    -0.078 NA
BRANCH  14  15
ATOM     15  S   UNL     1       2.700  -2.860  -0.040  0.00  0.00    +0.093 S 
ATOM     16  O   UNL     1       3.310  -2.567  -1.290  0.00  0.00    -0.148 OA
ATOM     17  O   UNL     1       3.334  -2.582   1.201  0.00  0.00    -0.148 OA
BRANCH  15  18
ATOM     18  C   UNL     1       2.342  -4.585  -0.046  0.00  0.00    +0.111 A 
ATOM     19  C   UNL     1       2.208  -5.267   1.149  0.00  0.00    +0.031 A 
ATOM     20  C   UNL     1       1.926  -6.620   1.145  0.00  0.00    +0.040 A 
ATOM     21  C   UNL     1       1.779  -7.293  -0.056  0.00  0.00    +0.124 A 
ATOM     22  C   UNL     1       1.914  -6.609  -1.253  0.00  0.00    +0.040 A 
ATOM     23  C   UNL     1       2.190  -5.255  -1.246  0.00  0.00    +0.031 A 
ATOM     24  F   UNL     1       1.504  -8.616  -0.061  0.00  0.00    -0.205 F 
ENDBRANCH  15  18
ENDBRANCH  14  15
ENDBRANCH   5  14
TORSDOF 6
