REMARK  Name = ZINC28048824
REMARK  7 active torsions:
REMARK  status: ('A' for Active; 'I' for Inactive)
REMARK    1  A    between atoms: C_1  and  C_2
REMARK    2  A    between atoms: C_2  and  C_3
REMARK    3  A    between atoms: C_3  and  N_4
REMARK    4  A    between atoms: C_13  and  O_14
REMARK    5  A    between atoms: C_15  and  N_16
REMARK    6  A    between atoms: N_19  and  C_20
REMARK    7  A    between atoms: C_25  and  C_26
REMARK                            x       y       z     vdW  Elec       q    Type
REMARK                         _______ _______ _______ _____ _____    ______ ____
ROOT
ATOM      1  N   UNL     1       3.539   3.574  -1.210  0.00  0.00    -0.382 N 
ATOM      2  C   UNL     1       2.362   4.058  -0.670  0.00  0.00    +0.075 A 
ATOM      3  C   UNL     1       1.129   3.256  -0.697  0.00  0.00    +0.042 A 
ATOM      4  C   UNL     1       1.111   1.982  -1.270  0.00  0.00    +0.013 A 
ATOM      5  C   UNL     1      -0.059   1.256  -1.279  0.00  0.00    +0.001 A 
ATOM      6  C   UNL     1      -1.216   1.787  -0.729  0.00  0.00    +0.004 A 
ATOM      7  C   UNL     1      -1.211   3.041  -0.156  0.00  0.00    +0.047 A 
ATOM      8  C   UNL     1      -0.042   3.791  -0.136  0.00  0.00    +0.141 A 
ATOM      9  O   UNL     1      -0.024   5.022   0.418  0.00  0.00    -0.424 OA
ATOM     10  C   UNL     1       1.091   5.769   0.453  0.00  0.00    +0.309 A 
ATOM     11  C   UNL     1       2.307   5.311  -0.087  0.00  0.00    +0.140 A 
ATOM     12  H   UNL     1       3.984   2.648  -0.818  0.00  0.00    +0.160 HD
ENDROOT
BRANCH  11  13
ATOM     13  N   UNL     1       3.456   6.120  -0.034  0.00  0.00    -0.262 N 
ATOM     14  C   UNL     1       3.392   7.408  -0.428  0.00  0.00    +0.308 C 
ATOM     15  O   UNL     1       2.321   7.900  -0.727  0.00  0.00    -0.252 OA
ATOM     16  N   UNL     1       4.516   8.149  -0.491  0.00  0.00    -0.269 N 
ATOM     17  H   UNL     1       4.406   5.703   0.330  0.00  0.00    +0.157 HD
ATOM     18  H   UNL     1       5.494   7.683  -0.304  0.00  0.00    +0.156 HD
BRANCH  16  19
ATOM     19  C   UNL     1       4.438   9.513  -0.796  0.00  0.00    +0.046 A 
ATOM     20  C   UNL     1       3.452   9.979  -1.656  0.00  0.00    +0.024 A 
ATOM     21  C   UNL     1       3.374  11.326  -1.950  0.00  0.00    +0.002 A 
ATOM     22  C   UNL     1       4.283  12.209  -1.397  0.00  0.00    +0.001 A 
ATOM     23  C   UNL     1       5.269  11.748  -0.545  0.00  0.00    +0.014 A 
ATOM     24  C   UNL     1       5.349  10.402  -0.243  0.00  0.00    +0.076 A 
BRANCH  24  25
ATOM     25  C   UNL     1       6.425   9.900   0.686  0.00  0.00    +0.419 C 
ATOM     26  F   UNL     1       7.213  10.975   1.110  0.00  0.00    -0.166 F 
ATOM     27  F   UNL     1       5.834   9.289   1.797  0.00  0.00    -0.166 F 
ATOM     28  F   UNL     1       7.226   8.971   0.013  0.00  0.00    -0.166 F 
ENDBRANCH  24  25
ENDBRANCH  16  19
ENDBRANCH  11  13
BRANCH  10  29
ATOM     29  O   UNL     1       1.049   6.874   0.966  0.00  0.00    -0.479 OA
ATOM     30  H   UNL     1       1.954   7.498   1.002  0.00  0.00    +0.295 HD
ENDBRANCH  10  29
BRANCH   1  31
ATOM     31  C   UNL     1       4.021   4.446  -2.289  0.00  0.00    +0.112 C 
BRANCH  31  33
ATOM     32  C   UNL     1       5.824   4.788  -3.985  0.00  0.00    +0.005 C 
ATOM     33  C   UNL     1       5.322   3.879  -2.861  0.00  0.00    +0.017 C 
ENDBRANCH  31  33
ENDBRANCH   1  31
TORSDOF 6
