REMARK  Name = ZINC50595106
REMARK  9 active torsions:
REMARK  status: ('A' for Active; 'I' for Inactive)
REMARK    1  A    between atoms: C_1  and  C_2
REMARK    2  A    between atoms: C_4  and  C_16
REMARK    3  A    between atoms: N_5  and  C_7
REMARK    4  A    between atoms: C_7  and  C_8
REMARK    5  A    between atoms: C_8  and  C_9
REMARK    6  A    between atoms: C_9  and  C_10
REMARK    7  A    between atoms: C_9  and  C_11
REMARK    8  A    between atoms: C_9  and  N_14
REMARK    9  A    between atoms: N_14  and  C_15
REMARK                            x       y       z     vdW  Elec       q    Type
REMARK                         _______ _______ _______ _____ _____    ______ ____
ROOT
ATOM      1  C   UNL     1       1.524  -4.926   2.677  0.00  0.00    +0.008 C 
ATOM      2  C   UNL     1       0.927  -6.115   1.922  0.00  0.00    -0.001 C 
ENDROOT
BRANCH   1   3
ATOM      3  C   UNL     1       2.945  -5.240   3.066  0.00  0.00    +0.199 C 
ATOM      4  O   UNL     1       3.862  -4.879   2.358  0.00  0.00    -0.278 OA
ATOM      5  N   UNL     1       3.198  -5.923   4.201  0.00  0.00    -0.330 N 
ATOM      6  H   UNL     1       2.466  -6.211   4.767  0.00  0.00    +0.145 HD
ATOM      7  H   UNL     1       4.113  -6.125   4.451  0.00  0.00    +0.145 HD
ENDBRANCH   1   3
BRANCH   1   8
ATOM      8  N   UNL     1       0.731  -4.666   3.887  0.00  0.00    +0.387 N 
ATOM      9  C   UNL     1       1.304  -3.525   4.612  0.00  0.00    -0.099 C 
ATOM     10  H   UNL     1      -0.221  -4.456   3.626  0.00  0.00    -0.085 HD
ATOM     11  H   UNL     1       0.745  -5.483   4.479  0.00  0.00    -0.085 HD
ENDBRANCH   1   8
BRANCH   1  12
ATOM     12  C   UNL     1       1.503  -3.688   1.779  0.00  0.00    +0.020 C 
BRANCH  12  13
ATOM     13  C   UNL     1       0.053  -3.295   1.486  0.00  0.00    +0.143 C 
BRANCH  13  18
ATOM     14  C   UNL     1      -0.018   1.503   0.010  0.00  0.00    +0.068 C 
ATOM     15  C   UNL     1       0.002  -0.004   0.002  0.00  0.00    +0.074 A 
ATOM     16  C   UNL     1       0.008  -0.818  -1.136  0.00  0.00    +0.061 A 
ATOM     17  C   UNL     1       0.027  -2.108  -0.725  0.00  0.00    +0.050 A 
ATOM     18  N   UNL     1       0.034  -2.109   0.625  0.00  0.00    -0.267 N 
ATOM     19  N   UNL     1       0.023  -0.777   1.058  0.00  0.00    -0.175 NA
ATOM     20  C   UNL     1       0.039  -3.324  -1.615  0.00  0.00    +0.066 C 
ATOM     21 BR   UNL     1      -0.009  -0.222  -2.930  0.00  0.00    -0.047 Br
ENDBRANCH  13  18
ENDBRANCH  12  13
ENDBRANCH   1  12
TORSDOF 5
