REMARK  Name = ZINC01096398
REMARK  4 active torsions:
REMARK  status: ('A' for Active; 'I' for Inactive)
REMARK    1  A    between atoms: C_3  and  O_18
REMARK    2  A    between atoms: C_4  and  C_8
REMARK    3  A    between atoms: O_18  and  C_19
REMARK    4  A    between atoms: C_19  and  C_20
REMARK                            x       y       z     vdW  Elec       q    Type
REMARK                         _______ _______ _______ _____ _____    ______ ____
ROOT
ATOM      1  C   UNL     1       1.672  -0.577  -0.795  0.00  0.00    +0.019 A 
ATOM      2  C   UNL     1       0.492  -0.124  -0.237  0.00  0.00    +0.047 A 
ATOM      3  C   UNL     1       0.322   1.225   0.031  0.00  0.00    +0.128 A 
ATOM      4  C   UNL     1       1.358   2.131  -0.268  0.00  0.00    +0.019 A 
ATOM      5  C   UNL     1       2.550   1.655  -0.835  0.00  0.00    +0.026 A 
ATOM      6  C   UNL     1       2.696   0.310  -1.093  0.00  0.00    +0.019 A 
ATOM      7 BR   UNL     1       4.303  -0.331  -1.857  0.00  0.00    -0.050 Br
ENDROOT
BRANCH   4   8
ATOM      8  C   UNL     1       1.193   3.557   0.009  0.00  0.00    +0.029 C 
ATOM      9  C   UNL     1       2.178   4.247   0.689  0.00  0.00    +0.100 C 
ATOM     10  C   UNL     1       3.307   3.546   1.332  0.00  0.00    +0.256 C 
ATOM     11  O   UNL     1       3.401   2.335   1.281  0.00  0.00    -0.270 OA
ATOM     12  N   UNL     1       4.234   4.287   1.973  0.00  0.00    -0.236 N 
ATOM     13  C   UNL     1       4.139   5.622   2.043  0.00  0.00    +0.313 C 
ATOM     14  O   UNL     1       5.006   6.230   2.641  0.00  0.00    -0.252 OA
ATOM     15  N   UNL     1       3.141   6.324   1.489  0.00  0.00    -0.236 N 
ATOM     16  C   UNL     1       2.145   5.718   0.810  0.00  0.00    +0.256 C 
ATOM     17  O   UNL     1       1.244   6.366   0.311  0.00  0.00    -0.270 OA
ATOM     18  H   UNL     1       4.985   3.843   2.397  0.00  0.00    +0.159 HD
ATOM     19  H   UNL     1       3.134   7.290   1.578  0.00  0.00    +0.159 HD
ENDBRANCH   4   8
BRANCH   3  20
ATOM     20  O   UNL     1      -0.838   1.671   0.573  0.00  0.00    -0.480 OA
BRANCH  20  21
ATOM     21  C   UNL     1      -1.845   0.695   0.844  0.00  0.00    +0.353 C 
BRANCH  21  22
ATOM     22  C   UNL     1      -3.053   1.371   1.440  0.00  0.00    +0.393 C 
ATOM     23  O   UNL     1      -3.051   2.567   1.615  0.00  0.00    -0.243 OA
ATOM     24  O   UNL     1      -4.131   0.645   1.776  0.00  0.00    -0.243 OA
ENDBRANCH  21  22
ENDBRANCH  20  21
ENDBRANCH   3  20
TORSDOF 4
