REMARK  Name = ZINC61564297
REMARK  3 active torsions:
REMARK  status: ('A' for Active; 'I' for Inactive)
REMARK    1  A    between atoms: C_2  and  C_18
REMARK    2  A    between atoms: C_3  and  N_9
REMARK    3  A    between atoms: C_10  and  C_12
REMARK                            x       y       z     vdW  Elec       q    Type
REMARK                         _______ _______ _______ _____ _____    ______ ____
ROOT
ATOM      1  C   UNL     1       0.129   1.198   0.872  0.00  0.00    +0.058 A 
ATOM      2  C   UNL     1       1.419   1.742   0.881  0.00  0.00    +0.087 A 
ATOM      3  C   UNL     1       2.390   1.239  -0.000  0.00  0.00    +0.050 A 
ATOM      4  C   UNL     1       2.063   0.208  -0.869  0.00  0.00    +0.065 A 
ATOM      5  C   UNL     1       0.785  -0.320  -0.868  0.00  0.00    +0.160 A 
ATOM      6  C   UNL     1      -0.180   0.175   0.003  0.00  0.00    +0.159 A 
ATOM      7  F   UNL     1      -1.425  -0.349  -0.004  0.00  0.00    -0.202 F 
ATOM      8  F   UNL     1       0.472  -1.323  -1.718  0.00  0.00    -0.202 F 
ENDROOT
BRANCH   3   9
ATOM      9  N   UNL     1       3.677   1.772  -0.001  0.00  0.00    -0.286 N 
ATOM     10  C   UNL     1       4.745   0.956  -0.097  0.00  0.00    +0.204 C 
ATOM     11  O   UNL     1       4.585  -0.234  -0.273  0.00  0.00    -0.277 OA
ATOM     12  H   UNL     1       3.804   2.731   0.067  0.00  0.00    +0.155 HD
BRANCH  10  13
ATOM     13  C   UNL     1       6.138   1.520   0.016  0.00  0.00    +0.027 C 
ATOM     14  C   UNL     1       6.325   2.590  -1.088  0.00  0.00    +0.060 C 
ATOM     15  S   UNL     1       8.083   2.265  -1.556  0.00  0.00    -0.181 S 
ATOM     16  C   UNL     1       8.078   0.463  -1.151  0.00  0.00    -0.011 C 
ATOM     17  N   UNL     1       7.090   0.419  -0.050  0.00  0.00    +0.393 N 
ATOM     18  H   UNL     1       7.598   0.392   0.821  0.00  0.00    -0.084 HD
ATOM     19  H   UNL     1       6.569  -0.441  -0.132  0.00  0.00    -0.084 HD
ENDBRANCH  10  13
ENDBRANCH   3   9
BRANCH   2  20
ATOM     20  C   UNL     1       1.754   2.834   1.806  0.00  0.00    +0.388 C 
ATOM     21  O   UNL     1       0.896   3.295   2.546  0.00  0.00    -0.241 OA
ATOM     22  O   UNL     1       2.893   3.283   1.835  0.00  0.00    -0.241 OA
ENDBRANCH   2  20
TORSDOF 3
