REMARK  Name = ZINC05218883
REMARK  7 active torsions:
REMARK  status: ('A' for Active; 'I' for Inactive)
REMARK    1  A    between atoms: C_1  and  C_2
REMARK    2  A    between atoms: C_2  and  C_3
REMARK    3  A    between atoms: C_10  and  N_32
REMARK    4  A    between atoms: C_11  and  C_30
REMARK    5  A    between atoms: N_19  and  C_22
REMARK    6  A    between atoms: C_22  and  C_23
REMARK    7  A    between atoms: C_23  and  C_24
REMARK                            x       y       z     vdW  Elec       q    Type
REMARK                         _______ _______ _______ _____ _____    ______ ____
ROOT
ATOM      1  C   UNL     1      -1.412  -0.526   0.013  0.00  0.00    +0.071 A 
ATOM      2  C   UNL     1      -2.167  -0.808   1.142  0.00  0.00    +0.061 A 
ATOM      3  C   UNL     1      -3.393  -1.258   0.730  0.00  0.00    +0.223 A 
ATOM      4  N   UNL     1      -3.395  -1.254  -0.612  0.00  0.00    -0.246 N 
ATOM      5  H   UNL     1      -4.132  -1.524  -1.182  0.00  0.00    +0.192 HD
ATOM      6  N   UNL     1      -2.144  -0.786  -1.044  0.00  0.00    -0.176 NA
ATOM      7  O   UNL     1      -4.368  -1.619   1.600  0.00  0.00    -0.423 OA
ATOM      8  C   UNL     1      -4.215  -1.281   2.897  0.00  0.00    +0.201 C 
ATOM      9  C   UNL     1      -3.051  -0.837   3.425  0.00  0.00    +0.110 C 
ATOM     10  C   UNL     1      -1.806  -0.683   2.595  0.00  0.00    +0.145 C 
ATOM     11  C   UNL     1      -0.764  -1.682   2.985  0.00  0.00    -0.001 A 
ATOM     12  C   UNL     1      -0.767  -3.060   2.969  0.00  0.00    +0.007 A 
ATOM     13  C   UNL     1       0.389  -3.698   3.405  0.00  0.00    +0.000 A 
ATOM     14  C   UNL     1       1.488  -2.981   3.833  0.00  0.00    +0.002 A 
ATOM     15  C   UNL     1       1.498  -1.595   3.854  0.00  0.00    +0.024 A 
ATOM     16  C   UNL     1       0.343  -0.942   3.419  0.00  0.00    +0.041 A 
ATOM     17  N   UNL     1       0.079   0.414   3.335  0.00  0.00    -0.269 N 
ATOM     18  C   UNL     1      -1.161   0.659   2.862  0.00  0.00    +0.240 C 
ATOM     19  O   UNL     1      -1.663   1.749   2.686  0.00  0.00    -0.274 OA
ENDROOT
BRANCH   8  20
ATOM     20  N   UNL     1      -5.302  -1.394   3.728  0.00  0.00    -0.328 N 
ATOM     21  H   UNL     1      -6.150  -1.709   3.377  0.00  0.00    +0.145 HD
ATOM     22  H   UNL     1      -5.223  -1.158   4.665  0.00  0.00    +0.145 HD
ENDBRANCH   8  20
BRANCH   1  24
ATOM     23  C   UNL     1      -0.019   1.526   0.010  0.00  0.00    +0.010 C 
ATOM     24  C   UNL     1       0.002  -0.004   0.002  0.00  0.00    +0.054 C 
ENDBRANCH   1  24
BRANCH   9  25
ATOM     25  C   UNL     1      -3.003  -0.504   4.817  0.00  0.00    +0.102 C 
ATOM     26  N   UNL     1      -2.965  -0.240   5.921  0.00  0.00    -0.191 NA
ENDBRANCH   9  25
BRANCH  17  27
ATOM     27  C   UNL     1       1.033   1.459   3.714  0.00  0.00    +0.118 C 
BRANCH  27  28
ATOM     28  C   UNL     1       1.882   1.840   2.500  0.00  0.00    +0.054 C 
BRANCH  28  29
ATOM     29  C   UNL     1       2.863   2.915   2.890  0.00  0.00    -0.046 A 
ATOM     30  C   UNL     1       2.510   4.247   2.778  0.00  0.00    +0.004 A 
ATOM     31  C   UNL     1       3.410   5.233   3.136  0.00  0.00    +0.000 A 
ATOM     32  C   UNL     1       4.663   4.887   3.606  0.00  0.00    +0.000 A 
ATOM     33  C   UNL     1       5.016   3.556   3.719  0.00  0.00    +0.000 A 
ATOM     34  C   UNL     1       4.114   2.569   3.365  0.00  0.00    +0.004 A 
ENDBRANCH  28  29
ENDBRANCH  27  28
ENDBRANCH  17  27
TORSDOF 6
