REMARK  Name = ZINC39625577
REMARK  5 active torsions:
REMARK  status: ('A' for Active; 'I' for Inactive)
REMARK    1  A    between atoms: C_3  and  C_5
REMARK    2  A    between atoms: C_9  and  C_18
REMARK    3  A    between atoms: N_20  and  C_21
REMARK    4  A    between atoms: C_21  and  C_22
REMARK    5  A    between atoms: C_22  and  N_23
REMARK                            x       y       z     vdW  Elec       q    Type
REMARK                         _______ _______ _______ _____ _____    ______ ____
ROOT
ATOM      1  C   UNL     1       2.516  -0.991   0.061  0.00  0.00    +0.219 C 
ATOM      2  O   UNL     1       3.278  -0.715  -0.841  0.00  0.00    -0.275 OA
ATOM      3  N   UNL     1       2.470  -2.249   0.542  0.00  0.00    -0.300 N 
ATOM      4  C   UNL     1       1.608  -2.776   1.626  0.00  0.00    +0.121 C 
ATOM      5  C   UNL     1       1.185  -4.181   1.141  0.00  0.00    +0.100 C 
ATOM      6  C   UNL     1       2.280  -4.598   0.145  0.00  0.00    -0.004 C 
ATOM      7  C   UNL     1       3.265  -3.421   0.101  0.00  0.00    +0.115 C 
ATOM      8  C   UNL     1       1.678  -4.827  -1.238  0.00  0.00    -0.010 C 
ATOM      9  C   UNL     1       2.776  -5.295  -2.197  0.00  0.00    -0.082 C 
ATOM     10  N   UNL     1       3.373  -6.537  -1.690  0.00  0.00    +0.379 N 
ATOM     11  C   UNL     1       4.031  -6.287  -0.402  0.00  0.00    -0.082 C 
ATOM     12  C   UNL     1       2.986  -5.860   0.633  0.00  0.00    -0.010 C 
ATOM     13  H   UNL     1       2.650  -7.231  -1.568  0.00  0.00    -0.086 HD
ATOM     14  H   UNL     1       4.053  -6.877  -2.353  0.00  0.00    -0.086 HD
ENDROOT
BRANCH   1  17
ATOM     15  C   UNL     1       0.267   1.599   0.078  0.00  0.00    +0.001 C 
ATOM     16  C   UNL     1       1.795   1.451  -0.013  0.00  0.00    +0.013 C 
ATOM     17  C   UNL     1       1.621   0.072   0.644  0.00  0.00    +0.075 C 
ATOM     18  C   UNL     1       0.196   0.063   0.066  0.00  0.00    +0.013 C 
ENDBRANCH   1  17
BRANCH   5  19
ATOM     19  C   UNL     1       1.133  -5.143   2.301  0.00  0.00    +0.218 C 
ATOM     20  O   UNL     1       1.878  -4.993   3.246  0.00  0.00    -0.275 OA
ATOM     21  N   UNL     1       0.260  -6.169   2.287  0.00  0.00    -0.314 N 
ATOM     22  H   UNL     1      -0.336  -6.289   1.530  0.00  0.00    +0.149 HD
BRANCH  21  23
ATOM     23  C   UNL     1       0.209  -7.104   3.413  0.00  0.00    +0.119 C 
BRANCH  23  24
ATOM     24  C   UNL     1      -0.859  -8.166   3.148  0.00  0.00    +0.103 C 
BRANCH  24  25
ATOM     25  N   UNL     1      -0.910  -9.103   4.278  0.00  0.00    -0.297 NA
ATOM     26  C   UNL     1       0.333  -9.883   4.372  0.00  0.00    +0.112 C 
ATOM     27  C   UNL     1       0.262 -10.801   5.595  0.00  0.00    +0.175 C 
ATOM     28  O   UNL     1      -0.894 -11.636   5.490  0.00  0.00    -0.377 OA
ATOM     29  C   UNL     1      -2.123 -10.910   5.398  0.00  0.00    +0.175 C 
ATOM     30  C   UNL     1      -2.076  -9.992   4.173  0.00  0.00    +0.112 C 
ENDBRANCH  24  25
ENDBRANCH  23  24
ENDBRANCH  21  23
ENDBRANCH   5  19
TORSDOF 5
