REMARK  Name = ZINC20708993
REMARK  4 active torsions:
REMARK  status: ('A' for Active; 'I' for Inactive)
REMARK    1  A    between atoms: C_5  and  C_7
REMARK    2  A    between atoms: C_11  and  C_20
REMARK    3  A    between atoms: C_22  and  N_27
REMARK    4  A    between atoms: C_25  and  O_26
REMARK                            x       y       z     vdW  Elec       q    Type
REMARK                         _______ _______ _______ _____ _____    ______ ____
ROOT
ATOM      1  C   UNL     1      -1.172   1.648  -0.160  0.00  0.00    +0.001 A 
ATOM      2  C   UNL     1       0.041   0.998  -0.020  0.00  0.00    +0.006 A 
ATOM      3  C   UNL     1       1.234   1.705  -0.014  0.00  0.00    -0.019 A 
ATOM      4  C   UNL     1       1.210   3.083  -0.147  0.00  0.00    +0.044 A 
ATOM      5  C   UNL     1      -0.024   3.748  -0.283  0.00  0.00    +0.058 A 
ATOM      6  C   UNL     1      -1.214   3.019  -0.285  0.00  0.00    +0.015 A 
ATOM      7  N   UNL     1       2.366   3.847  -0.153  0.00  0.00    -0.336 N 
ATOM      8  C   UNL     1       3.460   3.203   0.575  0.00  0.00    +0.108 C 
ATOM      9  C   UNL     1       3.747   1.833  -0.046  0.00  0.00    +0.029 C 
ATOM     10  C   UNL     1       2.510   0.930   0.144  0.00  0.00    +0.049 C 
ATOM     11  C   UNL     1       2.645   0.410   1.557  0.00  0.00    -0.023 C 
ATOM     12  C   UNL     1       3.886   0.505   1.963  0.00  0.00    -0.030 C 
ATOM     13  C   UNL     1       4.760   1.095   0.874  0.00  0.00    +0.033 C 
ATOM     14  H   UNL     1       2.522   4.828  -0.625  0.00  0.00    +0.147 HD
ENDROOT
BRANCH   8  15
ATOM     15  C   UNL     1       4.695   4.062   0.489  0.00  0.00    +0.017 A 
ATOM     16  C   UNL     1       5.717   3.719  -0.375  0.00  0.00    +0.041 A 
ATOM     17  C   UNL     1       6.848   4.510  -0.458  0.00  0.00    +0.127 A 
ATOM     18  C   UNL     1       6.965   5.639   0.332  0.00  0.00    +0.036 A 
ATOM     19  C   UNL     1       5.948   5.983   1.202  0.00  0.00    +0.048 A 
ATOM     20  C   UNL     1       4.809   5.194   1.282  0.00  0.00    +0.122 A 
BRANCH  17  21
ATOM     21  N   UNL     1       7.939   4.144  -1.389  0.00  0.00    +0.056 N 
ATOM     22  O   UNL     1       8.938   4.837  -1.458  0.00  0.00    -0.126 OA
ATOM     23  O   UNL     1       7.838   3.150  -2.085  0.00  0.00    -0.126 OA
ENDBRANCH  17  21
BRANCH  20  24
ATOM     24  O   UNL     1       3.808   5.530   2.137  0.00  0.00    -0.506 OA
ATOM     25  H   UNL     1       3.900   6.428   2.766  0.00  0.00    +0.292 HD
ENDBRANCH  20  24
ENDBRANCH   8  15
BRANCH   5  26
ATOM     26  C   UNL     1      -0.058   5.215  -0.425  0.00  0.00    +0.243 C 
ATOM     27  O   UNL     1       0.979   5.851  -0.423  0.00  0.00    -0.270 OA
ATOM     28  N   UNL     1      -1.238   5.853  -0.555  0.00  0.00    -0.325 N 
ATOM     29  H   UNL     1      -1.264   6.947  -0.661  0.00  0.00    +0.145 HD
ATOM     30  H   UNL     1      -2.176   5.278  -0.556  0.00  0.00    +0.145 HD
ENDBRANCH   5  26
TORSDOF 4
