REMARK  Name = ZINC20733403
REMARK  1 active torsions:
REMARK  status: ('A' for Active; 'I' for Inactive)
REMARK    1  A    between atoms: C_3  and  C_6
REMARK                            x       y       z     vdW  Elec       q    Type
REMARK                         _______ _______ _______ _____ _____    ______ ____
ROOT
ATOM      1  C   UNL     1       3.761   1.845  -0.024  0.00  0.00    +0.118 C 
ATOM      2  C   UNL     1       4.452   1.371   1.215  0.00  0.00    +0.030 A 
ATOM      3  C   UNL     1       3.766   1.062   2.355  0.00  0.00    +0.112 A 
ATOM      4  N   UNL     1       4.654   0.669   3.284  0.00  0.00    -0.283 N 
ATOM      5  H   UNL     1       4.447   0.391   4.190  0.00  0.00    +0.188 HD
ATOM      6  N   UNL     1       5.926   0.733   2.715  0.00  0.00    -0.158 NA
ATOM      7  C   UNL     1       5.808   1.159   1.461  0.00  0.00    +0.151 A 
ATOM      8  N   UNL     1       6.919   1.320   0.655  0.00  0.00    -0.268 N 
ATOM      9  C   UNL     1       7.102   1.670  -0.583  0.00  0.00    +0.228 C 
ATOM     10  O   UNL     1       8.250   1.596  -0.967  0.00  0.00    -0.275 OA
ATOM     11  C   UNL     1       6.142   2.143  -1.600  0.00  0.00    +0.166 C 
ATOM     12  S   UNL     1       4.560   1.292  -1.533  0.00  0.00    -0.138 S 
ATOM     13  H   UNL     1       7.750   1.129   1.118  0.00  0.00    +0.156 HD
ENDROOT
BRANCH   1  16
ATOM     14  C   UNL     1      -0.016   1.351   0.009  0.00  0.00    +0.008 A 
ATOM     15  C   UNL     1       1.183   2.038   0.002  0.00  0.00    +0.012 A 
ATOM     16  C   UNL     1       2.343   1.336  -0.013  0.00  0.00    +0.007 A 
ATOM     17  S   UNL     1       1.754  -0.349  -0.017  0.00  0.00    -0.100 S 
ATOM     18  C   UNL     1       0.002  -0.004   0.002  0.00  0.00    +0.045 A 
ENDBRANCH   1  16
TORSDOF 1
