REMARK  Name = ZINC55313228
REMARK  4 active torsions:
REMARK  status: ('A' for Active; 'I' for Inactive)
REMARK    1  A    between atoms: C_3  and  N_8
REMARK    2  A    between atoms: N_8  and  S_9
REMARK    3  A    between atoms: S_9  and  C_12
REMARK    4  A    between atoms: C_14  and  C_18
REMARK                            x       y       z     vdW  Elec       q    Type
REMARK                         _______ _______ _______ _____ _____    ______ ____
ROOT
ATOM      1  S   UNL     1       5.009   1.140  -0.040  0.00  0.00    +0.097 S 
ATOM      2  O   UNL     1       5.082   0.452   1.201  0.00  0.00    -0.148 OA
ATOM      3  O   UNL     1       5.058   0.465  -1.289  0.00  0.00    -0.148 OA
ENDROOT
BRANCH   1   4
ATOM      4  C   UNL     1       6.329   2.307  -0.047  0.00  0.00    +0.163 A 
ATOM      5  C   UNL     1       7.280   2.492   0.964  0.00  0.00    +0.087 A 
ATOM      6  C   UNL     1       8.116   3.503   0.538  0.00  0.00    +0.219 A 
ATOM      7  O   UNL     1       7.686   3.909  -0.677  0.00  0.00    -0.439 OA
ATOM      8  C   UNL     1       6.616   3.189  -1.034  0.00  0.00    +0.197 A 
ATOM      9 BR   UNL     1       5.657   3.377  -2.653  0.00  0.00    -0.006 Br
BRANCH   6  10
ATOM     10  C   UNL     1       9.227   4.023   1.247  0.00  0.00    +0.421 C 
ATOM     11  O   UNL     1       9.518   3.569   2.347  0.00  0.00    -0.237 OA
ATOM     12  O   UNL     1       9.896   4.926   0.761  0.00  0.00    -0.237 OA
ENDBRANCH   6  10
ENDBRANCH   1   4
BRANCH   1  13
ATOM     13  N   UNL     1       3.594   2.000  -0.022  0.00  0.00    -0.078 NA
BRANCH  13  16
ATOM     14  C   UNL     1      -0.017   1.385   0.010  0.00  0.00    +0.025 A 
ATOM     15  C   UNL     1       1.190   2.062   0.002  0.00  0.00    +0.048 A 
ATOM     16  C   UNL     1       2.374   1.333  -0.013  0.00  0.00    +0.163 A 
ATOM     17  N   UNL     1       2.351   0.009  -0.020  0.00  0.00    -0.236 NA
ATOM     18  C   UNL     1       1.216  -0.664  -0.013  0.00  0.00    +0.133 A 
ATOM     19  C   UNL     1       0.002  -0.004   0.002  0.00  0.00    +0.059 A 
ATOM     20 CL   UNL     1      -1.484  -0.901   0.012  0.00  0.00    -0.082 Cl
ENDBRANCH  13  16
ENDBRANCH   1  13
TORSDOF 4
