REMARK  Name = ZINC59170564
REMARK  5 active torsions:
REMARK  status: ('A' for Active; 'I' for Inactive)
REMARK    1  A    between atoms: C_12  and  C_26
REMARK    2  A    between atoms: N_14  and  C_15
REMARK    3  A    between atoms: C_18  and  S_21
REMARK    4  A    between atoms: S_21  and  N_24
REMARK    5  A    between atoms: N_28  and  C_29
REMARK                            x       y       z     vdW  Elec       q    Type
REMARK                         _______ _______ _______ _____ _____    ______ ____
ROOT
ATOM      1  C   UNL     1       0.181   0.812   1.852  0.00  0.00    +0.001 A 
ATOM      2  C   UNL     1       1.403   1.393   2.175  0.00  0.00    +0.001 A 
ATOM      3  C   UNL     1       2.577   0.818   1.784  0.00  0.00    +0.009 A 
ATOM      4  C   UNL     1       2.554  -0.370   1.050  0.00  0.00    -0.007 A 
ATOM      5  C   UNL     1       1.313  -0.966   0.720  0.00  0.00    -0.017 A 
ATOM      6  C   UNL     1       0.124  -0.347   1.137  0.00  0.00    +0.008 A 
ATOM      7  C   UNL     1       1.293  -2.166  -0.017  0.00  0.00    +0.012 A 
ATOM      8  C   UNL     1       2.445  -2.768  -0.409  0.00  0.00    +0.047 A 
ATOM      9  C   UNL     1       3.696  -2.225  -0.110  0.00  0.00    +0.138 A 
ATOM     10  C   UNL     1       3.787  -1.021   0.604  0.00  0.00    +0.026 A 
ATOM     11  C   UNL     1       5.048  -0.457   0.890  0.00  0.00    +0.030 A 
ATOM     12  C   UNL     1       6.167  -0.999   0.265  0.00  0.00    +0.098 A 
ATOM     13  C   UNL     1       5.936  -2.109  -0.680  0.00  0.00    +0.212 A 
ATOM     14  N   UNL     1       6.777  -2.355  -1.662  0.00  0.00    -0.325 N 
ATOM     15  O   UNL     1       4.825  -2.868  -0.498  0.00  0.00    -0.439 OA
ATOM     16  H   UNL     1       7.512  -1.746  -1.836  0.00  0.00    +0.169 HD
ENDROOT
BRANCH  14  17
ATOM     17  C   UNL     1       6.616  -3.469  -2.438  0.00  0.00    +0.042 A 
ATOM     18  C   UNL     1       6.333  -4.702  -1.845  0.00  0.00    +0.027 A 
ATOM     19  C   UNL     1       6.171  -5.822  -2.634  0.00  0.00    +0.030 A 
ATOM     20  C   UNL     1       6.287  -5.726  -4.010  0.00  0.00    +0.105 A 
ATOM     21  C   UNL     1       6.567  -4.508  -4.604  0.00  0.00    +0.030 A 
ATOM     22  C   UNL     1       6.726  -3.379  -3.828  0.00  0.00    +0.027 A 
BRANCH  20  23
ATOM     23  S   UNL     1       6.080  -7.162  -5.009  0.00  0.00    +0.056 S 
ATOM     24  O   UNL     1       6.776  -6.916  -6.223  0.00  0.00    -0.153 OA
ATOM     25  O   UNL     1       6.366  -8.280  -4.179  0.00  0.00    -0.153 OA
BRANCH  23  26
ATOM     26  N   UNL     1       4.473  -7.260  -5.397  0.00  0.00    -0.204 NA
ATOM     27  H   UNL     1       3.853  -6.588  -5.073  0.00  0.00    +0.144 HD
ATOM     28  H   UNL     1       4.151  -7.990  -5.949  0.00  0.00    +0.144 HD
ENDBRANCH  23  26
ENDBRANCH  20  23
ENDBRANCH  14  17
BRANCH  12  29
ATOM     29  C   UNL     1       7.520  -0.488   0.534  0.00  0.00    +0.253 C 
ATOM     30  O   UNL     1       7.669   0.511   1.211  0.00  0.00    -0.270 OA
ATOM     31  N   UNL     1       8.594  -1.128   0.030  0.00  0.00    -0.280 N 
ATOM     32  H   UNL     1       8.473  -1.893  -0.553  0.00  0.00    +0.155 HD
BRANCH  31  33
ATOM     33  C   UNL     1       9.883  -0.687   0.348  0.00  0.00    +0.052 A 
ATOM     34  C   UNL     1      10.103   0.646   0.670  0.00  0.00    +0.025 A 
ATOM     35  C   UNL     1      11.377   1.077   0.984  0.00  0.00    +0.002 A 
ATOM     36  C   UNL     1      12.433   0.185   0.978  0.00  0.00    +0.002 A 
ATOM     37  C   UNL     1      12.219  -1.143   0.657  0.00  0.00    +0.022 A 
ATOM     38  C   UNL     1      10.945  -1.583   0.348  0.00  0.00    +0.062 A 
ATOM     39 CL   UNL     1      10.675  -3.252  -0.048  0.00  0.00    -0.082 Cl
ENDBRANCH  31  33
ENDBRANCH  12  29
TORSDOF 5
