REMARK  Name = ZINC39934900
REMARK  8 active torsions:
REMARK  status: ('A' for Active; 'I' for Inactive)
REMARK    1  A    between atoms: C_1  and  O_2
REMARK    2  A    between atoms: O_2  and  C_3
REMARK    3  A    between atoms: C_8  and  C_13
REMARK    4  A    between atoms: C_13  and  C_31
REMARK    5  A    between atoms: C_14  and  C_15
REMARK    6  A    between atoms: C_18  and  O_22
REMARK    7  A    between atoms: O_22  and  C_23
REMARK    8  A    between atoms: C_23  and  C_24
REMARK                            x       y       z     vdW  Elec       q    Type
REMARK                         _______ _______ _______ _____ _____    ______ ____
ROOT
ATOM      1  C   UNL     1      -5.369  -4.548  -1.093  0.00  0.00    +0.072 C 
ATOM      2  C   UNL     1      -5.518  -5.890  -1.078  0.00  0.00    +0.026 C 
ENDROOT
BRANCH   1   8
ATOM      3  C   UNL     1      -3.315   0.555  -0.044  0.00  0.00    +0.122 A 
ATOM      4  C   UNL     1      -4.565   0.697   0.691  0.00  0.00    +0.048 A 
ATOM      5  C   UNL     1      -5.348  -0.361   0.975  0.00  0.00    +0.031 A 
ATOM      6  C   UNL     1      -4.945  -1.706   0.537  0.00  0.00    +0.061 A 
ATOM      7  N   UNL     1      -5.502  -2.875   0.674  0.00  0.00    -0.359 N 
ATOM      8  C   UNL     1      -4.629  -3.860   0.024  0.00  0.00    +0.216 C 
ATOM      9  N   UNL     1      -3.487  -3.111  -0.513  0.00  0.00    -0.359 N 
ATOM     10  C   UNL     1      -3.670  -1.853  -0.215  0.00  0.00    +0.064 A 
ATOM     11  C   UNL     1      -2.879  -0.650  -0.486  0.00  0.00    +0.073 A 
ATOM     12  H   UNL     1      -6.340  -3.061   1.125  0.00  0.00    +0.162 HD
ATOM     13  H   UNL     1      -2.734  -3.482  -1.000  0.00  0.00    +0.162 HD
BRANCH   3  15
ATOM     14  C   UNL     1      -3.072   2.906   0.188  0.00  0.00    +0.277 C 
ATOM     15  O   UNL     1      -2.571   1.659  -0.298  0.00  0.00    -0.495 OA
ENDBRANCH   3  15
ENDBRANCH   1   8
BRANCH   2  16
ATOM     16  C   UNL     1      -6.095  -6.579  -2.242  0.00  0.00    -0.023 A 
ATOM     17  C   UNL     1      -5.801  -6.136  -3.537  0.00  0.00    +0.011 A 
ATOM     18  C   UNL     1      -6.343  -6.784  -4.624  0.00  0.00    +0.047 A 
ATOM     19  C   UNL     1      -7.182  -7.876  -4.437  0.00  0.00    +0.135 A 
ATOM     20  C   UNL     1      -7.478  -8.320  -3.153  0.00  0.00    +0.060 A 
ATOM     21  C   UNL     1      -6.935  -7.682  -2.059  0.00  0.00    +0.027 A 
ATOM     22 BR   UNL     1      -8.622  -9.806  -2.909  0.00  0.00    -0.046 Br
BRANCH  19  23
ATOM     23  O   UNL     1      -7.715  -8.512  -5.513  0.00  0.00    -0.486 OA
BRANCH  23  24
ATOM     24  C   UNL     1      -7.370  -8.004  -6.803  0.00  0.00    +0.264 C 
BRANCH  24  25
ATOM     25  C   UNL     1      -8.049  -8.829  -7.866  0.00  0.00    -0.010 A 
ATOM     26  C   UNL     1      -7.416  -9.943  -8.384  0.00  0.00    +0.010 A 
ATOM     27  C   UNL     1      -8.038 -10.700  -9.359  0.00  0.00    +0.039 A 
ATOM     28  C   UNL     1      -9.295 -10.343  -9.815  0.00  0.00    +0.123 A 
ATOM     29  C   UNL     1      -9.928  -9.227  -9.295  0.00  0.00    +0.039 A 
ATOM     30  C   UNL     1      -9.306  -8.474  -8.317  0.00  0.00    +0.010 A 
ATOM     31  F   UNL     1      -9.904 -11.083 -10.768  0.00  0.00    -0.205 F 
ENDBRANCH  24  25
ENDBRANCH  23  24
ENDBRANCH  19  23
ENDBRANCH   2  16
BRANCH   1  32
ATOM     32  C   UNL     1      -5.914  -3.780  -2.172  0.00  0.00    +0.099 C 
ATOM     33  N   UNL     1      -6.346  -3.170  -3.027  0.00  0.00    -0.191 NA
ENDBRANCH   1  32
TORSDOF 7
