REMARK  Name = ZINC08644909
REMARK  6 active torsions:
REMARK  status: ('A' for Active; 'I' for Inactive)
REMARK    1  A    between atoms: C_1  and  C_2
REMARK    2  A    between atoms: C_2  and  C_4
REMARK    3  A    between atoms: C_2  and  S_14
REMARK    4  A    between atoms: S_14  and  C_15
REMARK    5  A    between atoms: C_18  and  C_21
REMARK    6  A    between atoms: N_19  and  N_20
REMARK                            x       y       z     vdW  Elec       q    Type
REMARK                         _______ _______ _______ _____ _____    ______ ____
ROOT
ATOM      1  C   UNL     1       6.343   6.273  -1.083  0.00  0.00    +0.209 A 
ATOM      2  N   UNL     1       7.410   5.553  -0.816  0.00  0.00    -0.121 NA
ATOM      3  N   UNL     1       8.473   6.227  -1.073  0.00  0.00    -0.127 NA
ATOM      4  C   UNL     1       8.151   7.418  -1.520  0.00  0.00    +0.183 A 
ATOM      5  N   UNL     1       6.777   7.483  -1.546  0.00  0.00    -0.224 N 
ENDROOT
BRANCH   4   6
ATOM      6  C   UNL     1       9.089   8.487  -1.925  0.00  0.00    +0.039 A 
ATOM      7  C   UNL     1       8.903   9.793  -1.467  0.00  0.00    +0.014 A 
ATOM      8  C   UNL     1       9.784  10.785  -1.843  0.00  0.00    +0.021 A 
ATOM      9  C   UNL     1      10.845  10.491  -2.684  0.00  0.00    +0.042 A 
ATOM     10  C   UNL     1      11.032   9.200  -3.146  0.00  0.00    +0.040 A 
ATOM     11  C   UNL     1      10.160   8.197  -2.772  0.00  0.00    +0.053 A 
ATOM     12 CL   UNL     1      10.396   6.578  -3.353  0.00  0.00    -0.083 Cl
ATOM     13 CL   UNL     1      11.945  11.747  -3.159  0.00  0.00    -0.083 Cl
ENDBRANCH   4   6
BRANCH   5  14
ATOM     14  N   UNL     1       6.008   8.537  -1.947  0.00  0.00    -0.295 N 
ATOM     15  H   UNL     1       5.740   9.110  -1.161  0.00  0.00    +0.163 HD
ATOM     16  H   UNL     1       6.483   9.085  -2.648  0.00  0.00    +0.163 HD
ENDBRANCH   5  14
BRANCH   1  17
ATOM     17  S   UNL     1       4.666   5.769  -0.889  0.00  0.00    -0.072 S 
BRANCH  17  19
ATOM     18  C   UNL     1       5.590   4.155   1.112  0.00  0.00    +0.029 C 
ATOM     19  C   UNL     1       4.913   4.090  -0.258  0.00  0.00    +0.137 C 
BRANCH  19  20
ATOM     20  C   UNL     1       3.579   3.401  -0.128  0.00  0.00    +0.231 C 
ATOM     21  O   UNL     1       2.561   4.057  -0.073  0.00  0.00    -0.274 OA
ATOM     22  N   UNL     1       3.518   2.056  -0.071  0.00  0.00    -0.269 N 
ATOM     23  C   UNL     1       2.281   1.414  -0.063  0.00  0.00    +0.125 A 
ATOM     24  C   UNL     1       2.225   0.026  -0.117  0.00  0.00    +0.045 A 
ATOM     25  C   UNL     1       0.991  -0.599  -0.108  0.00  0.00    +0.025 A 
ATOM     26  C   UNL     1      -0.151   0.190  -0.045  0.00  0.00    +0.059 A 
ATOM     27  C   UNL     1      -0.021   1.565   0.007  0.00  0.00    +0.132 A 
ATOM     28  N   UNL     1       1.170   2.132  -0.003  0.00  0.00    -0.239 NA
ATOM     29 CL   UNL     1      -1.725  -0.543  -0.031  0.00  0.00    -0.082 Cl
ATOM     30  H   UNL     1       4.336   1.535  -0.037  0.00  0.00    +0.156 HD
ENDBRANCH  19  20
ENDBRANCH  17  19
ENDBRANCH   1  17
TORSDOF 5
