REMARK  Name = ZINC37286159
REMARK  3 active torsions:
REMARK  status: ('A' for Active; 'I' for Inactive)
REMARK    1  A    between atoms: C_5  and  N_7
REMARK    2  A    between atoms: C_8  and  C_10
REMARK    3  A    between atoms: C_12  and  N_17
REMARK                            x       y       z     vdW  Elec       q    Type
REMARK                         _______ _______ _______ _____ _____    ______ ____
ROOT
ATOM      1  N   UNL     1       1.237  -2.079  -0.022  0.00  0.00    -0.281 N 
ATOM      2  C   UNL     1       0.087  -2.772   0.087  0.00  0.00    +0.251 C 
ATOM      3  O   UNL     1      -0.978  -2.185   0.101  0.00  0.00    -0.270 OA
ATOM      4  H   UNL     1       2.082  -2.550  -0.100  0.00  0.00    +0.155 HD
ENDROOT
BRANCH   1   9
ATOM      5  C   UNL     1       0.136   1.378  -0.615  0.00  0.00    +0.002 A 
ATOM      6  C   UNL     1       1.168   2.086  -0.027  0.00  0.00    +0.001 A 
ATOM      7  C   UNL     1       2.224   1.415   0.562  0.00  0.00    +0.016 A 
ATOM      8  C   UNL     1       2.250   0.033   0.566  0.00  0.00    +0.035 A 
ATOM      9  C   UNL     1       1.214  -0.681  -0.023  0.00  0.00    +0.047 A 
ATOM     10  C   UNL     1       0.156  -0.003  -0.614  0.00  0.00    +0.024 A 
ATOM     11  I   UNL     1       3.849  -0.983   1.458  0.00  0.00    -0.042 I 
ENDBRANCH   1   9
BRANCH   2  12
ATOM     12  C   UNL     1       0.119  -4.245   0.189  0.00  0.00    +0.074 A 
ATOM     13  C   UNL     1       1.340  -4.923   0.179  0.00  0.00    +0.048 A 
ATOM     14  C   UNL     1       1.363  -6.298   0.275  0.00  0.00    +0.127 A 
ATOM     15  C   UNL     1       0.179  -7.009   0.381  0.00  0.00    +0.035 A 
ATOM     16  C   UNL     1      -1.034  -6.347   0.392  0.00  0.00    +0.041 A 
ATOM     17  C   UNL     1      -1.073  -4.968   0.302  0.00  0.00    +0.136 A 
ATOM     18  F   UNL     1      -2.259  -4.321   0.318  0.00  0.00    -0.205 F 
BRANCH  14  19
ATOM     19  N   UNL     1       2.656  -7.017   0.264  0.00  0.00    +0.056 N 
ATOM     20  O   UNL     1       3.691  -6.398   0.171  0.00  0.00    -0.126 OA
ATOM     21  O   UNL     1       2.679  -8.223   0.348  0.00  0.00    -0.126 OA
ENDBRANCH  14  19
ENDBRANCH   2  12
TORSDOF 3
