REMARK  Name = ZINC30756042
REMARK  8 active torsions:
REMARK  status: ('A' for Active; 'I' for Inactive)
REMARK    1  A    between atoms: C_1  and  C_2
REMARK    2  A    between atoms: C_5  and  C_9
REMARK    3  A    between atoms: C_6  and  C_8
REMARK    4  A    between atoms: C_9  and  C_11
REMARK    5  A    between atoms: C_9  and  N_12
REMARK    6  A    between atoms: C_13  and  C_15
REMARK    7  A    between atoms: N_18  and  S_27
REMARK    8  A    between atoms: S_27  and  C_30
REMARK                            x       y       z     vdW  Elec       q    Type
REMARK                         _______ _______ _______ _____ _____    ______ ____
ROOT
ATOM      1  C   UNL     1       1.248  -0.463   0.358  0.00  0.00    +0.277 C 
ATOM      2  C   UNL     1       0.257  -0.134  -0.767  0.00  0.00    +0.185 C 
ATOM      3  N   UNL     1       0.400   1.298  -1.082  0.00  0.00    -0.200 N 
ATOM      4  C   UNL     1       1.699   1.827  -1.139  0.00  0.00    +0.094 A 
ATOM      5  C   UNL     1       1.916   3.076  -1.700  0.00  0.00    +0.048 A 
ATOM      6  C   UNL     1       3.198   3.595  -1.749  0.00  0.00    +0.043 A 
ATOM      7  C   UNL     1       4.260   2.868  -1.241  0.00  0.00    +0.024 A 
ATOM      8  C   UNL     1       4.048   1.622  -0.683  0.00  0.00    +0.049 A 
ATOM      9  C   UNL     1       2.767   1.093  -0.629  0.00  0.00    +0.144 A 
ATOM     10  O   UNL     1       2.568  -0.135  -0.081  0.00  0.00    -0.476 OA
ATOM     11 CL   UNL     1       3.474   5.159  -2.450  0.00  0.00    -0.083 Cl
ENDROOT
BRANCH   1  13
ATOM     12  N   UNL     1       0.040  -2.448   1.205  0.00  0.00    -0.306 N 
ATOM     13  C   UNL     1       1.171  -1.931   0.686  0.00  0.00    +0.256 C 
ATOM     14  O   UNL     1       2.128  -2.649   0.482  0.00  0.00    -0.272 OA
ATOM     15  H   UNL     1      -0.828  -1.797   1.390  0.00  0.00    +0.149 HD
BRANCH  12  16
ATOM     16  C   UNL     1      -0.035  -3.876   1.523  0.00  0.00    +0.100 C 
ATOM     17  C   UNL     1       0.426  -4.102   2.965  0.00  0.00    +0.033 C 
BRANCH  16  22
ATOM     18  C   UNL     1      -5.487  -5.699   0.933  0.00  0.00    +0.044 C 
ATOM     19  C   UNL     1      -4.065  -5.223   1.087  0.00  0.00    -0.050 A 
ATOM     20  C   UNL     1      -3.808  -3.899   1.391  0.00  0.00    +0.004 A 
ATOM     21  C   UNL     1      -2.504  -3.463   1.532  0.00  0.00    +0.006 A 
ATOM     22  C   UNL     1      -1.456  -4.351   1.370  0.00  0.00    -0.025 A 
ATOM     23  C   UNL     1      -1.714  -5.674   1.061  0.00  0.00    -0.045 A 
ATOM     24  C   UNL     1      -3.018  -6.111   0.925  0.00  0.00    +0.007 A 
ATOM     25  C   UNL     1      -0.572  -6.641   0.878  0.00  0.00    +0.044 C 
ENDBRANCH  16  22
ENDBRANCH  12  16
ENDBRANCH   1  13
BRANCH   3  26
ATOM     26  S   UNL     1      -0.926   2.249  -1.367  0.00  0.00    +0.043 S 
ATOM     27  O   UNL     1      -2.015   1.529  -0.808  0.00  0.00    -0.155 OA
ATOM     28  O   UNL     1      -0.569   3.529  -0.863  0.00  0.00    -0.155 OA
ATOM     29  C   UNL     1      -1.077   2.309  -3.173  0.00  0.00    +0.218 C 
ENDBRANCH   3  26
TORSDOF 4
