REMARK  Name = ZINC32096950
REMARK  5 active torsions:
REMARK  status: ('A' for Active; 'I' for Inactive)
REMARK    1  A    between atoms: C_3  and  N_11
REMARK    2  A    between atoms: C_6  and  C_7
REMARK    3  A    between atoms: C_7  and  C_8
REMARK    4  A    between atoms: N_11  and  S_12
REMARK    5  A    between atoms: S_12  and  C_15
REMARK                            x       y       z     vdW  Elec       q    Type
REMARK                         _______ _______ _______ _____ _____    ______ ____
ROOT
ATOM      1  C   UNL     1       0.042   1.392   0.131  0.00  0.00    +0.006 A 
ATOM      2  C   UNL     1       0.037   0.012   0.100  0.00  0.00    +0.027 A 
ATOM      3  C   UNL     1       1.236  -0.684   0.011  0.00  0.00    +0.074 A 
ATOM      4  C   UNL     1       2.437   0.013  -0.046  0.00  0.00    +0.027 A 
ATOM      5  C   UNL     1       2.435   1.393  -0.015  0.00  0.00    +0.006 A 
ATOM      6  C   UNL     1       1.239   2.082   0.074  0.00  0.00    -0.039 A 
ENDROOT
BRANCH   6   7
ATOM      7  C   UNL     1       1.241   3.589   0.108  0.00  0.00    +0.130 C 
BRANCH   7   8
ATOM      8  C   UNL     1       1.327   4.059   1.537  0.00  0.00    +0.215 C 
ATOM      9  O   UNL     1       1.382   3.251   2.439  0.00  0.00    -0.276 OA
ATOM     10  N   UNL     1       1.343   5.378   1.812  0.00  0.00    -0.329 N 
ATOM     11  H   UNL     1       1.406   5.722   2.855  0.00  0.00    +0.145 HD
ATOM     12  H   UNL     1       1.294   6.112   0.994  0.00  0.00    +0.145 HD
ENDBRANCH   7   8
ENDBRANCH   6   7
BRANCH   3  13
ATOM     13  N   UNL     1       1.235  -2.080  -0.021  0.00  0.00    -0.098 NA
BRANCH  13  14
ATOM     14  S   UNL     1       2.163  -2.884  -1.133  0.00  0.00    +0.092 S 
ATOM     15  O   UNL     1       3.481  -2.368  -1.012  0.00  0.00    -0.148 OA
ATOM     16  O   UNL     1       1.869  -4.266  -0.984  0.00  0.00    -0.148 OA
BRANCH  14  17
ATOM     17  C   UNL     1       1.584  -2.415  -2.730  0.00  0.00    +0.116 A 
ATOM     18  C   UNL     1       0.515  -3.081  -3.300  0.00  0.00    +0.067 A 
ATOM     19  C   UNL     1       0.056  -2.710  -4.553  0.00  0.00    +0.128 A 
ATOM     20  C   UNL     1       0.675  -1.679  -5.239  0.00  0.00    +0.076 A 
ATOM     21  C   UNL     1       1.749  -1.017  -4.670  0.00  0.00    +0.128 A 
ATOM     22  C   UNL     1       2.203  -1.386  -3.415  0.00  0.00    +0.067 A 
ATOM     23  F   UNL     1       2.354  -0.011  -5.338  0.00  0.00    -0.205 F 
ATOM     24  F   UNL     1      -0.992  -3.357  -5.107  0.00  0.00    -0.205 F 
ENDBRANCH  14  17
ENDBRANCH  13  14
ENDBRANCH   3  13
TORSDOF 5
