REMARK  Name = ZINC04357086
REMARK  7 active torsions:
REMARK  status: ('A' for Active; 'I' for Inactive)
REMARK    1  A    between atoms: C_4  and  C_7
REMARK    2  A    between atoms: C_8  and  C_9
REMARK    3  A    between atoms: N_13  and  C_17
REMARK    4  A    between atoms: C_17  and  C_19
REMARK    5  A    between atoms: C_17  and  C_24
REMARK    6  A    between atoms: C_19  and  C_20
REMARK    7  A    between atoms: C_20  and  C_21
REMARK                            x       y       z     vdW  Elec       q    Type
REMARK                         _______ _______ _______ _____ _____    ______ ____
ROOT
ATOM      1  C   UNL     1      -0.017   0.017   0.221  0.00  0.00    +0.040 C 
ATOM      2  C   UNL     1      -0.064   1.380   0.212  0.00  0.00    +0.078 C 
ATOM      3  C   UNL     1      -0.914   2.286  -0.583  0.00  0.00    +0.259 C 
ATOM      4  O   UNL     1      -1.731   1.861  -1.380  0.00  0.00    -0.269 OA
ATOM      5  N   UNL     1      -0.749   3.583  -0.384  0.00  0.00    -0.241 N 
ATOM      6  C   UNL     1       0.162   4.049   0.495  0.00  0.00    +0.121 C 
ATOM      7  S   UNL     1       0.526   5.676   0.886  0.00  0.00    -0.027 S 
ATOM      8  S   UNL     1       0.893   2.560   1.154  0.00  0.00    -0.061 S 
ENDROOT
BRANCH   1  10
ATOM      9  C   UNL     1      -1.178  -2.078   0.210  0.00  0.00    +0.028 C 
ATOM     10  C   UNL     1      -1.201  -0.731   0.061  0.00  0.00    +0.043 C 
ATOM     11 CL   UNL     1      -2.689   0.073  -0.328  0.00  0.00    -0.083 Cl
BRANCH   9  15
ATOM     12  C   UNL     1      -4.806  -4.272   0.232  0.00  0.00    +0.000 A 
ATOM     13  C   UNL     1      -3.685  -4.802  -0.382  0.00  0.00    +0.001 A 
ATOM     14  C   UNL     1      -2.502  -4.095  -0.394  0.00  0.00    +0.008 A 
ATOM     15  C   UNL     1      -2.436  -2.838   0.218  0.00  0.00    -0.024 A 
ATOM     16  C   UNL     1      -3.573  -2.312   0.841  0.00  0.00    +0.008 A 
ATOM     17  C   UNL     1      -4.750  -3.029   0.839  0.00  0.00    +0.001 A 
ENDBRANCH   9  15
ENDBRANCH   1  10
BRANCH   5  18
ATOM     18  C   UNL     1      -1.568   4.534  -1.139  0.00  0.00    +0.196 C 
BRANCH  18  19
ATOM     19  C   UNL     1      -2.370   5.377  -0.182  0.00  0.00    +0.376 C 
ATOM     20  O   UNL     1      -2.268   5.202   1.009  0.00  0.00    -0.244 OA
ATOM     21  O   UNL     1      -3.198   6.323  -0.652  0.00  0.00    -0.244 OA
ENDBRANCH  18  19
BRANCH  18  22
ATOM     22  C   UNL     1      -0.660   5.436  -1.976  0.00  0.00    +0.046 C 
BRANCH  22  23
ATOM     23  C   UNL     1       0.062   4.596  -3.032  0.00  0.00    +0.127 C 
BRANCH  23  24
ATOM     24  C   UNL     1       0.956   5.485  -3.857  0.00  0.00    +0.356 C 
ATOM     25  O   UNL     1       1.011   6.670  -3.624  0.00  0.00    -0.246 OA
ATOM     26  O   UNL     1       1.692   4.962  -4.850  0.00  0.00    -0.246 OA
ENDBRANCH  23  24
ENDBRANCH  22  23
ENDBRANCH  18  22
ENDBRANCH   5  18
TORSDOF 7
