REMARK  Name = ZINC40270385
REMARK  2 active torsions:
REMARK  status: ('A' for Active; 'I' for Inactive)
REMARK    1  A    between atoms: C_3  and  C_6
REMARK    2  A    between atoms: C_6  and  C_8
REMARK                            x       y       z     vdW  Elec       q    Type
REMARK                         _______ _______ _______ _____ _____    ______ ____
ROOT
ATOM      1  C   UNL     1       4.424   1.457  -1.321  0.00  0.00    -0.023 A 
ATOM      2  C   UNL     1       4.633   0.120  -1.614  0.00  0.00    +0.007 A 
ATOM      3  C   UNL     1       5.240  -0.246  -2.800  0.00  0.00    +0.028 A 
ATOM      4  C   UNL     1       5.642   0.730  -3.699  0.00  0.00    +0.067 A 
ATOM      5  C   UNL     1       5.431   2.078  -3.403  0.00  0.00    +0.067 A 
ATOM      6  C   UNL     1       4.816   2.435  -2.213  0.00  0.00    +0.033 A 
ATOM      7  N   UNL     1       5.931   2.809  -4.478  0.00  0.00    -0.306 N 
ATOM      8  H   UNL     1       5.926   3.776  -4.558  0.00  0.00    +0.170 HD
ATOM      9  C   UNL     1       6.423   1.945  -5.386  0.00  0.00    +0.325 A 
ATOM     10  O   UNL     1       6.935   2.258  -6.445  0.00  0.00    -0.247 OA
ATOM     11  N   UNL     1       6.263   0.683  -4.945  0.00  0.00    -0.306 N 
ATOM     12  H   UNL     1       6.534  -0.121  -5.415  0.00  0.00    +0.170 HD
ENDROOT
BRANCH   1  13
ATOM     13  C   UNL     1       3.761   1.845  -0.024  0.00  0.00    +0.147 C 
ATOM     14 CL   UNL     1       4.670   1.124   1.356  0.00  0.00    -0.111 Cl
BRANCH  13  17
ATOM     15  C   UNL     1      -0.016   1.351   0.009  0.00  0.00    +0.008 A 
ATOM     16  C   UNL     1       1.183   2.038   0.002  0.00  0.00    +0.013 A 
ATOM     17  C   UNL     1       2.343   1.336  -0.013  0.00  0.00    +0.012 A 
ATOM     18  S   UNL     1       1.754  -0.349  -0.017  0.00  0.00    -0.100 S 
ATOM     19  C   UNL     1       0.002  -0.004   0.002  0.00  0.00    +0.045 A 
ENDBRANCH  13  17
ENDBRANCH   1  13
TORSDOF 2
