REMARK  Name = ZINC36792682
REMARK  6 active torsions:
REMARK  status: ('A' for Active; 'I' for Inactive)
REMARK    1  A    between atoms: C_1  and  C_2
REMARK    2  A    between atoms: C_3  and  C_12
REMARK    3  A    between atoms: C_4  and  S_10
REMARK    4  A    between atoms: S_10  and  C_11
REMARK    5  A    between atoms: C_19  and  C_21
REMARK    6  A    between atoms: C_21  and  O_22
REMARK                            x       y       z     vdW  Elec       q    Type
REMARK                         _______ _______ _______ _____ _____    ______ ____
ROOT
ATOM      1  C   UNL     1      -0.797   0.610  -2.579  0.00  0.00    +0.064 C 
ATOM      2  C   UNL     1      -0.386  -0.453  -1.593  0.00  0.00    +0.032 A 
ATOM      3  C   UNL     1      -1.197  -0.763  -0.517  0.00  0.00    +0.088 A 
ATOM      4  C   UNL     1      -0.743  -1.808   0.409  0.00  0.00    +0.116 A 
ATOM      5  N   UNL     1       0.419  -2.405   0.175  0.00  0.00    -0.186 NA
ATOM      6  C   UNL     1       1.161  -2.066  -0.877  0.00  0.00    +0.347 A 
ATOM      7  O   UNL     1       2.222  -2.637  -1.058  0.00  0.00    -0.245 OA
ATOM      8  N   UNL     1       0.777  -1.120  -1.749  0.00  0.00    -0.310 N 
ATOM      9  H   UNL     1       1.348  -0.910  -2.505  0.00  0.00    +0.170 HD
ENDROOT
BRANCH   3  10
ATOM     10  C   UNL     1      -2.478  -0.068  -0.306  0.00  0.00    +0.251 C 
ATOM     11  O   UNL     1      -2.498   1.140  -0.166  0.00  0.00    -0.270 OA
ATOM     12  N   UNL     1      -3.628  -0.769  -0.270  0.00  0.00    -0.292 N 
ATOM     13  C   UNL     1      -3.610  -2.238  -0.304  0.00  0.00    +0.108 C 
ATOM     14  C   UNL     1      -4.518  -2.715  -1.442  0.00  0.00    +0.019 C 
ATOM     15  C   UNL     1      -5.912  -2.107  -1.266  0.00  0.00    +0.003 C 
ATOM     16  C   UNL     1      -5.816  -0.581  -1.332  0.00  0.00    +0.025 C 
ATOM     17  C   UNL     1      -4.923  -0.080  -0.187  0.00  0.00    +0.102 C 
BRANCH  17  18
ATOM     18  C   UNL     1      -4.710   1.429  -0.323  0.00  0.00    +0.178 C 
BRANCH  18  19
ATOM     19  O   UNL     1      -4.151   1.718  -1.606  0.00  0.00    -0.393 OA
ATOM     20  H   UNL     1      -3.990   2.658  -1.762  0.00  0.00    +0.209 HD
ENDBRANCH  18  19
ENDBRANCH  17  18
ENDBRANCH   3  10
BRANCH   4  21
ATOM     21  S   UNL     1      -1.720  -2.260   1.804  0.00  0.00    -0.108 S 
ATOM     22  C   UNL     1      -0.751  -3.560   2.616  0.00  0.00    +0.091 C 
ENDBRANCH   4  21
TORSDOF 4
