REMARK  Name = ZINC02583011
REMARK  9 active torsions:
REMARK  status: ('A' for Active; 'I' for Inactive)
REMARK    1  A    between atoms: C_1  and  C_2
REMARK    2  A    between atoms: C_5  and  O_32
REMARK    3  A    between atoms: C_6  and  C_8
REMARK    4  A    between atoms: C_8  and  CA_9
REMARK    5  A    between atoms: CA_9  and  C_11
REMARK    6  A    between atoms: CA_9  and  N_14
REMARK    7  A    between atoms: C_15  and  O_17
REMARK    8  A    between atoms: O_17  and  C_18
REMARK    9  A    between atoms: C_18  and  C_19
REMARK                            x       y       z     vdW  Elec       q    Type
REMARK                         _______ _______ _______ _____ _____    ______ ____
ROOT
ATOM      1  N   UNL     1      -2.237  -2.182   3.047  0.00  0.00    -0.267 N 
ATOM      2  C   UNL     1      -3.565  -2.296   2.851  0.00  0.00    +0.401 C 
ATOM      3  O   UNL     1      -4.036  -3.354   2.481  0.00  0.00    -0.226 OA
ATOM      4  H   UNL     1      -1.861  -1.338   3.343  0.00  0.00    +0.153 HD
ENDROOT
BRANCH   1   5
ATOM      5  CA  UNL     1      -1.360  -3.333   2.815  0.00  0.00    +0.193 C 
BRANCH   5   6
ATOM      6  C   UNL     1      -1.323  -4.194   4.051  0.00  0.00    +0.376 C 
ATOM      7  O   UNL     1      -1.816  -3.790   5.090  0.00  0.00    -0.244 OA
ATOM      8  OXT UNL     1      -0.800  -5.295   4.011  0.00  0.00    -0.244 OA
ENDBRANCH   5   6
BRANCH   5   9
ATOM      9  C   UNL     1       0.052  -2.841   2.493  0.00  0.00    +0.072 C 
BRANCH   9  15
ATOM     10  C   UNL     1      -0.018   1.503   0.010  0.00  0.00    +0.044 C 
ATOM     11  C   UNL     1       0.002  -0.004   0.002  0.00  0.00    -0.050 A 
ATOM     12  C   UNL     1       0.006  -0.688  -1.200  0.00  0.00    +0.007 A 
ATOM     13  C   UNL     1       0.024  -2.069  -1.210  0.00  0.00    +0.046 A 
ATOM     14  C   UNL     1       0.039  -2.770  -0.013  0.00  0.00    +0.120 A 
ATOM     15  C   UNL     1       0.036  -2.082   1.191  0.00  0.00    -0.003 A 
ATOM     16  C   UNL     1       0.023  -0.701   1.196  0.00  0.00    +0.010 A 
BRANCH  14  17
ATOM     17  O   UNL     1       0.057  -4.129  -0.021  0.00  0.00    -0.506 OA
ATOM     18  H   UNL     1       0.945  -4.511  -0.027  0.00  0.00    +0.292 HD
ENDBRANCH  14  17
ENDBRANCH   9  15
ENDBRANCH   5   9
ENDBRANCH   1   5
BRANCH   2  19
ATOM     19  O   UNL     1      -4.371  -1.239   3.065  0.00  0.00    -0.449 OA
BRANCH  19  20
ATOM     20  C   UNL     1      -5.768  -1.431   2.837  0.00  0.00    +0.246 C 
BRANCH  20  21
ATOM     21  C   UNL     1      -6.517  -0.130   3.130  0.00  0.00    +0.088 C 
ATOM     22  C   UNL     1      -6.474   0.173   4.608  0.00  0.00    -0.029 A 
ATOM     23  C   UNL     1      -5.428   0.405   5.475  0.00  0.00    +0.005 A 
ATOM     24  C   UNL     1      -5.679   0.663   6.811  0.00  0.00    +0.000 A 
ATOM     25  C   UNL     1      -6.981   0.689   7.279  0.00  0.00    +0.001 A 
ATOM     26  C   UNL     1      -8.034   0.458   6.418  0.00  0.00    +0.009 A 
ATOM     27  C   UNL     1      -7.787   0.197   5.069  0.00  0.00    -0.014 A 
ATOM     28  C   UNL     1      -8.712  -0.082   3.942  0.00  0.00    -0.014 A 
ATOM     29  C   UNL     1      -7.977  -0.279   2.777  0.00  0.00    -0.029 A 
ATOM     30  C   UNL     1      -8.618  -0.555   1.588  0.00  0.00    +0.005 A 
ATOM     31  C   UNL     1      -9.999  -0.637   1.549  0.00  0.00    +0.000 A 
ATOM     32  C   UNL     1     -10.738  -0.441   2.701  0.00  0.00    +0.001 A 
ATOM     33  C   UNL     1     -10.105  -0.165   3.895  0.00  0.00    +0.009 A 
ENDBRANCH  20  21
ENDBRANCH  19  20
ENDBRANCH   2  19
TORSDOF 8
