REMARK  Name = ZINC44785653
REMARK  4 active torsions:
REMARK  status: ('A' for Active; 'I' for Inactive)
REMARK    1  A    between atoms: C_1  and  C_2
REMARK    2  A    between atoms: C_8  and  C_10
REMARK    3  A    between atoms: C_10  and  C_17
REMARK    4  A    between atoms: N_18  and  O_19
REMARK                            x       y       z     vdW  Elec       q    Type
REMARK                         _______ _______ _______ _____ _____    ______ ____
ROOT
ATOM      1  C   UNL     1      -0.058  -4.234   2.117  0.00  0.00    +0.105 C 
ATOM      2  C   UNL     1      -1.417  -4.048   2.735  0.00  0.00    +0.024 C 
ATOM      3  C   UNL     1      -1.459  -2.865   3.722  0.00  0.00    +0.001 C 
ATOM      4  C   UNL     1      -0.209  -2.792   4.620  0.00  0.00    +0.000 C 
ATOM      5  C   UNL     1       0.224  -4.145   5.116  0.00  0.00    +0.000 C 
ATOM      6  C   UNL     1       1.298  -4.698   4.156  0.00  0.00    +0.001 C 
ATOM      7  C   UNL     1       0.721  -5.273   2.950  0.00  0.00    +0.024 C 
ENDROOT
BRANCH   1  14
ATOM      8  C   UNL     1       5.323  -1.236   1.486  0.00  0.00    +0.009 C 
ATOM      9  C   UNL     1       4.276  -2.154   2.122  0.00  0.00    +0.005 C 
ATOM     10  C   UNL     1       4.309  -3.565   1.477  0.00  0.00    +0.024 C 
ATOM     11  C   UNL     1       2.869  -4.077   1.693  0.00  0.00    +0.108 C 
ATOM     12  N   UNL     1       2.011  -2.898   1.885  0.00  0.00    -0.300 N 
ATOM     13  C   UNL     1       2.842  -1.685   1.773  0.00  0.00    +0.111 C 
ATOM     14  C   UNL     1       0.684  -2.923   2.122  0.00  0.00    +0.229 C 
ATOM     15  O   UNL     1       0.088  -1.889   2.339  0.00  0.00    -0.275 OA
ENDBRANCH   1  14
BRANCH   1  16
ATOM     16  C   UNL     1      -0.205  -4.728   0.701  0.00  0.00    +0.147 C 
ATOM     17  N   UNL     1       0.212  -5.909   0.382  0.00  0.00    -0.076 NA
ATOM     18  N   UNL     1      -0.783  -3.920  -0.253  0.00  0.00    -0.343 N 
ATOM     19  H   UNL     1      -1.161  -3.064   0.001  0.00  0.00    +0.144 HD
ATOM     20  H   UNL     1      -0.812  -4.208  -1.179  0.00  0.00    +0.144 HD
BRANCH  17  21
ATOM     21  O   UNL     1       0.074  -6.372  -0.949  0.00  0.00    -0.408 OA
ATOM     22  H   UNL     1       0.414  -7.266  -1.091  0.00  0.00    +0.328 HD
ENDBRANCH  17  21
ENDBRANCH   1  16
TORSDOF 3
