REMARK  Name = ZINC63413021
REMARK  8 active torsions:
REMARK  status: ('A' for Active; 'I' for Inactive)
REMARK    1  A    between atoms: C_1  and  C_2
REMARK    2  A    between atoms: C_11  and  C_12
REMARK    3  A    between atoms: C_12  and  C_14
REMARK    4  A    between atoms: C_14  and  C_26
REMARK    5  A    between atoms: C_15  and  C_16
REMARK    6  A    between atoms: C_18  and  O_24
REMARK    7  A    between atoms: C_19  and  O_23
REMARK    8  A    between atoms: O_24  and  C_25
REMARK                            x       y       z     vdW  Elec       q    Type
REMARK                         _______ _______ _______ _____ _____    ______ ____
ROOT
ATOM      1  C   UNL     1       0.021  -6.750  -0.229  0.00  0.00    +0.100 C 
ATOM      2  C   UNL     1       0.230  -7.737  -1.167  0.00  0.00    +0.030 C 
ENDROOT
BRANCH   2   3
ATOM      3  C   UNL     1       0.355  -7.387  -2.583  0.00  0.00    -0.019 A 
ATOM      4  C   UNL     1      -0.077  -8.284  -3.571  0.00  0.00    +0.057 A 
ATOM      5  C   UNL     1       0.043  -7.947  -4.904  0.00  0.00    +0.163 A 
ATOM      6  C   UNL     1       0.595  -6.718  -5.267  0.00  0.00    +0.177 A 
ATOM      7  C   UNL     1       1.024  -5.827  -4.290  0.00  0.00    +0.087 A 
ATOM      8  C   UNL     1       0.903  -6.151  -2.957  0.00  0.00    +0.032 A 
ATOM      9 CL   UNL     1       1.710  -4.301  -4.751  0.00  0.00    -0.080 Cl
BRANCH   6  10
ATOM     10  O   UNL     1       0.713  -6.391  -6.580  0.00  0.00    -0.502 OA
ATOM     11  H   UNL     1      -0.057  -5.930  -6.941  0.00  0.00    +0.292 HD
ENDBRANCH   6  10
BRANCH   5  12
ATOM     12  O   UNL     1      -0.375  -8.815  -5.864  0.00  0.00    -0.491 OA
ATOM     13  C   UNL     1      -0.929 -10.055  -5.421  0.00  0.00    +0.277 C 
ENDBRANCH   5  12
ENDBRANCH   2   3
BRANCH   1  14
ATOM     14  C   UNL     1      -0.224  -5.364  -0.661  0.00  0.00    +0.205 C 
ATOM     15  O   UNL     1      -1.202  -5.102  -1.337  0.00  0.00    -0.286 OA
BRANCH  14  26
ATOM     16  C   UNL     1       1.365   1.282  -1.326  0.00  0.00    +0.044 C 
ATOM     17  C   UNL     1       1.122  -0.188  -1.101  0.00  0.00    -0.048 A 
ATOM     18  C   UNL     1       0.042  -0.807  -1.713  0.00  0.00    +0.004 A 
ATOM     19  C   UNL     1      -0.192  -2.150  -1.516  0.00  0.00    +0.011 A 
ATOM     20  C   UNL     1       0.661  -2.886  -0.697  0.00  0.00    +0.011 A 
ATOM     21  C   UNL     1       1.754  -2.261  -0.076  0.00  0.00    +0.047 A 
ATOM     22  C   UNL     1       1.977  -0.905  -0.292  0.00  0.00    +0.029 A 
ATOM     23  N   UNL     1       2.414  -3.220   0.664  0.00  0.00    -0.360 N 
ATOM     24  H   UNL     1       3.209  -3.058   1.196  0.00  0.00    +0.165 HD
ATOM     25  C   UNL     1       1.796  -4.419   0.543  0.00  0.00    +0.095 A 
ATOM     26  C   UNL     1       0.710  -4.298  -0.275  0.00  0.00    +0.048 A 
ENDBRANCH  14  26
ENDBRANCH   1  14
BRANCH   1  27
ATOM     27  C   UNL     1       0.044  -7.071   1.166  0.00  0.00    +0.103 C 
ATOM     28  N   UNL     1       0.063  -7.327   2.273  0.00  0.00    -0.191 NA
ENDBRANCH   1  27
TORSDOF 6
