REMARK  Name = ZINC58228542
REMARK  5 active torsions:
REMARK  status: ('A' for Active; 'I' for Inactive)
REMARK    1  A    between atoms: C_1  and  N_2
REMARK    2  A    between atoms: C_3  and  C_5
REMARK    3  A    between atoms: C_10  and  N_11
REMARK    4  A    between atoms: C_12  and  C_14
REMARK    5  A    between atoms: N_22  and  C_23
REMARK                            x       y       z     vdW  Elec       q    Type
REMARK                         _______ _______ _______ _____ _____    ______ ____
ROOT
ATOM      1  N   UNL     1       2.250  -2.007  -2.918  0.00  0.00    -0.280 N 
ATOM      2  C   UNL     1       2.562  -2.647  -4.063  0.00  0.00    +0.266 C 
ATOM      3  O   UNL     1       2.575  -3.864  -4.095  0.00  0.00    -0.268 OA
ATOM      4  H   UNL     1       2.189  -1.039  -2.905  0.00  0.00    +0.155 HD
ENDROOT
BRANCH   2   5
ATOM      5  C   UNL     1       2.884  -1.877  -5.270  0.00  0.00    +0.124 A 
ATOM      6  C   UNL     1       3.339  -2.400  -6.441  0.00  0.00    +0.079 A 
ATOM      7  C   UNL     1       3.525  -1.327  -7.348  0.00  0.00    +0.019 A 
ATOM      8  C   UNL     1       3.966  -1.256  -8.676  0.00  0.00    +0.011 A 
ATOM      9  C   UNL     1       4.042  -0.046  -9.302  0.00  0.00    +0.001 A 
ATOM     10  C   UNL     1       3.685   1.119  -8.635  0.00  0.00    +0.002 A 
ATOM     11  C   UNL     1       3.249   1.076  -7.330  0.00  0.00    +0.026 A 
ATOM     12  C   UNL     1       3.163  -0.147  -6.670  0.00  0.00    +0.051 A 
ATOM     13  N   UNL     1       2.769  -0.505  -5.402  0.00  0.00    -0.338 N 
ATOM     14  C   UNL     1       2.305   0.416  -4.361  0.00  0.00    +0.149 C 
ATOM     15 CL   UNL     1       3.639  -4.079  -6.766  0.00  0.00    -0.081 Cl
ENDBRANCH   2   5
BRANCH   1  21
ATOM     16  C   UNL     1       2.299  -2.170  -0.502  0.00  0.00    +0.059 A 
ATOM     17  C   UNL     1       2.055  -2.909   0.659  0.00  0.00    +0.035 A 
ATOM     18  C   UNL     1       1.545  -4.186   0.566  0.00  0.00    +0.042 A 
ATOM     19  C   UNL     1       1.273  -4.743  -0.674  0.00  0.00    +0.022 A 
ATOM     20  C   UNL     1       1.509  -4.025  -1.829  0.00  0.00    +0.025 A 
ATOM     21  C   UNL     1       2.017  -2.735  -1.755  0.00  0.00    +0.046 A 
ATOM     22 CL   UNL     1       1.243  -5.103   2.009  0.00  0.00    -0.084 Cl
BRANCH  16  25
ATOM     23  C   UNL     1       3.537   1.141   0.885  0.00  0.00    +0.128 C 
ATOM     24  N   UNL     1       2.995  -0.217   0.794  0.00  0.00    -0.314 N 
ATOM     25  C   UNL     1       2.844  -0.803  -0.410  0.00  0.00    +0.246 C 
ATOM     26  O   UNL     1       3.158  -0.204  -1.421  0.00  0.00    -0.270 OA
ATOM     27  H   UNL     1       2.745  -0.694   1.601  0.00  0.00    +0.149 HD
ENDBRANCH  16  25
ENDBRANCH   1  21
TORSDOF 3
