REMARK  Name = ZINC54670895
REMARK  9 active torsions:
REMARK  status: ('A' for Active; 'I' for Inactive)
REMARK    1  A    between atoms: C_1  and  C_2
REMARK    2  A    between atoms: C_2  and  O_3
REMARK    3  A    between atoms: O_3  and  C_4
REMARK    4  A    between atoms: C_4  and  C_6
REMARK    5  A    between atoms: C_7  and  N_30
REMARK    6  A    between atoms: N_18  and  C_21
REMARK    7  A    between atoms: C_21  and  N_22
REMARK    8  A    between atoms: N_22  and  C_23
REMARK    9  A    between atoms: N_22  and  C_24
REMARK                            x       y       z     vdW  Elec       q    Type
REMARK                         _______ _______ _______ _____ _____    ______ ____
ROOT
ATOM      1  C   UNL     1       1.613  -2.125  -2.488  0.00  0.00    +0.117 C 
ATOM      2  C   UNL     1       1.741  -3.466  -2.670  0.00  0.00    +0.195 C 
ATOM      3  O   UNL     1       2.345  -3.962  -3.761  0.00  0.00    -0.446 OA
ATOM      4  C   UNL     1       3.187  -3.200  -4.486  0.00  0.00    +0.115 C 
ATOM      5  C   UNL     1       3.151  -1.856  -4.410  0.00  0.00    +0.057 C 
ATOM      6  C   UNL     1       2.150  -1.170  -3.515  0.00  0.00    +0.142 C 
ATOM      7  C   UNL     1       1.040  -0.567  -4.319  0.00  0.00    -0.002 A 
ATOM      8  C   UNL     1       0.099  -1.139  -5.148  0.00  0.00    +0.007 A 
ATOM      9  C   UNL     1      -0.809  -0.280  -5.758  0.00  0.00    +0.000 A 
ATOM     10  C   UNL     1      -0.766   1.083  -5.541  0.00  0.00    +0.002 A 
ATOM     11  C   UNL     1       0.177   1.664  -4.708  0.00  0.00    +0.024 A 
ATOM     12  C   UNL     1       1.095   0.813  -4.090  0.00  0.00    +0.042 A 
ATOM     13  N   UNL     1       2.129   1.116  -3.223  0.00  0.00    -0.256 N 
ATOM     14  C   UNL     1       2.803   0.014  -2.833  0.00  0.00    +0.241 C 
ATOM     15  O   UNL     1       3.752  -0.021  -2.079  0.00  0.00    -0.273 OA
ATOM     16  C   UNL     1       4.039  -1.058  -5.156  0.00  0.00    +0.164 C 
ATOM     17  O   UNL     1       3.967   0.152  -5.072  0.00  0.00    -0.292 OA
ATOM     18  C   UNL     1       5.076  -1.675  -6.055  0.00  0.00    +0.080 C 
ATOM     19  C   UNL     1       5.448  -3.057  -5.507  0.00  0.00    +0.016 C 
ATOM     20  C   UNL     1       4.173  -3.894  -5.395  0.00  0.00    +0.075 C 
ENDROOT
BRANCH   2  21
ATOM     21  N   UNL     1       1.247  -4.325  -1.725  0.00  0.00    -0.329 N 
ATOM     22  H   UNL     1       0.746  -3.979  -0.970  0.00  0.00    +0.145 HD
ATOM     23  H   UNL     1       1.398  -5.279  -1.810  0.00  0.00    +0.145 HD
ENDBRANCH   2  21
BRANCH   1  24
ATOM     24  C   UNL     1       0.973  -1.632  -1.341  0.00  0.00    +0.342 C 
ATOM     25  O   UNL     1      -0.157  -1.182  -1.420  0.00  0.00    -0.245 OA
BRANCH  24  26
ATOM     26  O   UNL     1       1.609  -1.655  -0.150  0.00  0.00    -0.462 OA
BRANCH  26  28
ATOM     27  C   UNL     1       1.773  -1.215   2.221  0.00  0.00    +0.048 C 
ATOM     28  C   UNL     1       0.859  -1.241   0.994  0.00  0.00    +0.229 C 
ENDBRANCH  26  28
ENDBRANCH  24  26
ENDBRANCH   1  24
BRANCH  13  29
ATOM     29  C   UNL     1       2.455   2.474  -2.781  0.00  0.00    +0.200 C 
BRANCH  29  30
ATOM     30  N   UNL     1       1.786   2.746  -1.502  0.00  0.00    -0.293 NA
ATOM     31  C   UNL     1       2.585   2.248  -0.374  0.00  0.00    +0.106 C 
ATOM     32  C   UNL     1       1.500   4.179  -1.351  0.00  0.00    +0.106 C 
ENDBRANCH  29  30
ENDBRANCH  13  29
TORSDOF 6
