REMARK  Name = ZINC13012589
REMARK  6 active torsions:
REMARK  status: ('A' for Active; 'I' for Inactive)
REMARK    1  A    between atoms: C_3  and  C_6
REMARK    2  A    between atoms: C_6  and  C_8
REMARK    3  A    between atoms: C_6  and  N_15
REMARK    4  A    between atoms: N_18  and  C_19
REMARK    5  A    between atoms: C_22  and  S_25
REMARK    6  A    between atoms: S_25  and  N_28
REMARK                            x       y       z     vdW  Elec       q    Type
REMARK                         _______ _______ _______ _____ _____    ______ ____
ROOT
ATOM      1  N   UNL     1       1.102  -0.701  -0.122  0.00  0.00    -0.288 N 
ATOM      2  C   UNL     1      -0.045  -0.004  -0.003  0.00  0.00    +0.305 C 
ATOM      3  O   UNL     1      -1.106  -0.590   0.092  0.00  0.00    -0.252 OA
ATOM      4  N   UNL     1      -0.016   1.344   0.009  0.00  0.00    -0.269 N 
ATOM      5  H   UNL     1       1.948  -0.234  -0.198  0.00  0.00    +0.151 HD
ATOM      6  H   UNL     1       0.834   1.811   0.001  0.00  0.00    +0.156 HD
ENDROOT
BRANCH   4   7
ATOM      7  C   UNL     1      -1.213   2.069   0.029  0.00  0.00    +0.035 A 
ATOM      8  C   UNL     1      -1.303   3.280  -0.644  0.00  0.00    +0.025 A 
ATOM      9  C   UNL     1      -2.487   3.991  -0.627  0.00  0.00    +0.030 A 
ATOM     10  C   UNL     1      -3.578   3.503   0.068  0.00  0.00    +0.105 A 
ATOM     11  C   UNL     1      -3.490   2.300   0.744  0.00  0.00    +0.030 A 
ATOM     12  C   UNL     1      -2.310   1.582   0.726  0.00  0.00    +0.025 A 
BRANCH  10  13
ATOM     13  S   UNL     1      -5.085   4.417   0.093  0.00  0.00    +0.056 S 
ATOM     14  O   UNL     1      -5.080   5.240  -1.065  0.00  0.00    -0.153 OA
ATOM     15  O   UNL     1      -6.122   3.482   0.359  0.00  0.00    -0.153 OA
BRANCH  13  16
ATOM     16  N   UNL     1      -5.019   5.435   1.397  0.00  0.00    -0.204 NA
ATOM     17  H   UNL     1      -4.238   5.437   1.972  0.00  0.00    +0.144 HD
ATOM     18  H   UNL     1      -5.762   6.029   1.587  0.00  0.00    +0.144 HD
ENDBRANCH  13  16
ENDBRANCH  10  13
ENDBRANCH   4   7
BRANCH   1  19
ATOM     19  C   UNL     1       1.071  -2.166  -0.136  0.00  0.00    +0.142 C 
BRANCH  19  20
ATOM     20  C   UNL     1       2.284  -2.687  -0.862  0.00  0.00    -0.022 A 
ATOM     21  C   UNL     1       3.511  -2.077  -0.682  0.00  0.00    +0.008 A 
ATOM     22  C   UNL     1       4.626  -2.558  -1.343  0.00  0.00    +0.038 A 
ATOM     23  C   UNL     1       4.511  -3.644  -2.194  0.00  0.00    +0.123 A 
ATOM     24  C   UNL     1       3.280  -4.251  -2.377  0.00  0.00    +0.038 A 
ATOM     25  C   UNL     1       2.168  -3.772  -1.711  0.00  0.00    +0.008 A 
ATOM     26  F   UNL     1       5.598  -4.111  -2.846  0.00  0.00    -0.205 F 
ENDBRANCH  19  20
BRANCH  19  29
ATOM     27  C   UNL     1       0.537  -4.013   3.153  0.00  0.00    +0.008 A 
ATOM     28  C   UNL     1       0.374  -3.714   1.813  0.00  0.00    +0.013 A 
ATOM     29  C   UNL     1       1.072  -2.682   1.280  0.00  0.00    +0.014 A 
ATOM     30  S   UNL     1       1.988  -2.088   2.692  0.00  0.00    -0.099 S 
ATOM     31  C   UNL     1       1.384  -3.260   3.896  0.00  0.00    +0.045 A 
ENDBRANCH  19  29
ENDBRANCH   1  19
TORSDOF 6
