REMARK  Name = ZINC51675552
REMARK  2 active torsions:
REMARK  status: ('A' for Active; 'I' for Inactive)
REMARK    1  A    between atoms: C_10  and  N_12
REMARK    2  A    between atoms: C_19  and  C_22
REMARK                            x       y       z     vdW  Elec       q    Type
REMARK                         _______ _______ _______ _____ _____    ______ ____
ROOT
ATOM      1  N   UNL     1       4.645   0.021   0.861  0.00  0.00    -0.292 N 
ATOM      2  C   UNL     1       5.330   1.101   0.438  0.00  0.00    +0.303 C 
ATOM      3  O   UNL     1       5.262   1.447  -0.726  0.00  0.00    -0.253 OA
ATOM      4  N   UNL     1       6.091   1.799   1.305  0.00  0.00    -0.280 N 
ATOM      5  C   UNL     1       6.753   3.048   0.897  0.00  0.00    +0.137 C 
ATOM      6  C   UNL     1       8.232   2.962   1.287  0.00  0.00    +0.180 C 
ATOM      7  O   UNL     1       8.335   2.611   2.670  0.00  0.00    -0.364 OA
ATOM      8  C   UNL     1       7.788   1.330   2.990  0.00  0.00    +0.221 C 
ATOM      9  C   UNL     1       6.281   1.336   2.689  0.00  0.00    +0.150 C 
ATOM     10  H   UNL     1       4.759  -0.301   1.769  0.00  0.00    +0.151 HD
ENDROOT
BRANCH   1  20
ATOM     11  C   UNL     1      -0.016   1.395   0.019  0.00  0.00    +0.000 A 
ATOM     12  C   UNL     1       1.177   2.093   0.009  0.00  0.00    +0.000 A 
ATOM     13  C   UNL     1       2.373   1.406  -0.011  0.00  0.00    +0.006 A 
ATOM     14  C   UNL     1       2.389   0.017  -0.021  0.00  0.00    -0.024 A 
ATOM     15  C   UNL     1       1.201  -0.678  -0.006  0.00  0.00    -0.042 A 
ATOM     16  C   UNL     1      -0.003   0.015   0.011  0.00  0.00    +0.004 A 
ATOM     17  C   UNL     1       1.142  -2.184   0.001  0.00  0.00    +0.035 C 
ATOM     18  C   UNL     1       2.477  -2.775  -0.448  0.00  0.00    +0.007 C 
ATOM     19  C   UNL     1       3.595  -2.129   0.379  0.00  0.00    +0.027 C 
ATOM     20  C   UNL     1       3.729  -0.669  -0.051  0.00  0.00    +0.105 C 
ENDBRANCH   1  20
BRANCH   8  21
ATOM     21  C   UNL     1       8.007   1.041   4.453  0.00  0.00    +0.241 C 
ATOM     22  O   UNL     1       8.493   1.888   5.172  0.00  0.00    -0.273 OA
ATOM     23  N   UNL     1       7.662  -0.158   4.962  0.00  0.00    -0.327 N 
ATOM     24  H   UNL     1       7.273  -0.835   4.387  0.00  0.00    +0.145 HD
ATOM     25  H   UNL     1       7.803  -0.344   5.904  0.00  0.00    +0.145 HD
ENDBRANCH   8  21
TORSDOF 2
