REMARK  Name = ZINC44864295
REMARK  7 active torsions:
REMARK  status: ('A' for Active; 'I' for Inactive)
REMARK    1  A    between atoms: C_1  and  C_2
REMARK    2  A    between atoms: C_2  and  C_3
REMARK    3  A    between atoms: C_3  and  C_4
REMARK    4  A    between atoms: C_4  and  C_6
REMARK    5  A    between atoms: C_4  and  C_10
REMARK    6  A    between atoms: N_7  and  O_8
REMARK    7  A    between atoms: N_12  and  C_13
REMARK                            x       y       z     vdW  Elec       q    Type
REMARK                         _______ _______ _______ _____ _____    ______ ____
ROOT
ATOM      1  C   UNL     1      -2.820  -2.586   0.139  0.00  0.00    +0.223 C 
ATOM      2  O   UNL     1      -3.748  -1.811   0.232  0.00  0.00    -0.275 OA
ATOM      3  N   UNL     1      -3.047  -3.914   0.155  0.00  0.00    -0.313 N 
ATOM      4  H   UNL     1      -2.305  -4.534   0.081  0.00  0.00    +0.149 HD
ENDROOT
BRANCH   3   5
ATOM      5  C   UNL     1      -4.415  -4.422   0.286  0.00  0.00    +0.059 C 
ATOM      6  C   UNL     1      -4.796  -4.494   1.767  0.00  0.00    -0.056 C 
ATOM      7  N   UNL     1      -5.118  -5.874   2.135  0.00  0.00    +0.381 N 
ATOM      8  C   UNL     1      -6.264  -6.360   1.363  0.00  0.00    -0.078 C 
ATOM      9  C   UNL     1      -5.932  -6.350  -0.131  0.00  0.00    -0.014 C 
ATOM     10  C   UNL     1      -4.501  -5.829  -0.319  0.00  0.00    +0.004 C 
ATOM     11  C   UNL     1      -3.549  -6.749   0.457  0.00  0.00    -0.014 C 
ATOM     12  C   UNL     1      -3.957  -6.745   1.938  0.00  0.00    -0.078 C 
ATOM     13  H   UNL     1      -5.369  -5.894   3.112  0.00  0.00    -0.082 HD
ENDBRANCH   3   5
BRANCH   1  14
ATOM     14  C   UNL     1      -1.413  -2.063   0.004  0.00  0.00    +0.141 C 
BRANCH  14  15
ATOM     15  C   UNL     1      -0.818  -2.551  -1.292  0.00  0.00    +0.144 C 
ATOM     16  N   UNL     1      -1.589  -2.863  -2.280  0.00  0.00    -0.076 NA
ATOM     17  N   UNL     1       0.549  -2.663  -1.423  0.00  0.00    -0.343 N 
ATOM     18  H   UNL     1       1.128  -2.429  -0.681  0.00  0.00    +0.144 HD
ATOM     19  H   UNL     1       0.932  -2.977  -2.257  0.00  0.00    +0.144 HD
BRANCH  16  20
ATOM     20  O   UNL     1      -1.030  -3.321  -3.497  0.00  0.00    -0.408 OA
ATOM     21  H   UNL     1      -1.686  -3.530  -4.177  0.00  0.00    +0.328 HD
ENDBRANCH  16  20
ENDBRANCH  14  15
BRANCH  14  22
ATOM     22  C   UNL     1      -1.433  -0.534   0.013  0.00  0.00    +0.020 C 
BRANCH  22  24
ATOM     23  C   UNL     1      -0.019   1.526   0.010  0.00  0.00    +0.004 C 
ATOM     24  C   UNL     1       0.002  -0.004   0.002  0.00  0.00    -0.002 C 
ENDBRANCH  22  24
ENDBRANCH  14  22
ENDBRANCH   1  14
TORSDOF 6
