REMARK  Name = ZINC66087980
REMARK  7 active torsions:
REMARK  status: ('A' for Active; 'I' for Inactive)
REMARK    1  A    between atoms: C_6  and  C_7
REMARK    2  A    between atoms: C_9  and  C_21
REMARK    3  A    between atoms: C_11  and  C_12
REMARK    4  A    between atoms: C_11  and  C_14
REMARK    5  A    between atoms: C_14  and  N_20
REMARK    6  A    between atoms: C_15  and  C_16
REMARK    7  A    between atoms: C_15  and  C_18
REMARK                            x       y       z     vdW  Elec       q    Type
REMARK                         _______ _______ _______ _____ _____    ______ ____
ROOT
ATOM      1  C   UNL     1      -1.293  -0.775   0.010  0.00  0.00    +0.065 C 
ATOM      2  C   UNL     1      -1.207  -2.300   0.090  0.00  0.00    +0.127 C 
ATOM      3  C   UNL     1      -1.618  -1.624  -1.220  0.00  0.00    +0.120 C 
ENDROOT
BRANCH   1   9
ATOM      4  C   UNL     1       0.144   1.100  -0.818  0.00  0.00    +0.007 A 
ATOM      5  C   UNL     1       1.331   1.807  -0.827  0.00  0.00    +0.038 A 
ATOM      6  C   UNL     1       2.379   1.410  -0.013  0.00  0.00    +0.123 A 
ATOM      7  C   UNL     1       2.236   0.304   0.808  0.00  0.00    +0.038 A 
ATOM      8  C   UNL     1       1.048  -0.402   0.815  0.00  0.00    +0.007 A 
ATOM      9  C   UNL     1       0.002  -0.004   0.002  0.00  0.00    -0.041 A 
ATOM     10  F   UNL     1       3.540   2.101  -0.021  0.00  0.00    -0.205 F 
ENDBRANCH   1   9
BRANCH   3  11
ATOM     11  C   UNL     1      -0.641  -1.625  -2.322  0.00  0.00    +0.077 C 
ATOM     12  N   UNL     1       0.113  -1.627  -3.172  0.00  0.00    -0.196 NA
ENDBRANCH   3  11
BRANCH   3  13
ATOM     13  C   UNL     1      -3.063  -1.727  -1.633  0.00  0.00    +0.051 C 
ATOM     14  C   UNL     1      -3.456  -1.295  -2.880  0.00  0.00    +0.146 C 
BRANCH  13  15
ATOM     15  N   UNL     1      -3.980  -2.246  -0.774  0.00  0.00    -0.358 N 
ATOM     16  H   UNL     1      -3.704  -2.550   0.105  0.00  0.00    +0.142 HD
ATOM     17  H   UNL     1      -4.911  -2.312  -1.040  0.00  0.00    +0.142 HD
ENDBRANCH  13  15
BRANCH  14  18
ATOM     18  C   UNL     1      -2.490  -0.748  -3.785  0.00  0.00    +0.112 C 
ATOM     19  N   UNL     1      -1.724  -0.314  -4.503  0.00  0.00    -0.190 NA
ENDBRANCH  14  18
BRANCH  14  20
ATOM     20  C   UNL     1      -4.830  -1.393  -3.272  0.00  0.00    +0.112 C 
ATOM     21  N   UNL     1      -5.919  -1.470  -3.583  0.00  0.00    -0.190 NA
ENDBRANCH  14  20
ENDBRANCH   3  13
BRANCH   2  22
ATOM     22  C   UNL     1       0.135  -2.903   0.153  0.00  0.00    +0.069 C 
ATOM     23  N   UNL     1       1.170  -3.368   0.202  0.00  0.00    -0.196 NA
ENDBRANCH   2  22
TORSDOF 7
