REMARK  Name = ZINC11566890
REMARK  5 active torsions:
REMARK  status: ('A' for Active; 'I' for Inactive)
REMARK    1  A    between atoms: C_1  and  C_2
REMARK    2  A    between atoms: C_3  and  C_8
REMARK    3  A    between atoms: C_5  and  C_7
REMARK    4  A    between atoms: C_9  and  N_23
REMARK    5  A    between atoms: N_10  and  C_17
REMARK                            x       y       z     vdW  Elec       q    Type
REMARK                         _______ _______ _______ _____ _____    ______ ____
ROOT
ATOM      1  C   UNL     1      -0.008   1.405  -0.037  0.00  0.00    +0.103 A 
ATOM      2  C   UNL     1      -0.002   0.019  -0.103  0.00  0.00    +0.115 A 
ATOM      3  N   UNL     1       1.199  -0.647  -0.065  0.00  0.00    -0.278 N 
ATOM      4  C   UNL     1       2.354   0.035   0.036  0.00  0.00    +0.331 A 
ATOM      5  O   UNL     1       3.404  -0.577   0.068  0.00  0.00    -0.246 OA
ATOM      6  N   UNL     1       2.372   1.377   0.101  0.00  0.00    -0.274 N 
ATOM      7  H   UNL     1       3.247   1.856   0.175  0.00  0.00    +0.173 HD
ATOM      8  C   UNL     1       1.227   2.086   0.068  0.00  0.00    +0.265 A 
ATOM      9  O   UNL     1       1.255   3.303   0.127  0.00  0.00    -0.267 OA
ENDROOT
BRANCH   1  12
ATOM     10  C   UNL     1      -1.054   3.104   2.333  0.00  0.00    +0.054 C 
ATOM     11  C   UNL     1      -1.707   2.897   0.991  0.00  0.00    +0.015 A 
ATOM     12  C   UNL     1      -1.286   2.159  -0.081  0.00  0.00    +0.090 A 
ATOM     13  N   UNL     1      -2.055   2.134  -1.158  0.00  0.00    -0.244 NA
ATOM     14  C   UNL     1      -3.186   2.797  -1.206  0.00  0.00    +0.076 A 
ATOM     15  S   UNL     1      -3.247   3.548   0.359  0.00  0.00    -0.077 S 
ATOM     16  C   UNL     1      -4.182   2.885  -2.334  0.00  0.00    +0.073 C 
ENDBRANCH   1  12
BRANCH   3  17
ATOM     17  C   UNL     1       1.221  -2.110  -0.133  0.00  0.00    +0.093 C 
ATOM     18  C   UNL     1       1.869  -2.670   1.135  0.00  0.00    +0.025 C 
ATOM     19  C   UNL     1       1.892  -4.198   1.063  0.00  0.00    +0.002 C 
ATOM     20  C   UNL     1       2.700  -4.639  -0.159  0.00  0.00    +0.000 C 
ATOM     21  C   UNL     1       2.052  -4.079  -1.427  0.00  0.00    +0.002 C 
ATOM     22  C   UNL     1       2.029  -2.551  -1.356  0.00  0.00    +0.025 C 
ENDBRANCH   3  17
BRANCH   2  23
ATOM     23  N   UNL     1      -1.178  -0.677  -0.204  0.00  0.00    -0.344 N 
ATOM     24  H   UNL     1      -2.013  -0.201  -0.337  0.00  0.00    +0.144 HD
ATOM     25  H   UNL     1      -1.176  -1.645  -0.143  0.00  0.00    +0.144 HD
ENDBRANCH   2  23
TORSDOF 3
