REMARK  Name = ZINC11621283
REMARK  4 active torsions:
REMARK  status: ('A' for Active; 'I' for Inactive)
REMARK    1  A    between atoms: C_1  and  N_2
REMARK    2  A    between atoms: C_6  and  C_8
REMARK    3  A    between atoms: C_8  and  N_9
REMARK    4  A    between atoms: N_9  and  C_10
REMARK                            x       y       z     vdW  Elec       q    Type
REMARK                         _______ _______ _______ _____ _____    ______ ____
ROOT
ATOM      1  C   UNL     1       0.002  -0.004   0.002  0.00  0.00    +0.198 C 
ENDROOT
BRANCH   1   7
ATOM      2  C   UNL     1      -2.409   5.631   0.044  0.00  0.00    +0.129 C 
ATOM      3  N   UNL     1      -2.389   4.166   0.036  0.00  0.00    -0.302 N 
ATOM      4  C   UNL     1      -1.213   3.508   0.027  0.00  0.00    +0.306 C 
ATOM      5  O   UNL     1      -0.169   4.130   0.025  0.00  0.00    -0.252 OA
ATOM      6  N   UNL     1      -1.195   2.161   0.019  0.00  0.00    -0.239 N 
ATOM      7  C   UNL     1      -0.018   1.503   0.010  0.00  0.00    +0.237 C 
ATOM      8  O   UNL     1       1.023   2.123   0.004  0.00  0.00    -0.274 OA
ATOM      9  H   UNL     1      -3.223   3.670   0.037  0.00  0.00    +0.150 HD
ATOM     10  H   UNL     1      -2.028   1.664   0.021  0.00  0.00    +0.159 HD
ENDBRANCH   1   7
BRANCH   1  11
ATOM     11  N   UNL     1       1.390  -0.473  -0.014  0.00  0.00    -0.335 N 
ATOM     12  H   UNL     1       2.118   0.167  -0.017  0.00  0.00    +0.147 HD
BRANCH  11  13
ATOM     13  C   UNL     1       1.664  -1.844  -0.024  0.00  0.00    +0.042 A 
ATOM     14  C   UNL     1       0.622  -2.762  -0.013  0.00  0.00    +0.024 A 
ATOM     15  C   UNL     1       0.896  -4.115  -0.027  0.00  0.00    +0.002 A 
ATOM     16  C   UNL     1       2.206  -4.558  -0.042  0.00  0.00    +0.001 A 
ATOM     17  C   UNL     1       3.246  -3.647  -0.048  0.00  0.00    +0.017 A 
ATOM     18  C   UNL     1       2.979  -2.291  -0.039  0.00  0.00    +0.039 A 
ATOM     19 BR   UNL     1       4.402  -1.046  -0.046  0.00  0.00    -0.048 Br
ENDBRANCH  11  13
ENDBRANCH   1  11
TORSDOF 3
