REMARK  Name = ZINC37553089
REMARK  6 active torsions:
REMARK  status: ('A' for Active; 'I' for Inactive)
REMARK    1  A    between atoms: C_5  and  S_7
REMARK    2  A    between atoms: S_7  and  N_10
REMARK    3  A    between atoms: N_10  and  C_11
REMARK    4  A    between atoms: C_15  and  C_17
REMARK    5  A    between atoms: C_18  and  C_19
REMARK    6  A    between atoms: C_19  and  N_20
REMARK                            x       y       z     vdW  Elec       q    Type
REMARK                         _______ _______ _______ _____ _____    ______ ____
ROOT
ATOM      1  C   UNL     1       2.038  -4.265  -1.755  0.00  0.00    +0.164 A 
ATOM      2  C   UNL     1       2.600  -4.654  -2.968  0.00  0.00    +0.047 A 
ATOM      3  C   UNL     1       2.742  -6.002  -3.249  0.00  0.00    +0.006 A 
ATOM      4  C   UNL     1       2.318  -6.925  -2.306  0.00  0.00    +0.037 A 
ATOM      5  C   UNL     1       1.764  -6.470  -1.110  0.00  0.00    +0.116 A 
ATOM      6  N   UNL     1       1.647  -5.168  -0.871  0.00  0.00    -0.220 NA
ENDROOT
BRANCH   5   7
ATOM      7  C   UNL     1       1.322  -7.415  -0.129  0.00  0.00    -0.048 C 
ATOM      8  C   UNL     1       0.959  -8.189   0.675  0.00  0.00    -0.115 C 
BRANCH   8   9
ATOM      9  C   UNL     1       0.505  -9.160   1.684  0.00  0.00    +0.005 C 
BRANCH   9  10
ATOM     10  N   UNL     1      -0.036  -8.442   2.846  0.00  0.00    +0.385 N 
ATOM     11  H   UNL     1       0.682  -7.855   3.244  0.00  0.00    -0.089 HD
ATOM     12  H   UNL     1      -0.815  -7.870   2.555  0.00  0.00    -0.089 HD
ATOM     13  H   UNL     1      -0.348  -9.107   3.538  0.00  0.00    -0.089 HD
ENDBRANCH   9  10
ENDBRANCH   8   9
ENDBRANCH   5   7
BRANCH   1  14
ATOM     14  N   UNL     1       1.893  -2.913  -1.466  0.00  0.00    -0.078 NA
BRANCH  14  15
ATOM     15  S   UNL     1       1.232  -2.441  -0.023  0.00  0.00    +0.094 S 
ATOM     16  O   UNL     1       2.144  -2.841   0.991  0.00  0.00    -0.148 OA
ATOM     17  O   UNL     1      -0.124  -2.865  -0.039  0.00  0.00    -0.148 OA
BRANCH  15  22
ATOM     18  C   UNL     1      -0.017   1.378   0.010  0.00  0.00    +0.002 A 
ATOM     19  C   UNL     1       1.171   2.086   0.002  0.00  0.00    +0.002 A 
ATOM     20  C   UNL     1       2.377   1.412  -0.013  0.00  0.00    +0.022 A 
ATOM     21  C   UNL     1       2.397   0.029  -0.021  0.00  0.00    +0.068 A 
ATOM     22  C   UNL     1       1.208  -0.679  -0.013  0.00  0.00    +0.129 A 
ATOM     23  C   UNL     1       0.002  -0.004   0.002  0.00  0.00    +0.030 A 
ATOM     24 CL   UNL     1       3.912  -0.818  -0.041  0.00  0.00    -0.082 Cl
ENDBRANCH  15  22
ENDBRANCH  14  15
ENDBRANCH   1  14
TORSDOF 6
