REMARK  Name = ZINC66571677
REMARK  4 active torsions:
REMARK  status: ('A' for Active; 'I' for Inactive)
REMARK    1  A    between atoms: C_4  and  C_7
REMARK    2  A    between atoms: C_7  and  C_8
REMARK    3  A    between atoms: N_10  and  N_11
REMARK    4  A    between atoms: C_12  and  C_14
REMARK                            x       y       z     vdW  Elec       q    Type
REMARK                         _______ _______ _______ _____ _____    ______ ____
ROOT
ATOM      1  N   UNL     1       3.721  -4.016  -3.438  0.00  0.00    -0.230 N 
ATOM      2  C   UNL     1       4.322  -4.676  -4.447  0.00  0.00    +0.261 C 
ATOM      3  O   UNL     1       4.761  -4.060  -5.400  0.00  0.00    -0.269 OA
ATOM      4  H   UNL     1       3.371  -4.508  -2.678  0.00  0.00    +0.173 HD
ENDROOT
BRANCH   2   5
ATOM      5  C   UNL     1       4.449  -6.142  -4.397  0.00  0.00    +0.052 C 
ATOM      6  C   UNL     1       5.065  -6.825  -5.417  0.00  0.00    +0.089 C 
ATOM      7  N   UNL     1       5.191  -8.178  -5.394  0.00  0.00    -0.288 N 
ATOM      8  C   UNL     1       5.803  -8.777  -6.585  0.00  0.00    +0.136 C 
ATOM      9  C   UNL     1       6.697  -9.957  -6.194  0.00  0.00    +0.212 C 
ATOM     10  S   UNL     1       5.648 -11.142  -5.293  0.00  0.00    +0.073 S 
ATOM     11  O   UNL     1       6.450 -12.045  -4.544  0.00  0.00    -0.151 OA
ATOM     12  O   UNL     1       4.604 -11.617  -6.131  0.00  0.00    -0.151 OA
ATOM     13  N   UNL     1       4.898 -10.194  -4.163  0.00  0.00    -0.118 NA
ATOM     14  C   UNL     1       4.752  -8.898  -4.318  0.00  0.00    +0.147 C 
ATOM     15  C   UNL     1       4.080  -8.236  -3.245  0.00  0.00    +0.046 C 
ATOM     16  C   UNL     1       3.925  -6.896  -3.257  0.00  0.00    +0.018 C 
ENDBRANCH   2   5
BRANCH   1  19
ATOM     17  C   UNL     1       2.999  -1.962  -2.475  0.00  0.00    +0.229 C 
ATOM     18  O   UNL     1       2.561  -2.576  -1.526  0.00  0.00    -0.274 OA
ATOM     19  N   UNL     1       3.601  -2.621  -3.485  0.00  0.00    -0.234 N 
ATOM     20  H   UNL     1       3.951  -2.130  -4.245  0.00  0.00    +0.173 HD
BRANCH  17  21
ATOM     21  C   UNL     1       2.870  -0.461  -2.526  0.00  0.00    +0.101 C 
BRANCH  21  25
ATOM     22  C   UNL     1      -0.019   1.526   0.010  0.00  0.00    +0.000 C 
ATOM     23  C   UNL     1       1.417   2.055  -0.000  0.00  0.00    +0.000 C 
ATOM     24  C   UNL     1       2.133   1.562  -1.259  0.00  0.00    +0.004 C 
ATOM     25  C   UNL     1       2.154   0.032  -1.268  0.00  0.00    -0.002 C 
ATOM     26  C   UNL     1       0.718  -0.497  -1.257  0.00  0.00    +0.004 C 
ATOM     27  C   UNL     1       0.002  -0.004   0.002  0.00  0.00    +0.000 C 
ENDBRANCH  21  25
ENDBRANCH  17  21
ENDBRANCH   1  19
TORSDOF 4
