REMARK  Name = ZINC36733913
REMARK  5 active torsions:
REMARK  status: ('A' for Active; 'I' for Inactive)
REMARK    1  A    between atoms: C_1  and  C_2
REMARK    2  A    between atoms: C_3  and  N_9
REMARK    3  A    between atoms: C_4  and  C_8
REMARK    4  A    between atoms: C_10  and  C_12
REMARK    5  A    between atoms: C_16  and  C_22
REMARK                            x       y       z     vdW  Elec       q    Type
REMARK                         _______ _______ _______ _____ _____    ______ ____
ROOT
ATOM      1  N   UNL     1      -0.055  -0.146  -2.373  0.00  0.00    -0.281 N 
ATOM      2  C   UNL     1       0.354  -0.881  -3.427  0.00  0.00    +0.239 C 
ATOM      3  O   UNL     1       0.671  -2.041  -3.271  0.00  0.00    -0.273 OA
ATOM      4  H   UNL     1      -0.380   0.758  -2.510  0.00  0.00    +0.155 HD
ENDROOT
BRANCH   2   5
ATOM      5  C   UNL     1       0.418  -0.260  -4.799  0.00  0.00    +0.173 C 
ATOM      6  C   UNL     1      -0.991   0.263  -5.164  0.00  0.00    +0.103 C 
ATOM      7  S   UNL     1      -1.108  -0.307  -6.920  0.00  0.00    -0.133 S 
ATOM      8  C   UNL     1      -0.015  -1.774  -6.712  0.00  0.00    +0.082 C 
ATOM      9  N   UNL     1       0.966  -1.252  -5.730  0.00  0.00    -0.275 N 
ATOM     10  C   UNL     1       2.166  -1.831  -6.006  0.00  0.00    +0.217 C 
ATOM     11  O   UNL     1       3.118  -1.841  -5.255  0.00  0.00    -0.276 OA
ATOM     12  C   UNL     1       2.146  -2.462  -7.379  0.00  0.00    +0.099 C 
ATOM     13  C   UNL     1       0.806  -2.009  -7.990  0.00  0.00    +0.046 C 
ATOM     14  C   UNL     1      -0.765  -3.022  -6.242  0.00  0.00    +0.044 C 
ENDBRANCH   2   5
BRANCH   1  17
ATOM     15  C   UNL     1       2.049   0.574  -0.245  0.00  0.00    +0.067 C 
ATOM     16  C   UNL     1       0.901  -0.394  -0.116  0.00  0.00    +0.054 A 
ATOM     17  C   UNL     1      -0.011  -0.690  -1.076  0.00  0.00    +0.077 A 
ATOM     18  C   UNL     1      -0.902  -1.635  -0.546  0.00  0.00    +0.081 A 
ATOM     19  N   UNL     1      -0.541  -1.896   0.684  0.00  0.00    -0.177 NA
ATOM     20  N   UNL     1       0.596  -1.134   0.982  0.00  0.00    -0.280 N 
ATOM     21  H   UNL     1       1.079  -1.133   1.823  0.00  0.00    +0.189 HD
ATOM     22  C   UNL     1      -2.076  -2.244  -1.269  0.00  0.00    +0.069 C 
ENDBRANCH   1  17
TORSDOF 2
