REMARK  Name = ZINC09493979
REMARK  5 active torsions:
REMARK  status: ('A' for Active; 'I' for Inactive)
REMARK    1  A    between atoms: C_5  and  C_7
REMARK    2  A    between atoms: C_7  and  N_19
REMARK    3  A    between atoms: N_8  and  S_9
REMARK    4  A    between atoms: S_9  and  C_12
REMARK    5  A    between atoms: N_19  and  C_20
REMARK                            x       y       z     vdW  Elec       q    Type
REMARK                         _______ _______ _______ _____ _____    ______ ____
ROOT
ATOM      1  C   UNL     1       1.114  -1.971   0.121  0.00  0.00    +0.173 C 
ATOM      2  N   UNL     1       2.340  -2.395   0.248  0.00  0.00    -0.111 NA
ENDROOT
BRANCH   1   7
ATOM      3  C   UNL     1      -0.724   1.298  -0.103  0.00  0.00    +0.001 A 
ATOM      4  C   UNL     1       0.327   2.194  -0.190  0.00  0.00    +0.001 A 
ATOM      5  C   UNL     1       1.633   1.740  -0.177  0.00  0.00    +0.021 A 
ATOM      6  C   UNL     1       1.896   0.388  -0.076  0.00  0.00    +0.051 A 
ATOM      7  C   UNL     1       0.840  -0.521   0.013  0.00  0.00    +0.037 A 
ATOM      8  C   UNL     1      -0.475  -0.055  -0.001  0.00  0.00    +0.013 A 
ATOM      9 CL   UNL     1       3.536  -0.181  -0.060  0.00  0.00    -0.083 Cl
ENDBRANCH   1   7
BRANCH   2  10
ATOM     10  S   UNL     1       2.646  -4.018   0.369  0.00  0.00    +0.100 S 
ATOM     11  O   UNL     1       2.080  -4.447   1.599  0.00  0.00    -0.146 OA
ATOM     12  O   UNL     1       2.284  -4.594  -0.878  0.00  0.00    -0.146 OA
BRANCH  10  13
ATOM     13  C   UNL     1       4.391  -4.208   0.524  0.00  0.00    +0.113 A 
ATOM     14  C   UNL     1       5.174  -4.348  -0.607  0.00  0.00    +0.030 A 
ATOM     15  C   UNL     1       6.543  -4.497  -0.486  0.00  0.00    +0.022 A 
ATOM     16  C   UNL     1       7.129  -4.507   0.767  0.00  0.00    +0.041 A 
ATOM     17  C   UNL     1       6.345  -4.367   1.898  0.00  0.00    +0.022 A 
ATOM     18  C   UNL     1       4.977  -4.212   1.776  0.00  0.00    +0.030 A 
ATOM     19 CL   UNL     1       8.848  -4.695   0.920  0.00  0.00    -0.084 Cl
ENDBRANCH  10  13
ENDBRANCH   2  10
BRANCH   1  20
ATOM     20  N   UNL     1       0.072  -2.874   0.089  0.00  0.00    -0.194 NA
BRANCH  20  21
ATOM     21  C   UNL     1      -0.894  -2.792  -0.920  0.00  0.00    +0.058 A 
ATOM     22  C   UNL     1      -0.623  -2.081  -2.084  0.00  0.00    +0.027 A 
ATOM     23  C   UNL     1      -1.571  -1.997  -3.084  0.00  0.00    +0.030 A 
ATOM     24  C   UNL     1      -2.799  -2.623  -2.927  0.00  0.00    +0.067 A 
ATOM     25  C   UNL     1      -3.075  -3.337  -1.760  0.00  0.00    +0.069 A 
ATOM     26  C   UNL     1      -2.118  -3.424  -0.760  0.00  0.00    +0.053 A 
ATOM     27  N   UNL     1      -4.365  -3.844  -1.893  0.00  0.00    -0.306 N 
ATOM     28  H   UNL     1      -4.833  -4.384  -1.237  0.00  0.00    +0.170 HD
ATOM     29  C   UNL     1      -4.853  -3.456  -3.086  0.00  0.00    +0.325 A 
ATOM     30  O   UNL     1      -5.958  -3.732  -3.514  0.00  0.00    -0.247 OA
ATOM     31  N   UNL     1      -3.933  -2.718  -3.735  0.00  0.00    -0.306 N 
ATOM     32  H   UNL     1      -4.040  -2.320  -4.613  0.00  0.00    +0.170 HD
ENDBRANCH  20  21
ENDBRANCH   1  20
TORSDOF 5
