REMARK  Name = ZINC45893910
REMARK  4 active torsions:
REMARK  status: ('A' for Active; 'I' for Inactive)
REMARK    1  A    between atoms: N_12  and  C_16
REMARK    2  A    between atoms: C_16  and  C_17
REMARK    3  A    between atoms: N_19  and  C_20
REMARK    4  A    between atoms: C_25  and  N_26
REMARK                            x       y       z     vdW  Elec       q    Type
REMARK                         _______ _______ _______ _____ _____    ______ ____
ROOT
ATOM      1  C   UNL     1       7.073   0.022  -1.067  0.00  0.00    +0.214 C 
ENDROOT
BRANCH   1  13
ATOM      2  C   UNL     1       0.043   1.274   0.056  0.00  0.00    +0.000 A 
ATOM      3  C   UNL     1       1.232   1.981   0.062  0.00  0.00    +0.000 A 
ATOM      4  C   UNL     1       2.433   1.310  -0.048  0.00  0.00    +0.006 A 
ATOM      5  C   UNL     1       2.455  -0.071  -0.165  0.00  0.00    -0.012 A 
ATOM      6  C   UNL     1       1.264  -0.778  -0.167  0.00  0.00    -0.042 A 
ATOM      7  C   UNL     1       0.061  -0.102  -0.059  0.00  0.00    +0.004 A 
ATOM      8  C   UNL     1       1.549  -2.260  -0.294  0.00  0.00    +0.038 C 
ATOM      9  C   UNL     1       3.006  -2.352  -0.801  0.00  0.00    +0.045 C 
ATOM     10  C   UNL     1       3.606  -1.030  -0.303  0.00  0.00    +0.138 C 
ATOM     11  C   UNL     1       4.649  -0.512  -1.259  0.00  0.00    +0.251 C 
ATOM     12  O   UNL     1       4.499  -0.223  -2.426  0.00  0.00    -0.272 OA
ATOM     13  N   UNL     1       5.787  -0.437  -0.535  0.00  0.00    -0.215 N 
ATOM     14  C   UNL     1       5.595  -0.836   0.729  0.00  0.00    +0.310 C 
ATOM     15  O   UNL     1       6.470  -0.859   1.572  0.00  0.00    -0.252 OA
ATOM     16  N   UNL     1       4.320  -1.210   0.961  0.00  0.00    -0.281 N 
ATOM     17  H   UNL     1       3.950  -1.532   1.798  0.00  0.00    +0.152 HD
ENDBRANCH   1  13
BRANCH   1  18
ATOM     18  C   UNL     1       7.190   1.513  -0.878  0.00  0.00    +0.235 C 
ATOM     19  O   UNL     1       6.289   2.131  -0.351  0.00  0.00    -0.274 OA
ATOM     20  N   UNL     1       8.297   2.160  -1.295  0.00  0.00    -0.283 N 
ATOM     21  H   UNL     1       9.053   1.657  -1.637  0.00  0.00    +0.155 HD
BRANCH  20  22
ATOM     22  C   UNL     1       8.355   3.559  -1.235  0.00  0.00    +0.055 A 
ATOM     23  C   UNL     1       7.193   4.308  -1.335  0.00  0.00    +0.025 A 
ATOM     24  C   UNL     1       7.253   5.688  -1.275  0.00  0.00    +0.002 A 
ATOM     25  C   UNL     1       8.470   6.325  -1.116  0.00  0.00    +0.002 A 
ATOM     26  C   UNL     1       9.634   5.586  -1.015  0.00  0.00    +0.025 A 
ATOM     27  C   UNL     1       9.582   4.201  -1.068  0.00  0.00    +0.051 A 
BRANCH  27  28
ATOM     28  N   UNL     1      10.758   3.450  -0.961  0.00  0.00    -0.328 N 
ATOM     29  C   UNL     1      11.500   3.148  -2.164  0.00  0.00    +0.105 C 
ATOM     30  C   UNL     1      10.985   1.821  -2.773  0.00  0.00    +0.019 C 
ATOM     31  C   UNL     1      11.397   0.682  -1.938  0.00  0.00    +0.002 C 
ATOM     32  C   UNL     1      10.822   0.698  -0.525  0.00  0.00    +0.002 C 
ATOM     33  C   UNL     1      11.699   1.546   0.362  0.00  0.00    +0.019 C 
ATOM     34  C   UNL     1      11.193   3.004   0.377  0.00  0.00    +0.105 C 
ENDBRANCH  27  28
ENDBRANCH  20  22
ENDBRANCH   1  18
TORSDOF 4
