REMARK  Name = ZINC35774420
REMARK  4 active torsions:
REMARK  status: ('A' for Active; 'I' for Inactive)
REMARK    1  A    between atoms: C_1  and  C_2
REMARK    2  A    between atoms: N_8  and  C_9
REMARK    3  A    between atoms: C_12  and  N_19
REMARK    4  A    between atoms: C_13  and  C_15
REMARK                            x       y       z     vdW  Elec       q    Type
REMARK                         _______ _______ _______ _____ _____    ______ ____
ROOT
ATOM      1  C   UNL     1       1.577   0.382   1.904  0.00  0.00    +0.031 A 
ATOM      2  C   UNL     1       1.409   0.429   3.282  0.00  0.00    +0.025 A 
ATOM      3  C   UNL     1       2.171   1.294   4.042  0.00  0.00    +0.025 A 
ATOM      4  C   UNL     1       3.105   2.119   3.428  0.00  0.00    +0.036 A 
ATOM      5  C   UNL     1       3.272   2.072   2.050  0.00  0.00    +0.077 A 
ATOM      6  C   UNL     1       2.514   1.202   1.291  0.00  0.00    +0.037 A 
ENDROOT
BRANCH   1  13
ATOM      7  C   UNL     1      -0.816   1.344   1.017  0.00  0.00    +0.030 C 
ATOM      8  C   UNL     1      -0.445  -0.046   0.498  0.00  0.00    +0.096 C 
ATOM      9  C   UNL     1      -1.554  -1.043   0.852  0.00  0.00    +0.182 C 
ATOM     10  O   UNL     1      -1.118  -2.366   0.531  0.00  0.00    -0.376 OA
ATOM     11  C   UNL     1       0.026  -2.801   1.270  0.00  0.00    +0.178 C 
ATOM     12  C   UNL     1       1.216  -1.894   0.937  0.00  0.00    +0.133 C 
ATOM     13  N   UNL     1       0.804  -0.495   1.134  0.00  0.00    -0.323 N 
ENDBRANCH   1  13
BRANCH   5  14
ATOM     14  C   UNL     1       4.285   2.967   1.384  0.00  0.00    +0.419 C 
ATOM     15  F   UNL     1       4.271   2.741   0.004  0.00  0.00    -0.166 F 
ATOM     16  F   UNL     1       3.966   4.305   1.641  0.00  0.00    -0.166 F 
ATOM     17  F   UNL     1       5.559   2.687   1.889  0.00  0.00    -0.166 F 
ENDBRANCH   5  14
BRANCH   4  18
ATOM     18  N   UNL     1       3.877   2.997   4.198  0.00  0.00    -0.358 N 
ATOM     19  H   UNL     1       3.759   3.029   5.160  0.00  0.00    +0.142 HD
ATOM     20  H   UNL     1       4.529   3.572   3.769  0.00  0.00    +0.142 HD
ENDBRANCH   4  18
TORSDOF 3
