REMARK  Name = ZINC28052531
REMARK  8 active torsions:
REMARK  status: ('A' for Active; 'I' for Inactive)
REMARK    1  A    between atoms: C_1  and  C_2
REMARK    2  A    between atoms: C_7  and  C_8
REMARK    3  A    between atoms: C_11  and  C_34
REMARK    4  A    between atoms: C_21  and  C_24
REMARK    5  A    between atoms: C_27  and  O_32
REMARK    6  A    between atoms: C_28  and  O_30
REMARK    7  A    between atoms: O_30  and  C_31
REMARK    8  A    between atoms: O_32  and  C_33
REMARK                            x       y       z     vdW  Elec       q    Type
REMARK                         _______ _______ _______ _____ _____    ______ ____
ROOT
ATOM      1  C   UNL     1      -2.931   2.218  -1.968  0.00  0.00    +0.091 C 
ATOM      2  C   UNL     1      -1.928   1.960  -3.046  0.00  0.00    +0.049 A 
ATOM      3  C   UNL     1      -2.034   1.901  -4.433  0.00  0.00    +0.087 A 
ATOM      4  N   UNL     1      -0.830   1.641  -4.879  0.00  0.00    -0.081 NA
ATOM      5  O   UNL     1      -0.024   1.536  -3.975  0.00  0.00    -0.339 OA
ATOM      6  C   UNL     1      -0.603   1.714  -2.792  0.00  0.00    +0.226 A 
ATOM      7  N   UNL     1      -0.116   1.687  -1.502  0.00  0.00    -0.286 N 
ATOM      8  C   UNL     1      -1.014   1.615  -0.463  0.00  0.00    +0.019 C 
ATOM      9  C   UNL     1      -2.333   1.851  -0.625  0.00  0.00    +0.024 C 
ATOM     10  C   UNL     1      -3.222   1.768   0.462  0.00  0.00    +0.162 C 
ATOM     11  O   UNL     1      -4.408   1.959   0.276  0.00  0.00    -0.292 OA
ATOM     12  C   UNL     1      -2.740   1.446   1.849  0.00  0.00    +0.088 C 
ATOM     13  C   UNL     1      -1.289   1.919   1.990  0.00  0.00    +0.032 C 
ATOM     14  C   UNL     1      -0.457   1.250   0.895  0.00  0.00    +0.059 C 
ATOM     15  C   UNL     1      -3.282   2.096  -5.255  0.00  0.00    +0.069 C 
ATOM     16  H   UNL     1       0.968   1.723  -1.322  0.00  0.00    +0.155 HD
ENDROOT
BRANCH   1  23
ATOM     17  C   UNL     1      -5.631   3.017  -2.616  0.00  0.00    +0.044 C 
ATOM     18  C   UNL     1      -4.596   4.060  -2.279  0.00  0.00    -0.046 A 
ATOM     19  C   UNL     1      -4.940   5.400  -2.280  0.00  0.00    +0.003 A 
ATOM     20  C   UNL     1      -3.991   6.356  -1.970  0.00  0.00    +0.000 A 
ATOM     21  C   UNL     1      -2.700   5.974  -1.659  0.00  0.00    +0.000 A 
ATOM     22  C   UNL     1      -2.357   4.635  -1.654  0.00  0.00    +0.005 A 
ATOM     23  C   UNL     1      -3.305   3.678  -1.969  0.00  0.00    -0.032 A 
ENDBRANCH   1  23
BRANCH  13  24
ATOM     24  C   UNL     1      -0.758   1.525   3.344  0.00  0.00    -0.040 A 
ATOM     25  C   UNL     1      -0.731   0.194   3.714  0.00  0.00    +0.008 A 
ATOM     26  C   UNL     1      -0.244  -0.172   4.955  0.00  0.00    +0.049 A 
ATOM     27  C   UNL     1       0.220   0.796   5.831  0.00  0.00    +0.161 A 
ATOM     28  C   UNL     1       0.193   2.137   5.458  0.00  0.00    +0.162 A 
ATOM     29  C   UNL     1      -0.292   2.496   4.211  0.00  0.00    +0.053 A 
BRANCH  28  30
ATOM     30  O   UNL     1       0.646   3.091   6.314  0.00  0.00    -0.491 OA
ATOM     31  C   UNL     1       0.588   4.447   5.864  0.00  0.00    +0.277 C 
ENDBRANCH  28  30
BRANCH  27  32
ATOM     32  O   UNL     1       0.699   0.438   7.052  0.00  0.00    -0.491 OA
ATOM     33  C   UNL     1       0.696  -0.956   7.367  0.00  0.00    +0.277 C 
ENDBRANCH  27  32
ENDBRANCH  13  24
TORSDOF 4
