REMARK  Name = ZINC51642918
REMARK  9 active torsions:
REMARK  status: ('A' for Active; 'I' for Inactive)
REMARK    1  A    between atoms: C_1  and  C_2
REMARK    2  A    between atoms: C_2  and  C_3
REMARK    3  A    between atoms: C_3  and  C_4
REMARK    4  A    between atoms: C_4  and  N_5
REMARK    5  A    between atoms: C_6  and  C_8
REMARK    6  A    between atoms: N_17  and  C_18
REMARK    7  A    between atoms: C_22  and  C_24
REMARK    8  A    between atoms: C_26  and  C_30
REMARK    9  A    between atoms: C_27  and  C_29
REMARK                            x       y       z     vdW  Elec       q    Type
REMARK                         _______ _______ _______ _____ _____    ______ ____
ROOT
ATOM      1  C   UNL     1       1.693  -4.815  -4.868  0.00  0.00    +0.092 C 
ATOM      2  C   UNL     1       2.131  -6.200  -4.385  0.00  0.00    +0.016 C 
ATOM      3  C   UNL     1       3.282  -6.706  -5.258  0.00  0.00    +0.020 C 
ATOM      4  C   UNL     1       4.473  -5.750  -5.131  0.00  0.00    +0.109 C 
ATOM      5  N   UNL     1       4.023  -4.389  -5.455  0.00  0.00    -0.285 N 
ATOM      6  C   UNL     1       2.865  -3.838  -4.737  0.00  0.00    +0.122 C 
ATOM      7  C   UNL     1       4.661  -3.660  -6.392  0.00  0.00    +0.306 C 
ATOM      8  O   UNL     1       4.221  -2.575  -6.721  0.00  0.00    -0.252 OA
ATOM      9  N   UNL     1       5.785  -4.134  -6.964  0.00  0.00    -0.269 N 
ATOM     10  H   UNL     1       6.079  -5.039  -6.779  0.00  0.00    +0.156 HD
ENDROOT
BRANCH   9  11
ATOM     11  C   UNL     1       6.528  -3.319  -7.826  0.00  0.00    +0.035 A 
ATOM     12  C   UNL     1       6.599  -1.949  -7.599  0.00  0.00    +0.023 A 
ATOM     13  C   UNL     1       7.332  -1.140  -8.446  0.00  0.00    +0.003 A 
ATOM     14  C   UNL     1       7.998  -1.687  -9.525  0.00  0.00    +0.013 A 
ATOM     15  C   UNL     1       7.933  -3.061  -9.762  0.00  0.00    +0.037 A 
ATOM     16  C   UNL     1       7.198  -3.878  -8.903  0.00  0.00    +0.036 A 
BRANCH  15  17
ATOM     17  C   UNL     1       8.645  -3.649 -10.916  0.00  0.00    +0.206 A 
ATOM     18  N   UNL     1       9.373  -2.988 -11.785  0.00  0.00    -0.326 N 
ATOM     19  C   UNL     1       9.858  -3.855 -12.686  0.00  0.00    +0.054 A 
ATOM     20  C   UNL     1       9.413  -5.082 -12.359  0.00  0.00    +0.123 A 
ATOM     21  O   UNL     1       8.660  -4.951 -11.249  0.00  0.00    -0.442 OA
ATOM     22  C   UNL     1       9.707  -6.365 -13.093  0.00  0.00    +0.088 C 
ATOM     23  C   UNL     1      10.743  -3.516 -13.858  0.00  0.00    +0.067 C 
ATOM     24  H   UNL     1       9.534  -2.031 -11.777  0.00  0.00    +0.169 HD
ENDBRANCH  15  17
ENDBRANCH   9  11
BRANCH   1  26
ATOM     25  N   UNL     1      -0.014  -3.127  -4.272  0.00  0.00    -0.315 N 
ATOM     26  C   UNL     1       0.539  -4.332  -4.028  0.00  0.00    +0.218 C 
ATOM     27  O   UNL     1       0.108  -5.026  -3.132  0.00  0.00    -0.275 OA
ATOM     28  H   UNL     1       0.330  -2.572  -4.989  0.00  0.00    +0.149 HD
BRANCH  25  29
ATOM     29  C   UNL     1      -1.136  -2.657  -3.456  0.00  0.00    +0.104 C 
BRANCH  29  30
ATOM     30  C   UNL     1      -1.573  -1.272  -3.938  0.00  0.00    +0.018 C 
BRANCH  30  32
ATOM     31  C   UNL     1      -3.181   0.603  -3.568  0.00  0.00    +0.004 C 
ATOM     32  C   UNL     1      -2.745  -0.782  -3.086  0.00  0.00    -0.002 C 
ENDBRANCH  30  32
ENDBRANCH  29  30
ENDBRANCH  25  29
ENDBRANCH   1  26
TORSDOF 6
