REMARK  Name = ZINC20849452
REMARK  6 active torsions:
REMARK  status: ('A' for Active; 'I' for Inactive)
REMARK    1  A    between atoms: C_1  and  C_2
REMARK    2  A    between atoms: C_6  and  C_17
REMARK    3  A    between atoms: N_8  and  C_9
REMARK    4  A    between atoms: C_17  and  N_19
REMARK    5  A    between atoms: C_20  and  C_23
REMARK    6  A    between atoms: C_23  and  O_24
REMARK                            x       y       z     vdW  Elec       q    Type
REMARK                         _______ _______ _______ _____ _____    ______ ____
ROOT
ATOM      1  C   UNL     1       0.565   7.262   0.076  0.00  0.00    +0.069 C 
ATOM      2  C   UNL     1       0.794   5.773   0.062  0.00  0.00    +0.081 A 
ATOM      3  C   UNL     1       2.088   5.274   0.033  0.00  0.00    +0.159 A 
ATOM      4  C   UNL     1       2.276   3.879   0.029  0.00  0.00    +0.027 A 
ATOM      5  C   UNL     1       3.634   3.330   0.013  0.00  0.00    +0.027 A 
ATOM      6  C   UNL     1       4.675   4.209   0.277  0.00  0.00    +0.064 A 
ATOM      7  C   UNL     1       4.317   5.616   0.551  0.00  0.00    +0.209 A 
ATOM      8  N   UNL     1       5.094   6.380   1.286  0.00  0.00    -0.325 N 
ATOM      9  O   UNL     1       3.162   6.098   0.011  0.00  0.00    -0.437 OA
ATOM     10  C   UNL     1       1.147   3.050   0.038  0.00  0.00    +0.007 A 
ATOM     11  C   UNL     1      -0.100   3.638   0.066  0.00  0.00    +0.117 A 
ATOM     12  N   UNL     1      -0.236   4.952   0.078  0.00  0.00    -0.256 NA
ATOM     13  H   UNL     1       5.979   5.952   1.778  0.00  0.00    +0.169 HD
ENDROOT
BRANCH   8  14
ATOM     14  C   UNL     1       4.801   7.707   1.439  0.00  0.00    +0.043 A 
ATOM     15  C   UNL     1       5.241   8.637   0.493  0.00  0.00    +0.026 A 
ATOM     16  C   UNL     1       4.938   9.973   0.650  0.00  0.00    +0.003 A 
ATOM     17  C   UNL     1       4.208  10.396   1.747  0.00  0.00    +0.020 A 
ATOM     18  C   UNL     1       3.773   9.482   2.692  0.00  0.00    +0.043 A 
ATOM     19  C   UNL     1       4.065   8.140   2.544  0.00  0.00    +0.045 A 
ATOM     20 CL   UNL     1       2.859  10.024   4.065  0.00  0.00    -0.083 Cl
ENDBRANCH   8  14
BRANCH   6  21
ATOM     21  C   UNL     1       6.077   3.759   0.282  0.00  0.00    +0.082 C 
ATOM     22  S   UNL     1       6.451   2.120  -0.041  0.00  0.00    -0.035 S 
BRANCH  21  23
ATOM     23  N   UNL     1       7.066   4.637   0.542  0.00  0.00    -0.352 N 
ATOM     24  H   UNL     1       8.113   4.301   0.546  0.00  0.00    +0.143 HD
ATOM     25  H   UNL     1       6.825   5.690   0.750  0.00  0.00    +0.143 HD
ENDBRANCH  21  23
ENDBRANCH   6  21
BRANCH  10  26
ATOM     26  C   UNL     1       1.292   1.550   0.025  0.00  0.00    +0.193 C 
BRANCH  26  27
ATOM     27  O   UNL     1      -0.003   0.946   0.045  0.00  0.00    -0.390 OA
ATOM     28  H   UNL     1      -0.099  -0.149   0.039  0.00  0.00    +0.210 HD
ENDBRANCH  26  27
ENDBRANCH  10  26
TORSDOF 5
