REMARK  Name = ZINC05941972
REMARK  3 active torsions:
REMARK  status: ('A' for Active; 'I' for Inactive)
REMARK    1  A    between atoms: C_2  and  C_10
REMARK    2  A    between atoms: C_6  and  N_7
REMARK    3  A    between atoms: N_12  and  N_13
REMARK                            x       y       z     vdW  Elec       q    Type
REMARK                         _______ _______ _______ _____ _____    ______ ____
ROOT
ATOM      1  C   UNL     1      -2.593   1.350   0.022  0.00  0.00    +0.098 A 
ATOM      2  C   UNL     1      -1.303   1.933   0.019  0.00  0.00    +0.164 A 
ATOM      3  N   UNL     1      -1.469   3.240   0.032  0.00  0.00    -0.166 NA
ATOM      4  N   UNL     1      -2.722   3.527   0.035  0.00  0.00    -0.255 N 
ATOM      5  H   UNL     1      -3.097   4.454   0.038  0.00  0.00    +0.191 HD
ATOM      6  C   UNL     1      -3.461   2.390   0.032  0.00  0.00    +0.226 A 
ATOM      7 BR   UNL     1      -3.016  -0.493   0.012  0.00  0.00    -0.044 Br
ENDROOT
BRANCH   2   8
ATOM      8  C   UNL     1      -0.014   1.212   0.009  0.00  0.00    +0.279 C 
ATOM      9  O   UNL     1       0.002  -0.004   0.002  0.00  0.00    -0.267 OA
ATOM     10  N   UNL     1       1.143   1.901   0.001  0.00  0.00    -0.248 N 
ATOM     11  H   UNL     1       1.130   2.871   0.007  0.00  0.00    +0.169 HD
BRANCH  10  12
ATOM     12  N   UNL     1       2.336   1.234  -0.014  0.00  0.00    -0.254 NA
ATOM     13  H   UNL     1       3.111   1.880  -0.018  0.00  0.00    +0.140 HD
ATOM     14  H   UNL     1       2.402   0.595   0.764  0.00  0.00    +0.140 HD
ENDBRANCH  10  12
ENDBRANCH   2   8
BRANCH   6  15
ATOM     15  N   UNL     1      -4.938   2.301   0.038  0.00  0.00    +0.076 N 
ATOM     16  O   UNL     1      -5.609   3.318   0.048  0.00  0.00    -0.125 OA
ATOM     17  O   UNL     1      -5.484   1.212   0.034  0.00  0.00    -0.125 OA
ENDBRANCH   6  15
TORSDOF 3
