REMARK  Name = ZINC05078052
REMARK  3 active torsions:
REMARK  status: ('A' for Active; 'I' for Inactive)
REMARK    1  A    between atoms: C_7  and  N_22
REMARK    2  A    between atoms: C_8  and  C_10
REMARK    3  A    between atoms: C_10  and  C_12
REMARK                            x       y       z     vdW  Elec       q    Type
REMARK                         _______ _______ _______ _____ _____    ______ ____
ROOT
ATOM      1  C   UNL     1       1.515   3.353   0.006  0.00  0.00    +0.017 A 
ATOM      2  C   UNL     1       1.282   1.995   0.001  0.00  0.00    -0.025 A 
ATOM      3  C   UNL     1      -0.018   1.510   0.010  0.00  0.00    +0.046 A 
ATOM      4  N   UNL     1      -1.041   2.348   0.020  0.00  0.00    -0.244 NA
ATOM      5  C   UNL     1      -0.868   3.651   0.029  0.00  0.00    +0.111 A 
ATOM      6  C   UNL     1       0.415   4.245   0.022  0.00  0.00    +0.029 A 
ATOM      7  C   UNL     1       0.424   5.699   0.030  0.00  0.00    +0.052 A 
ATOM      8  C   UNL     1      -0.791   6.360   0.044  0.00  0.00    +0.078 A 
ATOM      9  S   UNL     1      -1.982   5.034   0.046  0.00  0.00    -0.064 S 
ATOM     10  C   UNL     1       0.002  -0.004   0.002  0.00  0.00    +0.056 C 
ATOM     11  C   UNL     1       1.434  -0.392   0.427  0.00  0.00    +0.011 C 
ATOM     12  C   UNL     1       2.257   0.836  -0.016  0.00  0.00    +0.037 C 
ENDROOT
BRANCH   7  13
ATOM     13  N   UNL     1       1.616   6.402   0.025  0.00  0.00    -0.356 N 
ATOM     14  H   UNL     1       2.461   5.925   0.015  0.00  0.00    +0.142 HD
ATOM     15  H   UNL     1       1.607   7.372   0.031  0.00  0.00    +0.142 HD
ENDBRANCH   7  13
BRANCH   8  16
ATOM     16  C   UNL     1      -1.030   7.745   0.054  0.00  0.00    +0.178 C 
ATOM     17  O   UNL     1      -0.095   8.522   0.051  0.00  0.00    -0.291 OA
BRANCH  16  18
ATOM     18  C   UNL     1      -2.443   8.266   0.068  0.00  0.00    +0.035 C 
ATOM     19  C   UNL     1      -3.161   7.758   1.321  0.00  0.00    +0.018 C 
ATOM     20  C   UNL     1      -4.597   8.287   1.335  0.00  0.00    -0.010 C 
ATOM     21  C   UNL     1      -4.576   9.817   1.344  0.00  0.00    +0.007 C 
ATOM     22  C   UNL     1      -3.859  10.325   0.092  0.00  0.00    -0.010 C 
ATOM     23  C   UNL     1      -2.423   9.796   0.077  0.00  0.00    +0.018 C 
ATOM     24  C   UNL     1      -4.597   9.831  -1.154  0.00  0.00    +0.007 C 
ATOM     25  C   UNL     1      -4.617   8.301  -1.163  0.00  0.00    -0.010 C 
ATOM     26  C   UNL     1      -5.335   7.794   0.089  0.00  0.00    +0.007 C 
ATOM     27  C   UNL     1      -3.182   7.772  -1.178  0.00  0.00    +0.018 C 
ENDBRANCH  16  18
ENDBRANCH   8  16
TORSDOF 3
