REMARK  Name = ZINC39280173
REMARK  4 active torsions:
REMARK  status: ('A' for Active; 'I' for Inactive)
REMARK    1  A    between atoms: C_4  and  N_7
REMARK    2  A    between atoms: C_17  and  C_25
REMARK    3  A    between atoms: C_19  and  C_23
REMARK    4  A    between atoms: C_20  and  N_22
REMARK                            x       y       z     vdW  Elec       q    Type
REMARK                         _______ _______ _______ _____ _____    ______ ____
ROOT
ATOM      1  N   UNL     1       3.600  -0.631  -0.036  0.00  0.00    -0.226 NA
ATOM      2  C   UNL     1       3.792  -1.658   0.761  0.00  0.00    +0.157 C 
ATOM      3  N   UNL     1       2.892  -2.206   1.675  0.00  0.00    -0.304 N 
ATOM      4  C   UNL     1       3.381  -3.261   2.486  0.00  0.00    +0.181 C 
ATOM      5  C   UNL     1       4.487  -4.092   1.786  0.00  0.00    +0.158 C 
ATOM      6  S   UNL     1       5.266  -2.671   0.910  0.00  0.00    -0.076 S 
ATOM      7  C   UNL     1       5.369  -4.612   2.892  0.00  0.00    +0.133 C 
ATOM      8  C   UNL     1       4.765  -5.015   4.029  0.00  0.00    +0.066 C 
ATOM      9  C   UNL     1       5.578  -5.537   5.182  0.00  0.00    +0.103 C 
ATOM     10  C   UNL     1       6.960  -5.908   4.720  0.00  0.00    +0.098 C 
ATOM     11  C   UNL     1       7.440  -5.456   3.535  0.00  0.00    +0.198 C 
ATOM     12  O   UNL     1       6.699  -4.666   2.737  0.00  0.00    -0.444 OA
ATOM     13  C   UNL     1       3.303  -4.957   4.150  0.00  0.00    +0.246 C 
ATOM     14  O   UNL     1       2.712  -5.709   4.903  0.00  0.00    -0.270 OA
ATOM     15  N   UNL     1       2.623  -4.047   3.401  0.00  0.00    -0.292 N 
ATOM     16  H   UNL     1       1.663  -3.944   3.484  0.00  0.00    +0.151 HD
ATOM     17  H   UNL     1       1.981  -1.882   1.752  0.00  0.00    +0.150 HD
ENDROOT
BRANCH   9  18
ATOM     18  C   UNL     1       5.680  -4.472   6.244  0.00  0.00    -0.034 A 
ATOM     19  C   UNL     1       6.256  -3.252   5.946  0.00  0.00    +0.006 A 
ATOM     20  C   UNL     1       6.350  -2.275   6.919  0.00  0.00    +0.020 A 
ATOM     21  C   UNL     1       5.866  -2.519   8.192  0.00  0.00    +0.041 A 
ATOM     22  C   UNL     1       5.289  -3.740   8.490  0.00  0.00    +0.020 A 
ATOM     23  C   UNL     1       5.191  -4.715   7.514  0.00  0.00    +0.006 A 
ATOM     24 CL   UNL     1       5.983  -1.293   9.415  0.00  0.00    -0.084 Cl
ENDBRANCH   9  18
BRANCH   1  28
ATOM     25  C   UNL     1      -0.017   1.379   0.010  0.00  0.00    +0.000 A 
ATOM     26  C   UNL     1       1.168   2.094   0.002  0.00  0.00    +0.002 A 
ATOM     27  C   UNL     1       2.377   1.430  -0.013  0.00  0.00    +0.028 A 
ATOM     28  C   UNL     1       2.404   0.034  -0.021  0.00  0.00    +0.066 A 
ATOM     29  C   UNL     1       1.204  -0.681  -0.013  0.00  0.00    +0.028 A 
ATOM     30  C   UNL     1       0.002  -0.004   0.002  0.00  0.00    +0.002 A 
ENDBRANCH   1  28
BRANCH  11  31
ATOM     31  N   UNL     1       8.707  -5.812   3.142  0.00  0.00    -0.328 N 
ATOM     32  H   UNL     1       9.249  -6.382   3.710  0.00  0.00    +0.145 HD
ATOM     33  H   UNL     1       9.059  -5.494   2.296  0.00  0.00    +0.145 HD
ENDBRANCH  11  31
BRANCH  10  34
ATOM     34  C   UNL     1       7.779  -6.748   5.541  0.00  0.00    +0.101 C 
ATOM     35  N   UNL     1       8.429  -7.414   6.192  0.00  0.00    -0.191 NA
ENDBRANCH  10  34
TORSDOF 4
