REMARK  Name = ZINC10813677
REMARK  7 active torsions:
REMARK  status: ('A' for Active; 'I' for Inactive)
REMARK    1  A    between atoms: C_1  and  C_2
REMARK    2  A    between atoms: C_3  and  C_29
REMARK    3  A    between atoms: C_5  and  N_10
REMARK    4  A    between atoms: C_6  and  C_7
REMARK    5  A    between atoms: C_11  and  C_13
REMARK    6  A    between atoms: N_19  and  S_20
REMARK    7  A    between atoms: S_20  and  C_23
REMARK                            x       y       z     vdW  Elec       q    Type
REMARK                         _______ _______ _______ _____ _____    ______ ____
ROOT
ATOM      1  N   UNL     1      -0.965   1.578   5.603  0.00  0.00    -0.278 N 
ATOM      2  C   UNL     1      -1.119   2.870   5.957  0.00  0.00    +0.236 C 
ATOM      3  O   UNL     1      -1.588   3.663   5.168  0.00  0.00    -0.274 OA
ATOM      4  H   UNL     1      -0.591   0.944   6.234  0.00  0.00    +0.155 HD
ENDROOT
BRANCH   1   9
ATOM      5  C   UNL     1      -1.692  -1.614   1.742  0.00  0.00    +0.045 C 
ATOM      6  C   UNL     1      -1.730  -0.277   2.436  0.00  0.00    -0.027 A 
ATOM      7  C   UNL     1      -2.197   0.822   1.816  0.00  0.00    -0.008 A 
ATOM      8  S   UNL     1      -2.026   2.093   3.051  0.00  0.00    -0.078 S 
ATOM      9  C   UNL     1      -1.342   1.157   4.337  0.00  0.00    +0.084 A 
ATOM     10  C   UNL     1      -1.262  -0.119   3.792  0.00  0.00    +0.068 A 
ATOM     11  C   UNL     1      -2.735   0.946   0.414  0.00  0.00    +0.052 C 
BRANCH  10  12
ATOM     12  C   UNL     1      -0.728  -1.250   4.558  0.00  0.00    +0.244 C 
ATOM     13  O   UNL     1       0.461  -1.505   4.517  0.00  0.00    -0.270 OA
ATOM     14  N   UNL     1      -1.554  -2.007   5.307  0.00  0.00    -0.325 N 
ATOM     15  H   UNL     1      -2.502  -1.803   5.340  0.00  0.00    +0.145 HD
ATOM     16  H   UNL     1      -1.201  -2.755   5.814  0.00  0.00    +0.145 HD
ENDBRANCH  10  12
ENDBRANCH   1   9
BRANCH   2  17
ATOM     17  C   UNL     1      -0.710   3.328   7.333  0.00  0.00    +0.166 C 
ATOM     18  C   UNL     1       0.412   4.364   7.217  0.00  0.00    +0.030 C 
ATOM     19  C   UNL     1       0.727   4.927   8.605  0.00  0.00    +0.003 C 
ATOM     20  C   UNL     1      -0.514   5.621   9.170  0.00  0.00    +0.017 C 
ATOM     21  C   UNL     1      -1.647   4.598   9.308  0.00  0.00    +0.110 C 
ATOM     22  N   UNL     1      -1.859   3.945   8.009  0.00  0.00    -0.164 NA
BRANCH  22  23
ATOM     23  S   UNL     1      -3.364   3.908   7.319  0.00  0.00    +0.068 S 
ATOM     24  O   UNL     1      -3.371   2.807   6.420  0.00  0.00    -0.152 OA
ATOM     25  O   UNL     1      -4.301   4.031   8.380  0.00  0.00    -0.152 OA
BRANCH  23  26
ATOM     26  C   UNL     1      -3.522   5.362   6.336  0.00  0.00    +0.144 A 
ATOM     27  C   UNL     1      -3.347   5.512   5.001  0.00  0.00    +0.038 A 
ATOM     28  C   UNL     1      -3.530   6.761   4.437  0.00  0.00    +0.030 A 
ATOM     29  C   UNL     1      -3.870   7.801   5.239  0.00  0.00    +0.080 A 
ATOM     30  S   UNL     1      -3.947   7.020   6.843  0.00  0.00    -0.057 S 
ATOM     31 CL   UNL     1      -4.155   9.460   4.816  0.00  0.00    -0.076 Cl
ENDBRANCH  23  26
ENDBRANCH  22  23
ENDBRANCH   2  17
TORSDOF 5
