REMARK  Name = ZINC05385335
REMARK  2 active torsions:
REMARK  status: ('A' for Active; 'I' for Inactive)
REMARK    1  A    between atoms: C_4  and  C_9
REMARK    2  A    between atoms: N_11  and  O_12
REMARK                            x       y       z     vdW  Elec       q    Type
REMARK                         _______ _______ _______ _____ _____    ______ ____
ROOT
ATOM      1  C   UNL     1       2.178   0.019   1.231  0.00  0.00    +0.001 C 
ATOM      2  C   UNL     1       2.157   1.548   1.239  0.00  0.00    +0.002 C 
ATOM      3  C   UNL     1       1.417   2.055  -0.000  0.00  0.00    +0.029 C 
ATOM      4  C   UNL     1      -0.019   1.526   0.010  0.00  0.00    +0.116 C 
ATOM      5  C   UNL     1       0.002  -0.004   0.002  0.00  0.00    +0.082 C 
ATOM      6  C   UNL     1       0.742  -0.511   1.242  0.00  0.00    +0.016 C 
ATOM      7 BR   UNL     1      -1.842  -0.685   0.016  0.00  0.00    -0.086 Br
ATOM      8 BR   UNL     1      -0.939   2.160   1.628  0.00  0.00    -0.073 Br
ENDROOT
BRANCH   4   9
ATOM      9  C   UNL     1      -0.748   2.025  -1.210  0.00  0.00    +0.253 C 
ATOM     10  O   UNL     1      -1.205   1.235  -2.009  0.00  0.00    -0.272 OA
ATOM     11  N   UNL     1      -0.891   3.349  -1.415  0.00  0.00    -0.196 N 
ATOM     12  H   UNL     1      -0.524   3.981  -0.777  0.00  0.00    +0.182 HD
BRANCH  11  13
ATOM     13  O   UNL     1      -1.575   3.818  -2.562  0.00  0.00    -0.295 OA
ATOM     14  H   UNL     1      -1.627   4.782  -2.623  0.00  0.00    +0.241 HD
ENDBRANCH  11  13
ENDBRANCH   4   9
TORSDOF 2
