REMARK  Name = ZINC63427546
REMARK  12 active torsions:
REMARK  status: ('A' for Active; 'I' for Inactive)
REMARK    1  A    between atoms: C_1  and  O_2
REMARK    2  A    between atoms: O_2  and  C_3
REMARK    3  A    between atoms: C_7  and  O_27
REMARK    4  A    between atoms: C_8  and  O_9
REMARK    5  A    between atoms: O_9  and  C_10
REMARK    6  A    between atoms: C_10  and  C_11
REMARK    7  A    between atoms: C_11  and  C_12
REMARK    8  A    between atoms: C_11  and  O_26
REMARK    9  A    between atoms: C_12  and  N_13
REMARK   10  A    between atoms: C_14  and  C_15
REMARK   11  A    between atoms: C_24  and  O_25
REMARK   12  A    between atoms: O_27  and  C_28
REMARK                            x       y       z     vdW  Elec       q    Type
REMARK                         _______ _______ _______ _____ _____    ______ ____
ROOT
ATOM      1  C   UNL     1       2.262  -4.410   2.402  0.00  0.00    +0.147 C 
ENDROOT
BRANCH   1   2
ATOM      2  N   UNL     1       3.487  -5.187   2.193  0.00  0.00    -0.387 N 
ATOM      3  C   UNL     1       4.620  -4.745   2.643  0.00  0.00    +0.090 C 
ATOM      4  H   UNL     1       3.450  -6.032   1.719  0.00  0.00    +0.159 HD
BRANCH   3   5
ATOM      5  C   UNL     1       5.828  -5.573   2.531  0.00  0.00    +0.040 A 
ATOM      6  C   UNL     1       7.084  -5.150   3.148  0.00  0.00    -0.006 A 
ATOM      7  C   UNL     1       7.178  -3.949   3.862  0.00  0.00    +0.009 A 
ATOM      8  C   UNL     1       8.368  -3.590   4.423  0.00  0.00    +0.001 A 
ATOM      9  C   UNL     1       9.492  -4.402   4.295  0.00  0.00    +0.001 A 
ATOM     10  C   UNL     1       9.435  -5.577   3.608  0.00  0.00    +0.008 A 
ATOM     11  C   UNL     1       8.225  -5.978   3.017  0.00  0.00    -0.017 A 
ATOM     12  C   UNL     1       8.127  -7.184   2.300  0.00  0.00    +0.012 A 
ATOM     13  C   UNL     1       6.953  -7.564   1.733  0.00  0.00    +0.046 A 
ATOM     14  C   UNL     1       5.800  -6.785   1.839  0.00  0.00    +0.126 A 
BRANCH  14  15
ATOM     15  O   UNL     1       4.647  -7.205   1.262  0.00  0.00    -0.506 OA
ATOM     16  H   UNL     1       4.532  -6.906   0.350  0.00  0.00    +0.292 HD
ENDBRANCH  14  15
ENDBRANCH   3   5
ENDBRANCH   1   2
BRANCH   1  17
ATOM     17  C   UNL     1       1.720  -3.941   1.051  0.00  0.00    +0.171 C 
BRANCH  17  18
ATOM     18  O   UNL     1       2.697  -3.125   0.402  0.00  0.00    -0.387 OA
ATOM     19  H   UNL     1       2.943  -2.334   0.901  0.00  0.00    +0.210 HD
ENDBRANCH  17  18
BRANCH  17  20
ATOM     20  C   UNL     1       0.441  -3.129   1.268  0.00  0.00    +0.262 C 
BRANCH  20  21
ATOM     21  O   UNL     1      -0.129  -2.790   0.003  0.00  0.00    -0.483 OA
BRANCH  21  27
ATOM     22  C   UNL     1      -1.226  -0.674   0.009  0.00  0.00    +0.165 A 
ATOM     23  C   UNL     1      -2.400   0.064   0.020  0.00  0.00    +0.049 A 
ATOM     24  C   UNL     1      -3.623  -0.581   0.045  0.00  0.00    +0.007 A 
ATOM     25  C   UNL     1      -3.680  -1.962   0.059  0.00  0.00    +0.049 A 
ATOM     26  C   UNL     1      -2.511  -2.706   0.049  0.00  0.00    +0.165 A 
ATOM     27  C   UNL     1      -1.279  -2.062   0.019  0.00  0.00    +0.204 A 
BRANCH  22  29
ATOM     28  C   UNL     1      -0.044   1.390  -0.023  0.00  0.00    +0.277 C 
ATOM     29  O   UNL     1      -0.024  -0.039  -0.015  0.00  0.00    -0.491 OA
ENDBRANCH  22  29
BRANCH  26  30
ATOM     30  O   UNL     1      -2.568  -4.065   0.064  0.00  0.00    -0.491 OA
ATOM     31  C   UNL     1      -3.868  -4.659   0.090  0.00  0.00    +0.277 C 
ENDBRANCH  26  30
ENDBRANCH  21  27
ENDBRANCH  20  21
ENDBRANCH  17  20
ENDBRANCH   1  17
TORSDOF 10
