REMARK  Name = ZINC05696035
REMARK  7 active torsions:
REMARK  status: ('A' for Active; 'I' for Inactive)
REMARK    1  A    between atoms: C_1  and  C_2
REMARK    2  A    between atoms: C_5  and  C_26
REMARK    3  A    between atoms: C_6  and  N_8
REMARK    4  A    between atoms: N_8  and  C_9
REMARK    5  A    between atoms: C_9  and  N_11
REMARK    6  A    between atoms: N_14  and  C_15
REMARK    7  A    between atoms: C_17  and  C_25
REMARK                            x       y       z     vdW  Elec       q    Type
REMARK                         _______ _______ _______ _____ _____    ______ ____
ROOT
ATOM      1  N   UNL     1      -0.786  -2.894   4.914  0.00  0.00    -0.268 N 
ATOM      2  C   UNL     1      -0.138  -2.134   5.858  0.00  0.00    +0.195 C 
ATOM      3  N   UNL     1      -0.119  -0.770   5.743  0.00  0.00    -0.371 N 
ATOM      4  N   UNL     1       0.465  -2.717   6.872  0.00  0.00    -0.179 NA
ATOM      5  H   UNL     1      -1.296  -2.463   4.211  0.00  0.00    +0.157 HD
ATOM      6  H   UNL     1      -0.878  -0.306   5.358  0.00  0.00    +0.159 HD
ATOM      7  H   UNL     1       0.654  -0.269   6.046  0.00  0.00    +0.159 HD
ENDROOT
BRANCH   4   8
ATOM      8  C   UNL     1       0.970  -1.965   7.887  0.00  0.00    +0.254 A 
ATOM      9  N   UNL     1       1.695  -2.567   8.835  0.00  0.00    -0.215 NA
ATOM     10  C   UNL     1       2.209  -1.893   9.840  0.00  0.00    +0.051 A 
ATOM     11  C   UNL     1       1.982  -0.504   9.905  0.00  0.00    +0.022 A 
ATOM     12  C   UNL     1       2.496   0.284  10.944  0.00  0.00    +0.012 A 
ATOM     13  C   UNL     1       2.246   1.624  10.959  0.00  0.00    +0.001 A 
ATOM     14  C   UNL     1       1.486   2.221   9.956  0.00  0.00    +0.002 A 
ATOM     15  C   UNL     1       0.970   1.486   8.931  0.00  0.00    +0.028 A 
ATOM     16  C   UNL     1       1.208   0.103   8.883  0.00  0.00    +0.077 A 
ATOM     17  N   UNL     1       0.729  -0.662   7.896  0.00  0.00    -0.211 NA
ATOM     18  C   UNL     1       3.024  -2.590  10.899  0.00  0.00    +0.066 C 
ENDBRANCH   4   8
BRANCH   1  19
ATOM     19  C   UNL     1      -0.713  -4.239   4.966  0.00  0.00    +0.141 C 
ATOM     20  S   UNL     1       0.079  -5.003   6.278  0.00  0.00    -0.018 S 
BRANCH  19  21
ATOM     21  N   UNL     1      -1.263  -4.982   3.986  0.00  0.00    -0.296 N 
ATOM     22  H   UNL     1      -1.676  -4.549   3.223  0.00  0.00    +0.154 HD
BRANCH  21  28
ATOM     23  C   UNL     1      -1.627  -9.067   6.697  0.00  0.00    +0.044 C 
ATOM     24  C   UNL     1      -1.412  -8.385   5.370  0.00  0.00    -0.049 A 
ATOM     25  C   UNL     1      -1.189  -9.140   4.233  0.00  0.00    +0.004 A 
ATOM     26  C   UNL     1      -0.990  -8.518   3.015  0.00  0.00    +0.005 A 
ATOM     27  C   UNL     1      -1.014  -7.139   2.929  0.00  0.00    -0.029 A 
ATOM     28  C   UNL     1      -1.238  -6.378   4.069  0.00  0.00    +0.036 A 
ATOM     29  C   UNL     1      -1.443  -7.007   5.291  0.00  0.00    +0.027 A 
ATOM     30  C   UNL     1      -0.796  -6.462   1.601  0.00  0.00    +0.045 C 
ENDBRANCH  21  28
ENDBRANCH  19  21
ENDBRANCH   1  19
TORSDOF 4
