REMARK  Name = ZINC17878716
REMARK  4 active torsions:
REMARK  status: ('A' for Active; 'I' for Inactive)
REMARK    1  A    between atoms: C_1  and  C_2
REMARK    2  A    between atoms: C_2  and  N_3
REMARK    3  A    between atoms: C_10  and  C_13
REMARK    4  A    between atoms: C_10  and  O_21
REMARK                            x       y       z     vdW  Elec       q    Type
REMARK                         _______ _______ _______ _____ _____    ______ ____
ROOT
ATOM      1  N   UNL     1       0.711  -0.489   1.189  0.00  0.00    -0.269 N 
ATOM      2  C   UNL     1       2.086  -0.725   1.232  0.00  0.00    +0.043 A 
ATOM      3  C   UNL     1       3.066  -0.578   0.253  0.00  0.00    +0.025 A 
ATOM      4  C   UNL     1       4.381  -0.880   0.538  0.00  0.00    +0.022 A 
ATOM      5  C   UNL     1       4.738  -1.331   1.797  0.00  0.00    +0.041 A 
ATOM      6  C   UNL     1       3.769  -1.480   2.775  0.00  0.00    +0.028 A 
ATOM      7  C   UNL     1       2.456  -1.179   2.492  0.00  0.00    +0.017 A 
ATOM      8  C   UNL     1       1.189  -1.231   3.314  0.00  0.00    +0.189 C 
ATOM      9  C   UNL     1       0.112  -0.753   2.363  0.00  0.00    +0.258 C 
ATOM     10  O   UNL     1      -1.069  -0.634   2.612  0.00  0.00    -0.272 OA
ATOM     11 CL   UNL     1       6.395  -1.710   2.149  0.00  0.00    -0.084 Cl
ENDROOT
BRANCH   8  12
ATOM     12  C   UNL     1       0.907  -2.662   3.775  0.00  0.00    +0.187 C 
ATOM     13  C   UNL     1      -0.376  -2.742   4.594  0.00  0.00    +0.255 C 
ATOM     14  O   UNL     1      -1.474  -2.466   4.152  0.00  0.00    -0.272 OA
ATOM     15  N   UNL     1      -0.169  -3.139   5.824  0.00  0.00    -0.159 NA
ATOM     16  C   UNL     1       1.018  -3.442   6.315  0.00  0.00    +0.145 C 
ATOM     17  S   UNL     1       2.112  -3.205   5.056  0.00  0.00    -0.077 S 
ATOM     18  N   UNL     1       1.301  -3.860   7.582  0.00  0.00    -0.340 N 
ATOM     19  H   UNL     1       0.586  -3.963   8.230  0.00  0.00    +0.144 HD
ATOM     20  H   UNL     1       2.217  -4.055   7.836  0.00  0.00    +0.144 HD
ENDBRANCH   8  12
BRANCH   1  22
ATOM     21  C   UNL     1      -0.019   1.526   0.010  0.00  0.00    +0.025 C 
ATOM     22  C   UNL     1       0.002  -0.004   0.002  0.00  0.00    +0.110 C 
ENDBRANCH   1  22
BRANCH   8  23
ATOM     23  O   UNL     1       1.284  -0.352   4.437  0.00  0.00    -0.373 OA
ATOM     24  H   UNL     1       1.432   0.574   4.200  0.00  0.00    +0.211 HD
ENDBRANCH   8  23
TORSDOF 3
