REMARK  Name = ZINC02341440
REMARK  10 active torsions:
REMARK  status: ('A' for Active; 'I' for Inactive)
REMARK    1  A    between atoms: C_1  and  C_2
REMARK    2  A    between atoms: C_8  and  N_12
REMARK    3  A    between atoms: N_12  and  C_13
REMARK    4  A    between atoms: N_12  and  C_16
REMARK    5  A    between atoms: C_13  and  C_14
REMARK    6  A    between atoms: C_14  and  O_15
REMARK    7  A    between atoms: C_16  and  C_17
REMARK    8  A    between atoms: C_17  and  O_18
REMARK    9  A    between atoms: C_23  and  C_26
REMARK   10  A    between atoms: C_23  and  C_27
REMARK                            x       y       z     vdW  Elec       q    Type
REMARK                         _______ _______ _______ _____ _____    ______ ____
ROOT
ATOM      1  C   UNL     1       4.918   6.700  -1.490  0.00  0.00    +0.066 C 
ATOM      2  C   UNL     1       4.317   5.330  -1.307  0.00  0.00    +0.048 A 
ATOM      3  C   UNL     1       5.130   4.212  -1.423  0.00  0.00    +0.003 A 
ATOM      4  C   UNL     1       4.578   2.961  -1.252  0.00  0.00    -0.023 A 
ATOM      5  C   UNL     1       3.215   2.872  -0.973  0.00  0.00    +0.070 A 
ATOM      6  C   UNL     1       2.283   1.759  -0.733  0.00  0.00    +0.124 A 
ATOM      7  C   UNL     1       1.036   2.354  -0.509  0.00  0.00    +0.196 A 
ATOM      8  C   UNL     1      -0.052   1.514  -0.249  0.00  0.00    +0.168 A 
ATOM      9  N   UNL     1       0.145   0.200  -0.228  0.00  0.00    -0.217 NA
ATOM     10  C   UNL     1       1.339  -0.318  -0.445  0.00  0.00    +0.224 A 
ATOM     11  N   UNL     1       2.392   0.433  -0.692  0.00  0.00    -0.231 NA
ATOM     12  O   UNL     1       1.173   3.693  -0.600  0.00  0.00    -0.432 OA
ATOM     13  C   UNL     1       2.448   4.043  -0.874  0.00  0.00    +0.231 A 
ATOM     14  N   UNL     1       3.031   5.222  -1.046  0.00  0.00    -0.217 NA
ATOM     15  C   UNL     1       5.409   1.711  -1.355  0.00  0.00    +0.070 C 
ATOM     16  C   UNL     1       6.730   2.027  -2.060  0.00  0.00    +0.068 C 
ATOM     17  O   UNL     1       7.306   3.186  -1.447  0.00  0.00    -0.369 OA
ATOM     18  C   UNL     1       6.592   4.389  -1.733  0.00  0.00    +0.197 C 
ATOM     19  C   UNL     1       7.686   0.841  -1.917  0.00  0.00    +0.041 C 
ATOM     20  C   UNL     1       6.469   2.301  -3.543  0.00  0.00    +0.041 C 
ENDROOT
BRANCH   8  21
ATOM     21  N   UNL     1      -1.314   2.042  -0.025  0.00  0.00    -0.308 N 
BRANCH  21  22
ATOM     22  C   UNL     1      -2.296   0.977   0.218  0.00  0.00    +0.134 C 
BRANCH  22  23
ATOM     23  C   UNL     1      -3.705   1.573   0.227  0.00  0.00    +0.174 C 
BRANCH  23  24
ATOM     24  O   UNL     1      -4.006   2.103  -1.065  0.00  0.00    -0.393 OA
ATOM     25  H   UNL     1      -4.886   2.498  -1.133  0.00  0.00    +0.209 HD
ENDBRANCH  23  24
ENDBRANCH  22  23
ENDBRANCH  21  22
BRANCH  21  26
ATOM     26  C   UNL     1      -1.293   3.002   1.087  0.00  0.00    +0.134 C 
BRANCH  26  27
ATOM     27  C   UNL     1      -0.960   2.268   2.387  0.00  0.00    +0.174 C 
BRANCH  27  28
ATOM     28  O   UNL     1       0.376   1.763   2.320  0.00  0.00    -0.393 OA
ATOM     29  H   UNL     1       0.630   1.221   3.080  0.00  0.00    +0.209 HD
ENDBRANCH  27  28
ENDBRANCH  26  27
ENDBRANCH  21  26
ENDBRANCH   8  21
TORSDOF 7
