REMARK  Name = ZINC00921702
REMARK  5 active torsions:
REMARK  status: ('A' for Active; 'I' for Inactive)
REMARK    1  A    between atoms: C_1  and  C_2
REMARK    2  A    between atoms: C_9  and  N_56
REMARK    3  A    between atoms: C_21  and  N_23
REMARK    4  A    between atoms: N_23  and  S_24
REMARK    5  A    between atoms: S_24  and  C_27
REMARK                            x       y       z     vdW  Elec       q    Type
REMARK                         _______ _______ _______ _____ _____    ______ ____
ROOT
ATOM      1  C   UNL     1      -0.379   5.120  -0.224  0.00  0.00    -0.014 C 
ATOM      2  C   UNL     1       0.145   3.735  -0.516  0.00  0.00    -0.051 A 
ATOM      3  C   UNL     1       1.334   3.234  -0.951  0.00  0.00    +0.003 A 
ATOM      4  C   UNL     1       1.498   1.858  -1.125  0.00  0.00    +0.001 A 
ATOM      5  C   UNL     1       0.496   0.966  -0.874  0.00  0.00    +0.008 A 
ATOM      6  C   UNL     1      -0.746   1.449  -0.430  0.00  0.00    -0.017 A 
ATOM      7  C   UNL     1      -0.886   2.838  -0.257  0.00  0.00    -0.012 A 
ATOM      8  C   UNL     1      -2.068   3.425   0.182  0.00  0.00    -0.022 A 
ATOM      9  C   UNL     1      -3.123   2.609   0.456  0.00  0.00    +0.006 A 
ATOM     10  C   UNL     1      -3.005   1.226   0.297  0.00  0.00    +0.001 A 
ATOM     11  C   UNL     1      -1.852   0.636  -0.132  0.00  0.00    +0.008 A 
ATOM     12  C   UNL     1      -1.838   4.916   0.237  0.00  0.00    +0.098 C 
ENDROOT
BRANCH   1  21
ATOM     13  C   UNL     1       4.921   6.851   2.652  0.00  0.00    +0.109 C 
ATOM     14  C   UNL     1       3.725   6.105   3.187  0.00  0.00    +0.212 C 
ATOM     15  O   UNL     1       3.845   5.381   4.153  0.00  0.00    -0.276 OA
ATOM     16  N   UNL     1       2.524   6.243   2.593  0.00  0.00    -0.305 N 
ATOM     17  C   UNL     1       1.344   5.525   3.099  0.00  0.00    +0.089 C 
ATOM     18  C   UNL     1       0.682   4.791   1.928  0.00  0.00    -0.059 C 
ATOM     19  C   UNL     1       1.654   6.320   0.316  0.00  0.00    -0.059 C 
ATOM     20  C   UNL     1       2.357   7.116   1.421  0.00  0.00    +0.089 C 
ATOM     21  N   UNL     1       0.393   5.769   0.857  0.00  0.00    +0.388 N 
ATOM     22  H   UNL     1      -0.165   6.537   1.249  0.00  0.00    -0.081 HD
ENDBRANCH   1  21
BRANCH  12  23
ATOM     23  N   UNL     1      -2.014   5.406   1.607  0.00  0.00    -0.184 NA
ATOM     24  H   UNL     1      -1.746   4.854   2.357  0.00  0.00    +0.149 HD
BRANCH  23  25
ATOM     25  S   UNL     1      -2.671   6.903   1.872  0.00  0.00    +0.059 S 
ATOM     26  O   UNL     1      -2.816   7.039   3.279  0.00  0.00    -0.153 OA
ATOM     27  O   UNL     1      -1.917   7.821   1.092  0.00  0.00    -0.153 OA
BRANCH  25  28
ATOM     28  C   UNL     1      -4.298   6.885   1.196  0.00  0.00    +0.105 A 
ATOM     29  C   UNL     1      -4.521   7.363  -0.081  0.00  0.00    +0.028 A 
ATOM     30  C   UNL     1      -5.797   7.346  -0.613  0.00  0.00    +0.002 A 
ATOM     31  C   UNL     1      -6.851   6.858   0.137  0.00  0.00    +0.000 A 
ATOM     32  C   UNL     1      -6.629   6.385   1.417  0.00  0.00    +0.002 A 
ATOM     33  C   UNL     1      -5.352   6.399   1.946  0.00  0.00    +0.028 A 
ENDBRANCH  25  28
ENDBRANCH  23  25
ENDBRANCH  12  23
TORSDOF 4
