REMARK  Name = ZINC10451906
REMARK  9 active torsions:
REMARK  status: ('A' for Active; 'I' for Inactive)
REMARK    1  A    between atoms: C_1  and  C_2
REMARK    2  A    between atoms: C_2  and  C_4
REMARK    3  A    between atoms: C_2  and  O_19
REMARK    4  A    between atoms: N_6  and  N_7
REMARK    5  A    between atoms: C_8  and  C_10
REMARK    6  A    between atoms: C_13  and  C_16
REMARK    7  A    between atoms: C_16  and  C_17
REMARK    8  A    between atoms: C_16  and  C_18
REMARK    9  A    between atoms: O_19  and  C_20
REMARK                            x       y       z     vdW  Elec       q    Type
REMARK                         _______ _______ _______ _____ _____    ______ ____
ROOT
ATOM      1  C   UNL     1       0.861  -0.295   1.210  0.00  0.00    +0.270 C 
ATOM      2  O   UNL     1       1.977  -0.747   1.067  0.00  0.00    -0.270 OA
ATOM      3  N   UNL     1       0.389  -0.045   2.448  0.00  0.00    -0.231 N 
ATOM      4  H   UNL     1      -0.504   0.316   2.563  0.00  0.00    +0.173 HD
ENDROOT
BRANCH   3   5
ATOM      5  N   UNL     1       1.188  -0.308   3.568  0.00  0.00    -0.230 N 
ATOM      6  C   UNL     1       0.716  -0.058   4.806  0.00  0.00    +0.260 C 
ATOM      7  O   UNL     1      -0.403   0.395   4.950  0.00  0.00    -0.269 OA
ATOM      8  H   UNL     1       2.080  -0.669   3.454  0.00  0.00    +0.173 HD
BRANCH   6   9
ATOM      9  C   UNL     1       1.558  -0.335   5.989  0.00  0.00    +0.038 A 
ATOM     10  C   UNL     1       2.846  -0.850   5.827  0.00  0.00    +0.013 A 
ATOM     11  C   UNL     1       3.627  -1.106   6.934  0.00  0.00    +0.004 A 
ATOM     12  C   UNL     1       3.138  -0.853   8.204  0.00  0.00    -0.045 A 
ATOM     13  C   UNL     1       1.862  -0.344   8.371  0.00  0.00    +0.004 A 
ATOM     14  C   UNL     1       1.073  -0.077   7.271  0.00  0.00    +0.013 A 
BRANCH  12  15
ATOM     15  C   UNL     1       3.997  -1.136   9.409  0.00  0.00    +0.013 C 
ATOM     16  C   UNL     1       4.215   0.159  10.194  0.00  0.00    +0.012 C 
ATOM     17  C   UNL     1       3.300  -2.163  10.303  0.00  0.00    +0.012 C 
ENDBRANCH  12  15
ENDBRANCH   6   9
ENDBRANCH   3   5
BRANCH   1  19
ATOM     18  C   UNL     1      -0.253   1.492  -0.099  0.00  0.00    +0.062 C 
ATOM     19  C   UNL     1       0.001  -0.013   0.005  0.00  0.00    +0.257 C 
BRANCH  19  20
ATOM     20  O   UNL     1       0.671  -0.465  -1.174  0.00  0.00    -0.478 OA
BRANCH  20  21
ATOM     21  C   UNL     1      -0.107  -0.775  -2.245  0.00  0.00    +0.140 A 
ATOM     22  C   UNL     1      -1.473  -0.541  -2.202  0.00  0.00    +0.048 A 
ATOM     23  C   UNL     1      -2.262  -0.856  -3.291  0.00  0.00    +0.023 A 
ATOM     24  C   UNL     1      -1.690  -1.406  -4.425  0.00  0.00    +0.043 A 
ATOM     25  C   UNL     1      -0.328  -1.641  -4.471  0.00  0.00    +0.043 A 
ATOM     26  C   UNL     1       0.466  -1.321  -3.385  0.00  0.00    +0.084 A 
ATOM     27 CL   UNL     1       2.177  -1.609  -3.445  0.00  0.00    -0.080 Cl
ATOM     28 CL   UNL     1      -2.684  -1.802  -5.792  0.00  0.00    -0.083 Cl
ENDBRANCH  20  21
ENDBRANCH  19  20
ENDBRANCH   1  19
TORSDOF 6
