REMARK  Name = ZINC53127306
REMARK  9 active torsions:
REMARK  status: ('A' for Active; 'I' for Inactive)
REMARK    1  A    between atoms: C_1  and  C_2
REMARK    2  A    between atoms: C_5  and  C_8
REMARK    3  A    between atoms: C_5  and  N_10
REMARK    4  A    between atoms: C_8  and  O_9
REMARK    5  A    between atoms: C_11  and  C_13
REMARK    6  A    between atoms: C_13  and  C_15
REMARK    7  A    between atoms: C_13  and  N_18
REMARK    8  A    between atoms: C_15  and  C_16
REMARK    9  A    between atoms: C_15  and  C_17
REMARK                            x       y       z     vdW  Elec       q    Type
REMARK                         _______ _______ _______ _____ _____    ______ ____
ROOT
ATOM      1  N   UNL     1       2.845  -2.006  -0.026  0.00  0.00    -0.309 N 
ATOM      2  C   UNL     1       3.649  -2.218  -1.086  0.00  0.00    +0.199 C 
ATOM      3  O   UNL     1       3.214  -2.767  -2.077  0.00  0.00    -0.278 OA
ATOM      4  H   UNL     1       3.170  -1.502   0.737  0.00  0.00    +0.149 HD
ENDROOT
BRANCH   1   9
ATOM      5  C   UNL     1      -0.073   1.462   0.556  0.00  0.00    +0.007 C 
ATOM      6  C   UNL     1      -0.031  -0.056   0.363  0.00  0.00    -0.014 C 
ATOM      7  C   UNL     1       0.641  -0.382  -0.972  0.00  0.00    +0.005 C 
ATOM      8  C   UNL     1       0.683  -1.899  -1.165  0.00  0.00    +0.028 C 
ATOM      9  C   UNL     1       1.479  -2.536  -0.024  0.00  0.00    +0.057 C 
ATOM     10  C   UNL     1       0.807  -2.210   1.311  0.00  0.00    +0.028 C 
ATOM     11  C   UNL     1       0.765  -0.693   1.504  0.00  0.00    +0.005 C 
BRANCH   9  12
ATOM     12  C   UNL     1       1.521  -4.053  -0.217  0.00  0.00    +0.181 C 
BRANCH  12  13
ATOM     13  O   UNL     1       2.368  -4.636   0.776  0.00  0.00    -0.393 OA
ATOM     14  H   UNL     1       2.442  -5.599   0.714  0.00  0.00    +0.209 HD
ENDBRANCH  12  13
ENDBRANCH   9  12
ENDBRANCH   1   9
BRANCH   2  15
ATOM     15  C   UNL     1       5.088  -1.773  -1.041  0.00  0.00    +0.015 C 
BRANCH  15  16
ATOM     16  N   UNL     1       5.859  -2.508  -2.053  0.00  0.00    +0.386 N 
ATOM     17  H   UNL     1       6.823  -2.210  -2.023  0.00  0.00    -0.089 HD
ATOM     18  H   UNL     1       5.807  -3.498  -1.863  0.00  0.00    -0.089 HD
ATOM     19  H   UNL     1       5.478  -2.321  -2.968  0.00  0.00    -0.089 HD
ENDBRANCH  15  16
BRANCH  15  20
ATOM     20  C   UNL     1       5.168  -0.273  -1.330  0.00  0.00    -0.023 C 
ATOM     21  C   UNL     1       6.629   0.178  -1.284  0.00  0.00    +0.006 C 
ATOM     22  C   UNL     1       4.589   0.011  -2.717  0.00  0.00    +0.006 C 
ENDBRANCH  15  20
ENDBRANCH   2  15
TORSDOF 6
