REMARK  Name = ZINC34938960
REMARK  6 active torsions:
REMARK  status: ('A' for Active; 'I' for Inactive)
REMARK    1  A    between atoms: C_1  and  C_2
REMARK    2  A    between atoms: C_4  and  S_10
REMARK    3  A    between atoms: C_6  and  N_9
REMARK    4  A    between atoms: C_7  and  C_8
REMARK    5  A    between atoms: S_10  and  N_13
REMARK    6  A    between atoms: N_13  and  C_14
REMARK                            x       y       z     vdW  Elec       q    Type
REMARK                         _______ _______ _______ _____ _____    ______ ____
ROOT
ATOM      1  C   UNL     1      -0.018   1.503   0.010  0.00  0.00    +0.044 C 
ATOM      2  C   UNL     1       0.002  -0.004   0.002  0.00  0.00    -0.044 A 
ATOM      3  C   UNL     1       0.006  -0.688  -1.200  0.00  0.00    +0.032 A 
ATOM      4  C   UNL     1       0.024  -2.071  -1.212  0.00  0.00    +0.112 A 
ATOM      5  C   UNL     1       0.039  -2.773  -0.023  0.00  0.00    +0.051 A 
ATOM      6  C   UNL     1       0.036  -2.089   1.186  0.00  0.00    +0.030 A 
ATOM      7  C   UNL     1       0.023  -0.700   1.194  0.00  0.00    -0.027 A 
ATOM      8  C   UNL     1       0.025   0.046   2.504  0.00  0.00    +0.046 C 
ENDROOT
BRANCH   6   9
ATOM      9  N   UNL     1       0.051  -2.796   2.390  0.00  0.00    -0.358 N 
ATOM     10  H   UNL     1       0.064  -3.766   2.383  0.00  0.00    +0.142 HD
ATOM     11  H   UNL     1       0.049  -2.318   3.234  0.00  0.00    +0.142 HD
ENDBRANCH   6   9
BRANCH   4  12
ATOM     12  S   UNL     1       0.027  -2.937  -2.746  0.00  0.00    +0.093 S 
ATOM     13  O   UNL     1      -0.505  -4.229  -2.485  0.00  0.00    -0.148 OA
ATOM     14  O   UNL     1      -0.540  -2.060  -3.709  0.00  0.00    -0.148 OA
BRANCH  12  15
ATOM     15  N   UNL     1       1.610  -3.157  -3.181  0.00  0.00    -0.078 NA
BRANCH  15  16
ATOM     16  C   UNL     1       1.921  -3.820  -4.363  0.00  0.00    +0.163 A 
ATOM     17  C   UNL     1       3.253  -4.006  -4.719  0.00  0.00    +0.048 A 
ATOM     18  C   UNL     1       3.548  -4.667  -5.898  0.00  0.00    +0.020 A 
ATOM     19  C   UNL     1       2.496  -5.122  -6.684  0.00  0.00    +0.036 A 
ATOM     20  C   UNL     1       1.198  -4.902  -6.269  0.00  0.00    +0.128 A 
ATOM     21  N   UNL     1       0.947  -4.273  -5.137  0.00  0.00    -0.236 NA
ATOM     22 BR   UNL     1       2.840  -6.031  -8.306  0.00  0.00    -0.049 Br
ENDBRANCH  15  16
ENDBRANCH  12  15
ENDBRANCH   4  12
TORSDOF 4
