REMARK  Name = ZINC39596349
REMARK  7 active torsions:
REMARK  status: ('A' for Active; 'I' for Inactive)
REMARK    1  A    between atoms: C_1  and  C_2
REMARK    2  A    between atoms: C_2  and  C_4
REMARK    3  A    between atoms: C_2  and  O_32
REMARK    4  A    between atoms: C_4  and  N_5
REMARK    5  A    between atoms: C_6  and  C_8
REMARK    6  A    between atoms: C_19  and  C_21
REMARK    7  A    between atoms: O_32  and  C_33
REMARK                            x       y       z     vdW  Elec       q    Type
REMARK                         _______ _______ _______ _____ _____    ______ ____
ROOT
ATOM      1  C   UNL     1       0.685  -4.275  -1.895  0.00  0.00    +0.100 C 
ATOM      2  C   UNL     1       1.226  -4.811  -0.551  0.00  0.00    +0.121 C 
ATOM      3  N   UNL     1       1.778  -6.147  -0.875  0.00  0.00    -0.297 N 
ATOM      4  C   UNL     1       2.430  -5.966  -2.194  0.00  0.00    +0.115 C 
ATOM      5  C   UNL     1       1.478  -5.035  -2.971  0.00  0.00    -0.004 C 
ATOM      6  C   UNL     1       2.279  -4.058  -3.827  0.00  0.00    -0.010 C 
ATOM      7  C   UNL     1       3.013  -4.831  -4.926  0.00  0.00    -0.082 C 
ATOM      8  N   UNL     1       2.039  -5.553  -5.753  0.00  0.00    +0.379 N 
ATOM      9  C   UNL     1       1.339  -6.556  -4.942  0.00  0.00    -0.082 C 
ATOM     10  C   UNL     1       0.533  -5.856  -3.844  0.00  0.00    -0.010 C 
ATOM     11  C   UNL     1       1.705  -7.273  -0.138  0.00  0.00    +0.260 C 
ATOM     12  O   UNL     1       2.212  -8.297  -0.542  0.00  0.00    -0.271 OA
ATOM     13  H   UNL     1       1.369  -4.899  -6.129  0.00  0.00    -0.086 HD
ATOM     14  H   UNL     1       2.519  -6.012  -6.513  0.00  0.00    -0.086 HD
ENDROOT
BRANCH  11  15
ATOM     15  C   UNL     1       0.992  -7.258   1.190  0.00  0.00    +0.296 C 
ATOM     16  C   UNL     1       1.747  -6.354   2.173  0.00  0.00    +0.283 C 
ATOM     17  O   UNL     1       1.052  -6.374   3.425  0.00  0.00    -0.484 OA
ATOM     18  C   UNL     1       0.670  -7.594   3.893  0.00  0.00    +0.162 A 
ATOM     19  C   UNL     1       0.329  -7.734   5.230  0.00  0.00    +0.049 A 
ATOM     20  C   UNL     1      -0.063  -8.966   5.719  0.00  0.00    +0.004 A 
ATOM     21  C   UNL     1      -0.118 -10.061   4.877  0.00  0.00    +0.004 A 
ATOM     22  C   UNL     1       0.222  -9.928   3.544  0.00  0.00    +0.049 A 
ATOM     23  C   UNL     1       0.618  -8.696   3.047  0.00  0.00    +0.163 A 
ATOM     24  O   UNL     1       0.956  -8.582   1.733  0.00  0.00    -0.473 OA
ENDBRANCH  11  15
BRANCH   1  26
ATOM     25  N   UNL     1       0.117  -2.028  -2.760  0.00  0.00    -0.312 N 
ATOM     26  C   UNL     1       0.934  -2.793  -2.009  0.00  0.00    +0.218 C 
ATOM     27  O   UNL     1       1.869  -2.289  -1.424  0.00  0.00    -0.275 OA
ATOM     28  H   UNL     1      -0.631  -2.432  -3.227  0.00  0.00    +0.149 HD
BRANCH  25  29
ATOM     29  C   UNL     1       0.359  -0.588  -2.869  0.00  0.00    +0.148 C 
BRANCH  29  31
ATOM     30  C   UNL     1      -0.380   1.520  -3.989  0.00  0.00    +0.053 C 
ATOM     31  C   UNL     1      -0.704   0.041  -3.773  0.00  0.00    +0.187 C 
BRANCH  31  32
ATOM     32  O   UNL     1      -1.987  -0.081  -3.156  0.00  0.00    -0.488 OA
BRANCH  32  33
ATOM     33  C   UNL     1      -3.071  -0.058  -3.976  0.00  0.00    +0.121 A 
ATOM     34  C   UNL     1      -2.911   0.193  -5.331  0.00  0.00    +0.048 A 
ATOM     35  C   UNL     1      -4.014   0.217  -6.163  0.00  0.00    +0.042 A 
ATOM     36  C   UNL     1      -5.278  -0.009  -5.645  0.00  0.00    +0.124 A 
ATOM     37  C   UNL     1      -5.439  -0.258  -4.292  0.00  0.00    +0.042 A 
ATOM     38  C   UNL     1      -4.337  -0.289  -3.459  0.00  0.00    +0.048 A 
ATOM     39  F   UNL     1      -6.355   0.015  -6.459  0.00  0.00    -0.205 F 
ENDBRANCH  32  33
ENDBRANCH  31  32
ENDBRANCH  29  31
ENDBRANCH  25  29
ENDBRANCH   1  26
TORSDOF 6
