REMARK  Name = ZINC36853536
REMARK  2 active torsions:
REMARK  status: ('A' for Active; 'I' for Inactive)
REMARK    1  A    between atoms: C_3  and  N_9
REMARK    2  A    between atoms: N_9  and  C_10
REMARK                            x       y       z     vdW  Elec       q    Type
REMARK                         _______ _______ _______ _____ _____    ______ ____
ROOT
ATOM      1  N   UNL     1       3.583   2.128  -0.021  0.00  0.00    -0.330 N 
ATOM      2  H   UNL     1       4.430   1.654  -0.032  0.00  0.00    +0.147 HD
ENDROOT
BRANCH   1   5
ATOM      3  C   UNL     1      -0.017   1.379   0.010  0.00  0.00    +0.017 A 
ATOM      4  C   UNL     1       1.169   2.088   0.002  0.00  0.00    +0.027 A 
ATOM      5  C   UNL     1       2.381   1.412  -0.013  0.00  0.00    +0.063 A 
ATOM      6  C   UNL     1       2.398   0.021  -0.021  0.00  0.00    +0.145 A 
ATOM      7  C   UNL     1       1.208  -0.683  -0.013  0.00  0.00    +0.055 A 
ATOM      8  C   UNL     1       0.002  -0.004   0.002  0.00  0.00    +0.021 A 
ATOM      9 BR   UNL     1      -1.624  -0.970   0.013  0.00  0.00    -0.050 Br
ATOM     10  F   UNL     1       3.576  -0.641  -0.036  0.00  0.00    -0.204 F 
ENDBRANCH   1   5
BRANCH   1  11
ATOM     11  C   UNL     1       3.563   3.592  -0.014  0.00  0.00    +0.166 C 
ATOM     12  C   UNL     1       4.892   4.150   0.537  0.00  0.00    +0.127 C 
ATOM     13  C   UNL     1       5.450   4.946  -0.623  0.00  0.00    +0.221 C 
ATOM     14  O   UNL     1       6.497   5.557  -0.616  0.00  0.00    -0.275 OA
ATOM     15  N   UNL     1       4.605   4.867  -1.658  0.00  0.00    -0.255 N 
ATOM     16  C   UNL     1       3.507   4.132  -1.426  0.00  0.00    +0.240 C 
ATOM     17  O   UNL     1       2.613   3.929  -2.220  0.00  0.00    -0.273 OA
ATOM     18  H   UNL     1       4.772   5.308  -2.506  0.00  0.00    +0.158 HD
ENDBRANCH   1  11
TORSDOF 2
