REMARK  Name = ZINC42269038
REMARK  8 active torsions:
REMARK  status: ('A' for Active; 'I' for Inactive)
REMARK    1  A    between atoms: C_1  and  C_2
REMARK    2  A    between atoms: C_2  and  C_3
REMARK    3  A    between atoms: C_3  and  C_5
REMARK    4  A    between atoms: C_3  and  N_6
REMARK    5  A    between atoms: N_6  and  C_7
REMARK    6  A    between atoms: C_8  and  C_10
REMARK    7  A    between atoms: C_12  and  N_17
REMARK    8  A    between atoms: C_14  and  N_16
REMARK                            x       y       z     vdW  Elec       q    Type
REMARK                         _______ _______ _______ _____ _____    ______ ____
ROOT
ATOM      1  C   UNL     1      -3.804   1.101   2.458  0.00  0.00    +0.040 A 
ATOM      2  C   UNL     1      -3.006   1.446   3.550  0.00  0.00    +0.036 A 
ATOM      3  C   UNL     1      -3.594   1.910   4.717  0.00  0.00    +0.027 A 
ATOM      4  C   UNL     1      -4.975   2.032   4.801  0.00  0.00    +0.045 A 
ATOM      5  C   UNL     1      -5.772   1.689   3.717  0.00  0.00    +0.027 A 
ATOM      6  C   UNL     1      -5.191   1.230   2.544  0.00  0.00    +0.036 A 
ENDROOT
BRANCH   1   9
ATOM      7  N   UNL     1      -2.076  -0.163   1.270  0.00  0.00    -0.298 N 
ATOM      8  C   UNL     1      -1.565  -0.615   2.567  0.00  0.00    +0.132 C 
ATOM      9  C   UNL     1      -3.182   0.606   1.212  0.00  0.00    +0.247 C 
ATOM     10  O   UNL     1      -3.667   0.892   0.135  0.00  0.00    -0.270 OA
BRANCH   7  11
ATOM     11  C   UNL     1      -1.385  -0.547   0.037  0.00  0.00    +0.073 C 
ATOM     12  C   UNL     1      -1.367  -2.072  -0.084  0.00  0.00    +0.028 C 
BRANCH  11  14
ATOM     13  C   UNL     1       0.034   1.509   0.066  0.00  0.00    +0.005 C 
ATOM     14  C   UNL     1       0.051  -0.021   0.071  0.00  0.00    +0.019 C 
ENDBRANCH  11  14
ENDBRANCH   7  11
ENDBRANCH   1   9
BRANCH   5  15
ATOM     15  N   UNL     1      -7.161   1.813   3.805  0.00  0.00    -0.358 N 
ATOM     16  H   UNL     1      -7.567   2.138   4.624  0.00  0.00    +0.142 HD
ATOM     17  H   UNL     1      -7.718   1.574   3.048  0.00  0.00    +0.142 HD
ENDBRANCH   5  15
BRANCH   3  18
ATOM     18  N   UNL     1      -2.796   2.255   5.810  0.00  0.00    -0.358 N 
ATOM     19  H   UNL     1      -1.831   2.170   5.753  0.00  0.00    +0.142 HD
ATOM     20  H   UNL     1      -3.206   2.580   6.627  0.00  0.00    +0.142 HD
ENDBRANCH   3  18
TORSDOF 5
