REMARK  Name = ZINC16022116
REMARK  7 active torsions:
REMARK  status: ('A' for Active; 'I' for Inactive)
REMARK    1  A    between atoms: C_1  and  O_2
REMARK    2  A    between atoms: O_2  and  C_3
REMARK    3  A    between atoms: C_3  and  C_4
REMARK    4  A    between atoms: C_4  and  N_5
REMARK    5  A    between atoms: C_10  and  C_27
REMARK    6  A    between atoms: C_27  and  C_28
REMARK    7  A    between atoms: C_31  and  O_34
REMARK                            x       y       z     vdW  Elec       q    Type
REMARK                         _______ _______ _______ _____ _____    ______ ____
ROOT
ATOM      1  N   UNL     1      -0.776  -2.556  -1.119  0.00  0.00    -0.239 N 
ATOM      2  C   UNL     1      -1.550  -2.704  -0.038  0.00  0.00    +0.227 C 
ATOM      3  O   UNL     1      -1.209  -2.482   1.104  0.00  0.00    -0.275 OA
ATOM      4  C   UNL     1      -2.918  -3.191  -0.462  0.00  0.00    +0.107 C 
ATOM      5  C   UNL     1      -3.114  -4.640   0.034  0.00  0.00    +0.072 C 
ATOM      6  N   UNL     1      -3.671  -5.371  -1.135  0.00  0.00    -0.295 NA
ATOM      7  C   UNL     1      -2.945  -4.812  -2.291  0.00  0.00    +0.136 C 
ATOM      8  C   UNL     1      -2.796  -3.296  -2.008  0.00  0.00    +0.122 C 
ATOM      9  C   UNL     1      -1.375  -2.856  -2.277  0.00  0.00    +0.228 C 
ATOM     10  O   UNL     1      -0.858  -2.788  -3.371  0.00  0.00    -0.275 OA
ATOM     11  C   UNL     1      -3.683  -5.058  -3.575  0.00  0.00    +0.003 A 
ATOM     12  C   UNL     1      -4.935  -4.711  -4.031  0.00  0.00    +0.008 A 
ATOM     13  C   UNL     1      -5.343  -5.096  -5.296  0.00  0.00    +0.000 A 
ATOM     14  C   UNL     1      -4.490  -5.828  -6.101  0.00  0.00    +0.002 A 
ATOM     15  C   UNL     1      -3.234  -6.177  -5.650  0.00  0.00    +0.023 A 
ATOM     16  C   UNL     1      -2.816  -5.795  -4.377  0.00  0.00    +0.039 A 
ATOM     17  N   UNL     1      -1.613  -6.022  -3.705  0.00  0.00    -0.283 N 
ATOM     18  C   UNL     1      -1.608  -5.477  -2.473  0.00  0.00    +0.243 C 
ATOM     19  O   UNL     1      -0.702  -5.516  -1.668  0.00  0.00    -0.273 OA
ATOM     20  H   UNL     1      -3.509  -6.363  -1.052  0.00  0.00    +0.124 HD
ATOM     21  H   UNL     1      -0.867  -6.514  -4.082  0.00  0.00    +0.155 HD
ENDROOT
BRANCH   1  22
ATOM     22  C   UNL     1       0.613  -2.097  -1.041  0.00  0.00    +0.144 C 
BRANCH  22  23
ATOM     23  C   UNL     1       0.652  -0.570  -1.138  0.00  0.00    +0.179 C 
BRANCH  23  25
ATOM     24  C   UNL     1      -0.017   1.425   0.010  0.00  0.00    +0.194 C 
ATOM     25  O   UNL     1       0.002  -0.004   0.002  0.00  0.00    -0.381 OA
ENDBRANCH  23  25
ENDBRANCH  22  23
ENDBRANCH   1  22
BRANCH   5  26
ATOM     26  C   UNL     1      -4.099  -4.673   1.204  0.00  0.00    +0.054 C 
BRANCH  26  27
ATOM     27  C   UNL     1      -4.183  -6.075   1.751  0.00  0.00    -0.046 A 
ATOM     28  C   UNL     1      -5.111  -6.962   1.238  0.00  0.00    +0.007 A 
ATOM     29  C   UNL     1      -5.190  -8.247   1.738  0.00  0.00    +0.045 A 
ATOM     30  C   UNL     1      -4.336  -8.648   2.755  0.00  0.00    +0.117 A 
ATOM     31  C   UNL     1      -3.405  -7.756   3.268  0.00  0.00    +0.045 A 
ATOM     32  C   UNL     1      -3.327  -6.473   2.761  0.00  0.00    +0.007 A 
BRANCH  30  33
ATOM     33  O   UNL     1      -4.412  -9.912   3.249  0.00  0.00    -0.507 OA
ATOM     34  H   UNL     1      -3.845 -10.547   2.792  0.00  0.00    +0.292 HD
ENDBRANCH  30  33
ENDBRANCH  26  27
ENDBRANCH   5  26
TORSDOF 6
