REMARK  Name = ZINC47809755
REMARK  7 active torsions:
REMARK  status: ('A' for Active; 'I' for Inactive)
REMARK    1  A    between atoms: C_1  and  C_2
REMARK    2  A    between atoms: C_6  and  C_7
REMARK    3  A    between atoms: C_7  and  N_8
REMARK    4  A    between atoms: N_11  and  C_12
REMARK    5  A    between atoms: C_17  and  N_18
REMARK    6  A    between atoms: C_20  and  C_27
REMARK    7  A    between atoms: C_23  and  C_26
REMARK                            x       y       z     vdW  Elec       q    Type
REMARK                         _______ _______ _______ _____ _____    ______ ____
ROOT
ATOM      1  C   UNL     1      -3.159   0.945   6.048  0.00  0.00    +0.056 A 
ATOM      2  C   UNL     1      -2.140   1.294   6.921  0.00  0.00    +0.025 A 
ATOM      3  C   UNL     1      -2.439   1.670   8.218  0.00  0.00    +0.002 A 
ATOM      4  C   UNL     1      -3.753   1.698   8.648  0.00  0.00    +0.002 A 
ATOM      5  C   UNL     1      -4.775   1.350   7.785  0.00  0.00    +0.025 A 
ATOM      6  C   UNL     1      -4.484   0.979   6.480  0.00  0.00    +0.051 A 
ENDROOT
BRANCH   6   7
ATOM      7  N   UNL     1      -5.517   0.633   5.603  0.00  0.00    -0.324 N 
ATOM      8  C   UNL     1      -5.992  -0.756   5.500  0.00  0.00    +0.136 C 
ATOM      9  C   UNL     1      -7.518  -0.757   5.638  0.00  0.00    +0.133 C 
ATOM     10  O   UNL     1      -8.076   0.174   4.708  0.00  0.00    -0.371 OA
ATOM     11  C   UNL     1      -7.681   1.530   4.929  0.00  0.00    +0.133 C 
ATOM     12  C   UNL     1      -6.166   1.649   4.759  0.00  0.00    +0.136 C 
ATOM     13  C   UNL     1      -8.067   1.950   6.348  0.00  0.00    +0.039 C 
ATOM     14  C   UNL     1      -8.057  -2.159   5.345  0.00  0.00    +0.039 C 
ENDBRANCH   6   7
BRANCH   1  18
ATOM     15  N   UNL     1      -1.482  -0.568   3.224  0.00  0.00    -0.295 N 
ATOM     16  C   UNL     1      -1.728  -0.123   4.473  0.00  0.00    +0.304 C 
ATOM     17  O   UNL     1      -0.930  -0.342   5.364  0.00  0.00    -0.252 OA
ATOM     18  N   UNL     1      -2.857   0.564   4.733  0.00  0.00    -0.268 N 
ATOM     19  H   UNL     1      -2.118  -0.393   2.513  0.00  0.00    +0.151 HD
ATOM     20  H   UNL     1      -3.462   0.794   4.011  0.00  0.00    +0.156 HD
BRANCH  15  21
ATOM     21  C   UNL     1      -0.254  -1.315   2.941  0.00  0.00    +0.148 C 
BRANCH  21  27
ATOM     22  C   UNL     1       0.948   0.335   0.644  0.00  0.00    +0.044 C 
ATOM     23  C   UNL     1       0.294  -1.007   0.434  0.00  0.00    -0.039 A 
ATOM     24  C   UNL     1       0.215  -1.558  -0.832  0.00  0.00    +0.011 A 
ATOM     25  C   UNL     1      -0.379  -2.766  -0.987  0.00  0.00    +0.046 A 
ATOM     26  S   UNL     1      -0.853  -3.162   0.688  0.00  0.00    -0.100 S 
ATOM     27  C   UNL     1      -0.221  -1.694   1.483  0.00  0.00    +0.010 A 
ENDBRANCH  21  27
ENDBRANCH  15  21
ENDBRANCH   1  18
TORSDOF 4
