REMARK  Name = ZINC61843555
REMARK  5 active torsions:
REMARK  status: ('A' for Active; 'I' for Inactive)
REMARK    1  A    between atoms: C_1  and  C_2
REMARK    2  A    between atoms: C_3  and  C_19
REMARK    3  A    between atoms: C_7  and  N_11
REMARK    4  A    between atoms: C_14  and  C_16
REMARK    5  A    between atoms: C_16  and  N_18
REMARK                            x       y       z     vdW  Elec       q    Type
REMARK                         _______ _______ _______ _____ _____    ______ ____
ROOT
ATOM      1  C   UNL     1      -0.319   1.496   0.056  0.00  0.00    +0.045 C 
ATOM      2  C   UNL     1      -0.270  -0.011   0.043  0.00  0.00    -0.028 A 
ATOM      3  C   UNL     1      -0.473  -0.686  -1.098  0.00  0.00    -0.008 A 
ATOM      4  S   UNL     1      -0.316  -2.393  -0.606  0.00  0.00    -0.074 S 
ATOM      5  C   UNL     1       0.018  -2.154   1.119  0.00  0.00    +0.114 A 
ATOM      6  C   UNL     1       0.005  -0.747   1.264  0.00  0.00    +0.055 A 
ATOM      7  C   UNL     1       0.256  -0.268   2.577  0.00  0.00    +0.167 A 
ATOM      8  N   UNL     1       0.483  -1.136   3.547  0.00  0.00    -0.216 NA
ATOM      9  C   UNL     1       0.486  -2.440   3.339  0.00  0.00    +0.224 A 
ATOM     10  N   UNL     1       0.249  -2.947   2.144  0.00  0.00    -0.228 NA
ATOM     11  C   UNL     1      -0.765  -0.134  -2.469  0.00  0.00    +0.052 C 
ENDROOT
BRANCH   7  12
ATOM     12  N   UNL     1       0.262   1.101   2.839  0.00  0.00    -0.201 N 
ATOM     13  C   UNL     1      -0.614   1.781   3.611  0.00  0.00    +0.227 A 
ATOM     14  N   UNL     1      -0.272   3.040   3.607  0.00  0.00    -0.213 NA
ATOM     15  C   UNL     1       0.820   3.213   2.845  0.00  0.00    +0.203 A 
ATOM     16  N   UNL     1       1.185   2.045   2.358  0.00  0.00    -0.142 NA
BRANCH  15  17
ATOM     17  C   UNL     1       1.501   4.499   2.598  0.00  0.00    +0.116 C 
ATOM     18  S   UNL     1       2.889   4.554   1.597  0.00  0.00    -0.032 S 
BRANCH  17  19
ATOM     19  N   UNL     1       1.032   5.630   3.161  0.00  0.00    -0.349 N 
ATOM     20  H   UNL     1       0.245   5.599   3.729  0.00  0.00    +0.143 HD
ATOM     21  H   UNL     1       1.480   6.475   2.999  0.00  0.00    +0.143 HD
ENDBRANCH  17  19
ENDBRANCH  15  17
ENDBRANCH   7  12
TORSDOF 3
