REMARK  Name = ZINC48513385
REMARK  3 active torsions:
REMARK  status: ('A' for Active; 'I' for Inactive)
REMARK    1  A    between atoms: C_5  and  N_7
REMARK    2  A    between atoms: N_10  and  C_11
REMARK    3  A    between atoms: C_11  and  C_12
REMARK                            x       y       z     vdW  Elec       q    Type
REMARK                         _______ _______ _______ _____ _____    ______ ____
ROOT
ATOM      1  N   UNL     1       1.237  -2.080  -0.021  0.00  0.00    -0.268 N 
ATOM      2  C   UNL     1       0.086  -2.773   0.088  0.00  0.00    +0.304 C 
ATOM      3  O   UNL     1      -0.978  -2.186   0.102  0.00  0.00    -0.252 OA
ATOM      4  N   UNL     1       0.115  -4.117   0.182  0.00  0.00    -0.295 N 
ATOM      5  H   UNL     1       2.079  -2.551  -0.115  0.00  0.00    +0.156 HD
ATOM      6  H   UNL     1       0.964  -4.586   0.170  0.00  0.00    +0.151 HD
ENDROOT
BRANCH   1  11
ATOM      7  C   UNL     1       0.154   1.371   0.643  0.00  0.00    +0.002 A 
ATOM      8  C   UNL     1       1.174   2.086   0.042  0.00  0.00    +0.001 A 
ATOM      9  C   UNL     1       2.214   1.422  -0.581  0.00  0.00    +0.017 A 
ATOM     10  C   UNL     1       2.239   0.040  -0.604  0.00  0.00    +0.039 A 
ATOM     11  C   UNL     1       1.216  -0.681  -0.000  0.00  0.00    +0.049 A 
ATOM     12  C   UNL     1       0.172  -0.010   0.624  0.00  0.00    +0.024 A 
ATOM     13 BR   UNL     1       3.662  -0.868  -1.456  0.00  0.00    -0.048 Br
ENDBRANCH   1  11
BRANCH   4  14
ATOM     14  C   UNL     1      -1.136  -4.870   0.300  0.00  0.00    +0.142 C 
BRANCH  14  15
ATOM     15  C   UNL     1      -0.829  -6.343   0.389  0.00  0.00    -0.014 A 
ATOM     16  C   UNL     1      -0.948  -7.142  -0.733  0.00  0.00    +0.044 A 
ATOM     17  C   UNL     1      -0.666  -8.495  -0.652  0.00  0.00    +0.124 A 
ATOM     18  C   UNL     1      -0.265  -9.047   0.553  0.00  0.00    +0.039 A 
ATOM     19  C   UNL     1      -0.147  -8.247   1.674  0.00  0.00    +0.018 A 
ATOM     20  C   UNL     1      -0.423  -6.894   1.591  0.00  0.00    +0.023 A 
ATOM     21 BR   UNL     1      -0.253  -5.799   3.123  0.00  0.00    -0.050 Br
ATOM     22  F   UNL     1      -0.782  -9.277  -1.748  0.00  0.00    -0.205 F 
ENDBRANCH  14  15
ENDBRANCH   4  14
TORSDOF 3
