REMARK  Name = ZINC13303344
REMARK  6 active torsions:
REMARK  status: ('A' for Active; 'I' for Inactive)
REMARK    1  A    between atoms: C_4  and  C_7
REMARK    2  A    between atoms: C_7  and  C_9
REMARK    3  A    between atoms: C_11  and  C_23
REMARK    4  A    between atoms: C_17  and  C_18
REMARK    5  A    between atoms: C_17  and  O_22
REMARK    6  A    between atoms: C_28  and  C_29
REMARK                            x       y       z     vdW  Elec       q    Type
REMARK                         _______ _______ _______ _____ _____    ______ ____
ROOT
ATOM      1  C   UNL     1       0.152   1.134  -0.155  0.00  0.00    +0.144 C 
ATOM      2  C   UNL     1       0.161  -0.351   0.221  0.00  0.00    +0.120 C 
ATOM      3  N   UNL     1       0.810  -1.114  -0.847  0.00  0.00    -0.292 N 
ATOM      4  C   UNL     1       1.760  -0.564  -1.618  0.00  0.00    +0.302 C 
ATOM      5  O   UNL     1       2.275  -1.244  -2.485  0.00  0.00    -0.253 OA
ATOM      6  N   UNL     1       2.164   0.707  -1.472  0.00  0.00    -0.264 N 
ATOM      7  C   UNL     1       1.592   1.574  -0.440  0.00  0.00    +0.243 C 
ATOM      8  H   UNL     1       0.549  -2.035  -0.999  0.00  0.00    +0.151 HD
ATOM      9  H   UNL     1       2.848   1.059  -2.062  0.00  0.00    +0.153 HD
ENDROOT
BRANCH   2  10
ATOM     10  C   UNL     1      -1.256  -0.835   0.397  0.00  0.00    -0.015 A 
ATOM     11  C   UNL     1      -1.940  -1.374  -0.677  0.00  0.00    +0.006 A 
ATOM     12  C   UNL     1      -3.239  -1.817  -0.515  0.00  0.00    +0.000 A 
ATOM     13  C   UNL     1      -3.854  -1.723   0.720  0.00  0.00    +0.001 A 
ATOM     14  C   UNL     1      -3.169  -1.185   1.793  0.00  0.00    +0.013 A 
ATOM     15  C   UNL     1      -1.868  -0.746   1.633  0.00  0.00    +0.060 A 
BRANCH  15  16
ATOM     16  C   UNL     1      -1.119  -0.164   2.804  0.00  0.00    +0.418 C 
ATOM     17  F   UNL     1      -1.936  -0.193   3.940  0.00  0.00    -0.166 F 
ATOM     18  F   UNL     1       0.035  -0.918   3.041  0.00  0.00    -0.166 F 
ATOM     19  F   UNL     1      -0.762   1.158   2.520  0.00  0.00    -0.166 F 
ENDBRANCH  15  16
ENDBRANCH   2  10
BRANCH   7  20
ATOM     20  C   UNL     1       1.596   3.023  -0.930  0.00  0.00    +0.436 C 
ATOM     21  F   UNL     1       0.923   3.830  -0.006  0.00  0.00    -0.166 F 
ATOM     22  F   UNL     1       2.917   3.467  -1.061  0.00  0.00    -0.166 F 
ATOM     23  F   UNL     1       0.954   3.099  -2.170  0.00  0.00    -0.166 F 
ENDBRANCH   7  20
BRANCH   1  24
ATOM     24  C   UNL     1      -0.693   1.339  -1.387  0.00  0.00    +0.173 C 
ATOM     25  O   UNL     1      -0.367   0.827  -2.437  0.00  0.00    -0.292 OA
BRANCH  24  29
ATOM     26  C   UNL     1      -4.208   3.704  -1.179  0.00  0.00    +0.000 A 
ATOM     27  C   UNL     1      -3.903   3.025  -2.346  0.00  0.00    +0.001 A 
ATOM     28  C   UNL     1      -2.762   2.254  -2.421  0.00  0.00    +0.011 A 
ATOM     29  C   UNL     1      -1.912   2.159  -1.315  0.00  0.00    +0.018 A 
ATOM     30  C   UNL     1      -2.230   2.844  -0.137  0.00  0.00    +0.011 A 
ATOM     31  C   UNL     1      -3.372   3.614  -0.079  0.00  0.00    +0.001 A 
ENDBRANCH  24  29
ENDBRANCH   1  24
BRANCH   7  32
ATOM     32  O   UNL     1       2.368   1.470   0.755  0.00  0.00    -0.364 OA
ATOM     33  H   UNL     1       3.292   1.733   0.648  0.00  0.00    +0.212 HD
ENDBRANCH   7  32
TORSDOF 6
