REMARK  Name = ZINC37055361
REMARK  6 active torsions:
REMARK  status: ('A' for Active; 'I' for Inactive)
REMARK    1  A    between atoms: C_1  and  C_2
REMARK    2  A    between atoms: C_5  and  N_22
REMARK    3  A    between atoms: C_6  and  S_9
REMARK    4  A    between atoms: C_7  and  C_8
REMARK    5  A    between atoms: S_9  and  N_12
REMARK    6  A    between atoms: C_16  and  C_19
REMARK                            x       y       z     vdW  Elec       q    Type
REMARK                         _______ _______ _______ _____ _____    ______ ____
ROOT
ATOM      1  S   UNL     1      -0.386  -3.192   2.558  0.00  0.00    +0.063 S 
ATOM      2  O   UNL     1      -1.095  -2.239   3.337  0.00  0.00    -0.153 OA
ATOM      3  O   UNL     1      -0.880  -4.503   2.322  0.00  0.00    -0.153 OA
ENDROOT
BRANCH   1   9
ATOM      4  C   UNL     1      -0.041   0.989  -0.558  0.00  0.00    +0.044 C 
ATOM      5  C   UNL     1       0.017  -0.509  -0.407  0.00  0.00    -0.046 A 
ATOM      6  C   UNL     1       0.271  -1.304  -1.509  0.00  0.00    +0.005 A 
ATOM      7  C   UNL     1       0.326  -2.678  -1.374  0.00  0.00    +0.025 A 
ATOM      8  C   UNL     1       0.125  -3.260  -0.129  0.00  0.00    +0.052 A 
ATOM      9  C   UNL     1      -0.130  -2.458   0.976  0.00  0.00    +0.129 A 
ATOM     10  C   UNL     1      -0.177  -1.085   0.835  0.00  0.00    -0.019 A 
ATOM     11  C   UNL     1      -0.448  -0.214   2.035  0.00  0.00    +0.046 C 
BRANCH   8  12
ATOM     12  N   UNL     1       0.178  -4.649   0.011  0.00  0.00    -0.356 N 
ATOM     13  H   UNL     1       0.152  -5.217  -0.774  0.00  0.00    +0.142 HD
ATOM     14  H   UNL     1       0.242  -5.045   0.894  0.00  0.00    +0.142 HD
ENDBRANCH   8  12
ENDBRANCH   1   9
BRANCH   1  15
ATOM     15  N   UNL     1       1.102  -3.366   3.263  0.00  0.00    -0.176 NA
ATOM     16  C   UNL     1       1.940  -4.535   2.963  0.00  0.00    +0.109 C 
ATOM     17  C   UNL     1       3.318  -4.050   2.504  0.00  0.00    +0.018 C 
ATOM     18  C   UNL     1       3.903  -3.112   3.563  0.00  0.00    +0.015 C 
ATOM     19  C   UNL     1       2.992  -1.894   3.728  0.00  0.00    +0.090 C 
ATOM     20  C   UNL     1       1.612  -2.353   4.196  0.00  0.00    +0.122 C 
BRANCH  19  21
ATOM     21  C   UNL     1       3.586  -0.956   4.747  0.00  0.00    +0.215 C 
ATOM     22  O   UNL     1       2.965  -0.680   5.751  0.00  0.00    -0.276 OA
ATOM     23  N   UNL     1       4.806  -0.423   4.541  0.00  0.00    -0.329 N 
ATOM     24  H   UNL     1       5.303  -0.644   3.738  0.00  0.00    +0.145 HD
ATOM     25  H   UNL     1       5.189   0.181   5.197  0.00  0.00    +0.145 HD
ENDBRANCH  19  21
ENDBRANCH   1  15
TORSDOF 4
