REMARK  Name = ZINC48386675
REMARK  7 active torsions:
REMARK  status: ('A' for Active; 'I' for Inactive)
REMARK    1  A    between atoms: C_1  and  C_2
REMARK    2  A    between atoms: N_4  and  C_5
REMARK    3  A    between atoms: C_8  and  N_13
REMARK    4  A    between atoms: C_10  and  O_11
REMARK    5  A    between atoms: O_11  and  C_12
REMARK    6  A    between atoms: N_16  and  C_17
REMARK    7  A    between atoms: C_17  and  C_18
REMARK                            x       y       z     vdW  Elec       q    Type
REMARK                         _______ _______ _______ _____ _____    ______ ____
ROOT
ATOM      1  C   UNL     1      -1.175  -2.092  -0.112  0.00  0.00    +0.076 A 
ATOM      2  C   UNL     1       0.004  -2.823  -0.119  0.00  0.00    +0.029 A 
ATOM      3  C   UNL     1      -0.036  -4.200  -0.209  0.00  0.00    +0.025 A 
ATOM      4  C   UNL     1      -1.257  -4.857  -0.291  0.00  0.00    +0.038 A 
ATOM      5  C   UNL     1      -2.439  -4.129  -0.284  0.00  0.00    +0.070 A 
ATOM      6  C   UNL     1      -2.401  -2.748  -0.188  0.00  0.00    +0.143 A 
ENDROOT
BRANCH   4   7
ATOM      7  N   UNL     1      -1.296  -6.254  -0.382  0.00  0.00    -0.269 N 
ATOM      8  C   UNL     1      -0.383  -6.998   0.274  0.00  0.00    +0.304 C 
ATOM      9  O   UNL     1       0.523  -6.456   0.877  0.00  0.00    -0.252 OA
ATOM     10  N   UNL     1      -0.474  -8.342   0.261  0.00  0.00    -0.295 N 
ATOM     11  H   UNL     1      -1.980  -6.687  -0.917  0.00  0.00    +0.156 HD
ATOM     12  H   UNL     1      -1.197  -8.775  -0.220  0.00  0.00    +0.151 HD
BRANCH  10  13
ATOM     13  C   UNL     1       0.518  -9.151   0.974  0.00  0.00    +0.148 C 
BRANCH  13  14
ATOM     14  C   UNL     1       0.192 -10.612   0.804  0.00  0.00    +0.008 A 
ATOM     15  C   UNL     1       0.608 -11.473  -0.156  0.00  0.00    +0.014 A 
ATOM     16  C   UNL     1       0.176 -12.786  -0.112  0.00  0.00    +0.023 A 
ATOM     17  C   UNL     1      -0.652 -13.172   0.891  0.00  0.00    +0.055 A 
ATOM     18  S   UNL     1      -0.837 -11.659   1.820  0.00  0.00    -0.085 S 
ATOM     19 BR   UNL     1      -1.407 -14.874   1.222  0.00  0.00    -0.043 Br
ENDBRANCH  13  14
ENDBRANCH  10  13
ENDBRANCH   4   7
BRANCH   1  23
ATOM     20  C   UNL     1      -0.140   1.498  -0.603  0.00  0.00    +0.109 C 
ATOM     21  C   UNL     1      -0.131  -0.009  -0.612  0.00  0.00    +0.214 C 
ATOM     22  O   UNL     1       0.776  -0.607  -1.150  0.00  0.00    -0.276 OA
ATOM     23  N   UNL     1      -1.132  -0.692  -0.022  0.00  0.00    -0.283 N 
ATOM     24  H   UNL     1      -1.823  -0.216   0.465  0.00  0.00    +0.155 HD
ENDBRANCH   1  23
BRANCH   6  25
ATOM     25  O   UNL     1      -3.558  -2.034  -0.175  0.00  0.00    -0.493 OA
ATOM     26  C   UNL     1      -4.778  -2.773  -0.256  0.00  0.00    +0.277 C 
ENDBRANCH   6  25
TORSDOF 5
