REMARK  Name = ZINC54219758
REMARK  9 active torsions:
REMARK  status: ('A' for Active; 'I' for Inactive)
REMARK    1  A    between atoms: C_1  and  C_2
REMARK    2  A    between atoms: C_8  and  N_10
REMARK    3  A    between atoms: N_10  and  C_11
REMARK    4  A    between atoms: C_11  and  N_13
REMARK    5  A    between atoms: N_13  and  N_14
REMARK    6  A    between atoms: C_15  and  C_17
REMARK    7  A    between atoms: C_18  and  C_19
REMARK    8  A    between atoms: N_21  and  C_28
REMARK    9  A    between atoms: N_24  and  C_27
REMARK                            x       y       z     vdW  Elec       q    Type
REMARK                         _______ _______ _______ _____ _____    ______ ____
ROOT
ATOM      1  N   UNL     1      -1.250   0.867   4.659  0.00  0.00    -0.232 N 
ATOM      2  C   UNL     1      -1.884   1.290   5.770  0.00  0.00    +0.253 C 
ATOM      3  O   UNL     1      -1.271   1.401   6.816  0.00  0.00    -0.269 OA
ATOM      4  H   UNL     1      -1.738   0.779   3.825  0.00  0.00    +0.173 HD
ENDROOT
BRANCH   1   5
ATOM      5  N   UNL     1       0.115   0.554   4.708  0.00  0.00    -0.246 N 
ATOM      6  H   UNL     1       0.603   0.642   5.541  0.00  0.00    +0.172 HD
BRANCH   5   7
ATOM      7  C   UNL     1       0.749   0.130   3.597  0.00  0.00    +0.147 C 
ATOM      8  S   UNL     1       2.417  -0.252   3.656  0.00  0.00    -0.017 S 
BRANCH   7   9
ATOM      9  N   UNL     1       0.071   0.007   2.439  0.00  0.00    -0.322 N 
ATOM     10  H   UNL     1      -0.874   0.224   2.405  0.00  0.00    +0.148 HD
BRANCH   9  17
ATOM     11  C   UNL     1      -0.001   1.593   0.016  0.00  0.00    +0.009 C 
ATOM     12  C   UNL     1       0.023   0.064  -0.006  0.00  0.00    +0.006 C 
ATOM     13  C   UNL     1      -1.412  -0.469  -0.003  0.00  0.00    +0.005 C 
ATOM     14  C   UNL     1      -1.388  -1.998  -0.025  0.00  0.00    +0.000 C 
ATOM     15  C   UNL     1      -0.650  -2.515   1.212  0.00  0.00    +0.002 C 
ATOM     16  C   UNL     1       0.784  -1.983   1.209  0.00  0.00    +0.022 C 
ATOM     17  C   UNL     1       0.760  -0.453   1.231  0.00  0.00    +0.075 C 
ENDBRANCH   9  17
ENDBRANCH   7   9
ENDBRANCH   5   7
ENDBRANCH   1   5
BRANCH   2  18
ATOM     18  C   UNL     1      -3.264   1.607   5.721  0.00  0.00    +0.069 C 
ATOM     19  C   UNL     1      -3.901   2.032   6.836  0.00  0.00    +0.020 C 
BRANCH  19  20
ATOM     20  C   UNL     1      -5.298   2.466   6.761  0.00  0.00    +0.056 A 
ATOM     21  C   UNL     1      -5.935   3.011   7.862  0.00  0.00    +0.103 A 
ATOM     22  N   UNL     1      -7.232   3.402   7.754  0.00  0.00    -0.303 N 
ATOM     23  C   UNL     1      -7.911   3.271   6.604  0.00  0.00    +0.331 A 
ATOM     24  O   UNL     1      -9.070   3.636   6.560  0.00  0.00    -0.246 OA
ATOM     25  N   UNL     1      -7.352   2.750   5.498  0.00  0.00    -0.264 N 
ATOM     26  C   UNL     1      -6.066   2.339   5.510  0.00  0.00    +0.263 A 
ATOM     27  O   UNL     1      -5.554   1.871   4.511  0.00  0.00    -0.267 OA
ATOM     28  C   UNL     1      -8.142   2.631   4.271  0.00  0.00    +0.157 C 
ATOM     29  C   UNL     1      -7.905   3.980   8.921  0.00  0.00    +0.153 C 
ENDBRANCH  19  20
ENDBRANCH   2  18
TORSDOF 6
