REMARK  Name = ZINC05720635
REMARK  6 active torsions:
REMARK  status: ('A' for Active; 'I' for Inactive)
REMARK    1  A    between atoms: C_1  and  O_2
REMARK    2  A    between atoms: O_2  and  C_3
REMARK    3  A    between atoms: C_8  and  C_9
REMARK    4  A    between atoms: N_10  and  N_11
REMARK    5  A    between atoms: C_12  and  C_14
REMARK    6  A    between atoms: C_23  and  O_24
REMARK                            x       y       z     vdW  Elec       q    Type
REMARK                         _______ _______ _______ _____ _____    ______ ____
ROOT
ATOM      1  N   UNL     1      -1.115  -3.021  -1.974  0.00  0.00    -0.203 N 
ATOM      2  C   UNL     1      -1.735  -2.418  -3.007  0.00  0.00    +0.267 C 
ATOM      3  O   UNL     1      -1.788  -1.204  -3.061  0.00  0.00    -0.268 OA
ATOM      4  H   UNL     1      -1.073  -3.989  -1.931  0.00  0.00    +0.178 HD
ENDROOT
BRANCH   2   5
ATOM      5  C   UNL     1      -2.351  -3.231  -4.073  0.00  0.00    +0.080 A 
ATOM      6  C   UNL     1      -2.294  -4.614  -4.005  0.00  0.00    +0.025 A 
ATOM      7  C   UNL     1      -2.882  -5.381  -5.020  0.00  0.00    -0.017 A 
ATOM      8  C   UNL     1      -2.843  -6.787  -4.982  0.00  0.00    +0.008 A 
ATOM      9  C   UNL     1      -3.423  -7.504  -5.983  0.00  0.00    +0.001 A 
ATOM     10  C   UNL     1      -4.056  -6.866  -7.049  0.00  0.00    +0.001 A 
ATOM     11  C   UNL     1      -4.114  -5.508  -7.120  0.00  0.00    +0.008 A 
ATOM     12  C   UNL     1      -3.527  -4.732  -6.105  0.00  0.00    -0.014 A 
ATOM     13  C   UNL     1      -3.571  -3.328  -6.151  0.00  0.00    +0.054 A 
ATOM     14  C   UNL     1      -3.000  -2.595  -5.153  0.00  0.00    +0.130 A 
BRANCH  14  15
ATOM     15  O   UNL     1      -3.051  -1.240  -5.202  0.00  0.00    -0.506 OA
ATOM     16  H   UNL     1      -2.305  -0.834  -5.666  0.00  0.00    +0.292 HD
ENDBRANCH  14  15
ENDBRANCH   2   5
BRANCH   1  18
ATOM     17  C   UNL     1       0.068  -2.829   0.034  0.00  0.00    +0.142 C 
ATOM     18  N   UNL     1      -0.530  -2.249  -0.961  0.00  0.00    -0.187 NA
BRANCH  17  24
ATOM     19  C   UNL     1       0.625  -0.618   1.041  0.00  0.00    +0.129 A 
ATOM     20  C   UNL     1       1.202   0.136   2.050  0.00  0.00    +0.047 A 
ATOM     21  C   UNL     1       1.836  -0.489   3.107  0.00  0.00    +0.019 A 
ATOM     22  C   UNL     1       1.901  -1.871   3.166  0.00  0.00    +0.019 A 
ATOM     23  C   UNL     1       1.333  -2.638   2.169  0.00  0.00    +0.028 A 
ATOM     24  C   UNL     1       0.683  -2.017   1.099  0.00  0.00    +0.037 A 
ATOM     25 BR   UNL     1       2.774  -2.712   4.617  0.00  0.00    -0.050 Br
BRANCH  19  27
ATOM     26  C   UNL     1      -0.017   1.425   0.010  0.00  0.00    +0.277 C 
ATOM     27  O   UNL     1       0.002  -0.004   0.002  0.00  0.00    -0.494 OA
ENDBRANCH  19  27
ENDBRANCH  17  24
ENDBRANCH   1  18
TORSDOF 5
