REMARK  Name = ZINC55134545
REMARK  5 active torsions:
REMARK  status: ('A' for Active; 'I' for Inactive)
REMARK    1  A    between atoms: C_1  and  C_2
REMARK    2  A    between atoms: C_7  and  N_23
REMARK    3  A    between atoms: C_9  and  C_11
REMARK    4  A    between atoms: C_16  and  C_19
REMARK    5  A    between atoms: C_19  and  C_20
REMARK                            x       y       z     vdW  Elec       q    Type
REMARK                         _______ _______ _______ _____ _____    ______ ____
ROOT
ATOM      1  C   UNL     1       0.048   0.009   2.482  0.00  0.00    +0.217 C 
ATOM      2  O   UNL     1      -0.995   0.621   2.386  0.00  0.00    -0.275 OA
ATOM      3  N   UNL     1       0.588  -0.215   3.696  0.00  0.00    -0.301 N 
ATOM      4  C   UNL     1       1.911  -0.841   3.823  0.00  0.00    +0.108 C 
ATOM      5  C   UNL     1       1.796  -2.055   4.750  0.00  0.00    +0.023 C 
ATOM      6  C   UNL     1       1.177  -1.619   6.080  0.00  0.00    +0.001 C 
ATOM      7  C   UNL     1      -0.228  -1.064   5.834  0.00  0.00    +0.023 C 
ATOM      8  C   UNL     1      -0.133   0.166   4.918  0.00  0.00    +0.108 C 
ENDROOT
BRANCH   1  15
ATOM      9  C   UNL     1       2.170   1.550   1.202  0.00  0.00    +0.008 C 
ATOM     10  C   UNL     1       1.199   0.688   0.393  0.00  0.00    -0.004 C 
ATOM     11  C   UNL     1      -0.015   1.527  -0.009  0.00  0.00    +0.004 C 
ATOM     12  C   UNL     1      -0.986   0.664  -0.819  0.00  0.00    -0.001 C 
ATOM     13  C   UNL     1      -1.444  -0.522   0.032  0.00  0.00    -0.016 C 
ATOM     14  C   UNL     1      -0.230  -1.361   0.434  0.00  0.00    -0.063 C 
ATOM     15  C   UNL     1       0.741  -0.498   1.244  0.00  0.00    +0.064 C 
BRANCH  14  16
ATOM     16  N   UNL     1      -0.670  -2.500   1.251  0.00  0.00    +0.380 N 
ATOM     17  H   UNL     1      -1.371  -3.023   0.748  0.00  0.00    -0.090 HD
ATOM     18  H   UNL     1       0.118  -3.098   1.448  0.00  0.00    -0.090 HD
ATOM     19  H   UNL     1      -1.061  -2.162   2.118  0.00  0.00    -0.090 HD
ENDBRANCH  14  16
ENDBRANCH   1  15
BRANCH   6  20
ATOM     20  C   UNL     1       1.092  -2.822   7.022  0.00  0.00    +0.099 C 
BRANCH  20  21
ATOM     21  C   UNL     1       0.598  -2.369   8.372  0.00  0.00    +0.211 C 
ATOM     22  O   UNL     1       0.339  -1.200   8.562  0.00  0.00    -0.276 OA
ATOM     23  N   UNL     1       0.444  -3.264   9.368  0.00  0.00    -0.329 N 
ATOM     24  H   UNL     1       0.651  -4.199   9.216  0.00  0.00    +0.145 HD
ATOM     25  H   UNL     1       0.126  -2.973  10.237  0.00  0.00    +0.145 HD
ENDBRANCH  20  21
ENDBRANCH   6  20
TORSDOF 4
