REMARK  Name = ZINC19616856
REMARK  5 active torsions:
REMARK  status: ('A' for Active; 'I' for Inactive)
REMARK    1  A    between atoms: C_10  and  C_13
REMARK    2  A    between atoms: C_13  and  C_14
REMARK    3  A    between atoms: N_16  and  N_17
REMARK    4  A    between atoms: C_18  and  C_20
REMARK    5  A    between atoms: C_23  and  C_25
REMARK                            x       y       z     vdW  Elec       q    Type
REMARK                         _______ _______ _______ _____ _____    ______ ____
ROOT
ATOM      1  C   UNL     1       4.760  -1.682  -2.944  0.00  0.00    +0.231 C 
ATOM      2  O   UNL     1       5.722  -1.625  -2.207  0.00  0.00    -0.274 OA
ATOM      3  N   UNL     1       4.896  -1.388  -4.252  0.00  0.00    -0.234 N 
ATOM      4  H   UNL     1       4.127  -1.434  -4.842  0.00  0.00    +0.173 HD
ENDROOT
BRANCH   3   5
ATOM      5  N   UNL     1       6.148  -1.018  -4.761  0.00  0.00    -0.230 N 
ATOM      6  C   UNL     1       6.284  -0.725  -6.069  0.00  0.00    +0.267 C 
ATOM      7  O   UNL     1       5.319  -0.782  -6.809  0.00  0.00    -0.268 OA
ATOM      8  H   UNL     1       6.917  -0.972  -4.171  0.00  0.00    +0.173 HD
BRANCH   6   9
ATOM      9  C   UNL     1       7.593  -0.337  -6.601  0.00  0.00    +0.076 A 
ATOM     10  C   UNL     1       7.939   0.005  -7.900  0.00  0.00    +0.021 A 
ATOM     11  C   UNL     1       9.238   0.335  -8.167  0.00  0.00    +0.017 A 
ATOM     12  C   UNL     1      10.158   0.316  -7.131  0.00  0.00    +0.020 A 
ATOM     13  S   UNL     1       9.149  -0.177  -5.742  0.00  0.00    -0.084 S 
BRANCH  12  14
ATOM     14  C   UNL     1      11.601   0.629  -7.165  0.00  0.00    -0.011 A 
ATOM     15  C   UNL     1      12.207   1.011  -8.363  0.00  0.00    +0.012 A 
ATOM     16  C   UNL     1      13.555   1.302  -8.389  0.00  0.00    +0.039 A 
ATOM     17  C   UNL     1      14.308   1.216  -7.229  0.00  0.00    +0.123 A 
ATOM     18  C   UNL     1      13.711   0.836  -6.036  0.00  0.00    +0.039 A 
ATOM     19  C   UNL     1      12.363   0.548  -5.998  0.00  0.00    +0.012 A 
ATOM     20  F   UNL     1      15.628   1.502  -7.260  0.00  0.00    -0.205 F 
ENDBRANCH  12  14
ENDBRANCH   6   9
ENDBRANCH   3   5
BRANCH   1  21
ATOM     21  C   UNL     1       3.414  -2.080  -2.397  0.00  0.00    +0.121 C 
BRANCH  21  31
ATOM     22  C   UNL     1      -0.017   1.377   0.010  0.00  0.00    +0.002 A 
ATOM     23  C   UNL     1       1.166   2.094   0.002  0.00  0.00    +0.001 A 
ATOM     24  C   UNL     1       2.377   1.426  -0.008  0.00  0.00    +0.016 A 
ATOM     25  C   UNL     1       2.401   0.041  -0.015  0.00  0.00    +0.030 A 
ATOM     26  C   UNL     1       1.213  -0.690  -0.015  0.00  0.00    +0.047 A 
ATOM     27  C   UNL     1       0.002  -0.004   0.002  0.00  0.00    +0.024 A 
ATOM     28  N   UNL     1       1.205  -2.081  -0.044  0.00  0.00    -0.284 N 
ATOM     29  C   UNL     1       2.221  -2.873  -0.370  0.00  0.00    +0.231 C 
ATOM     30  O   UNL     1       2.083  -4.071  -0.238  0.00  0.00    -0.274 OA
ATOM     31  C   UNL     1       3.534  -2.357  -0.897  0.00  0.00    +0.146 C 
ATOM     32  S   UNL     1       3.943  -0.819  -0.017  0.00  0.00    -0.110 S 
ATOM     33  H   UNL     1       0.373  -2.517   0.199  0.00  0.00    +0.155 HD
ENDBRANCH  21  31
ENDBRANCH   1  21
TORSDOF 5
