REMARK  Name = ZINC55088636
REMARK  5 active torsions:
REMARK  status: ('A' for Active; 'I' for Inactive)
REMARK    1  A    between atoms: C_4  and  N_21
REMARK    2  A    between atoms: C_6  and  C_9
REMARK    3  A    between atoms: N_11  and  C_12
REMARK    4  A    between atoms: N_11  and  C_16
REMARK    5  A    between atoms: C_12  and  C_13
REMARK                            x       y       z     vdW  Elec       q    Type
REMARK                         _______ _______ _______ _____ _____    ______ ____
ROOT
ATOM      1  C   UNL     1       0.762  -2.018   1.227  0.00  0.00    +0.218 C 
ATOM      2  O   UNL     1       1.814  -2.610   1.112  0.00  0.00    -0.275 OA
ATOM      3  N   UNL     1      -0.390  -2.708   1.342  0.00  0.00    -0.289 N 
ENDROOT
BRANCH   1   8
ATOM      4  C   UNL     1       0.682   1.541  -0.182  0.00  0.00    +0.001 C 
ATOM      5  C   UNL     1       1.942   2.061   0.514  0.00  0.00    -0.002 C 
ATOM      6  C   UNL     1       1.983   1.538   1.951  0.00  0.00    -0.016 C 
ATOM      7  C   UNL     1       2.003   0.008   1.937  0.00  0.00    -0.063 C 
ATOM      8  C   UNL     1       0.743  -0.511   1.241  0.00  0.00    +0.061 C 
ATOM      9  C   UNL     1       0.702   0.011  -0.196  0.00  0.00    +0.011 C 
BRANCH   7  10
ATOM     10  N   UNL     1       2.042  -0.494   3.317  0.00  0.00    +0.380 N 
ATOM     11  H   UNL     1       1.226  -0.172   3.815  0.00  0.00    -0.090 HD
ATOM     12  H   UNL     1       2.055  -1.503   3.307  0.00  0.00    -0.090 HD
ATOM     13  H   UNL     1       2.873  -0.151   3.776  0.00  0.00    -0.090 HD
ENDBRANCH   7  10
ENDBRANCH   1   8
BRANCH   3  14
ATOM     14  C   UNL     1      -1.671  -1.997   1.359  0.00  0.00    +0.077 C 
ATOM     15  C   UNL     1      -2.393  -2.240   2.700  0.00  0.00    +0.022 C 
ATOM     16  C   UNL     1      -3.889  -2.340   2.313  0.00  0.00    +0.002 C 
ATOM     17  C   UNL     1      -3.844  -3.106   0.967  0.00  0.00    +0.002 C 
ATOM     18  C   UNL     1      -2.593  -2.548   0.257  0.00  0.00    +0.022 C 
ENDBRANCH   3  14
BRANCH   3  19
ATOM     19  C   UNL     1      -0.361  -4.169   1.451  0.00  0.00    +0.203 C 
BRANCH  19  20
ATOM     20  C   UNL     1      -0.274  -4.562   2.903  0.00  0.00    +0.228 C 
ATOM     21  O   UNL     1      -0.239  -3.707   3.763  0.00  0.00    -0.274 OA
ATOM     22  N   UNL     1      -0.235  -5.865   3.247  0.00  0.00    -0.328 N 
ATOM     23  H   UNL     1      -0.263  -6.549   2.560  0.00  0.00    +0.145 HD
ATOM     24  H   UNL     1      -0.179  -6.118   4.182  0.00  0.00    +0.145 HD
ENDBRANCH  19  20
ENDBRANCH   3  19
TORSDOF 5
