REMARK  Name = ZINC67337814
REMARK  6 active torsions:
REMARK  status: ('A' for Active; 'I' for Inactive)
REMARK    1  A    between atoms: C_3  and  C_11
REMARK    2  A    between atoms: C_5  and  C_7
REMARK    3  A    between atoms: C_11  and  N_12
REMARK    4  A    between atoms: N_15  and  N_16
REMARK    5  A    between atoms: C_17  and  C_19
REMARK    6  A    between atoms: C_19  and  C_24
REMARK                            x       y       z     vdW  Elec       q    Type
REMARK                         _______ _______ _______ _____ _____    ______ ____
ROOT
ATOM      1  N   UNL     1       4.105   2.425   1.356  0.00  0.00    -0.294 N 
ATOM      2  C   UNL     1       5.246   3.102   1.594  0.00  0.00    +0.316 C 
ATOM      3  O   UNL     1       5.916   3.511   0.665  0.00  0.00    -0.251 OA
ATOM      4  N   UNL     1       5.645   3.326   2.862  0.00  0.00    -0.218 N 
ATOM      5  H   UNL     1       3.571   2.099   2.097  0.00  0.00    +0.151 HD
ATOM      6  H   UNL     1       6.466   3.813   3.033  0.00  0.00    +0.174 HD
ENDROOT
BRANCH   4   7
ATOM      7  N   UNL     1       4.873   2.855   3.932  0.00  0.00    -0.232 N 
ATOM      8  C   UNL     1       5.271   3.079   5.200  0.00  0.00    +0.249 C 
ATOM      9  O   UNL     1       6.298   3.689   5.415  0.00  0.00    -0.273 OA
ATOM     10  H   UNL     1       4.052   2.368   3.761  0.00  0.00    +0.173 HD
BRANCH   8  11
ATOM     11  C   UNL     1       4.441   2.573   6.351  0.00  0.00    +0.134 C 
ATOM     12  C   UNL     1       3.054   3.248   6.340  0.00  0.00    +0.031 C 
ATOM     13  C   UNL     1       2.723   3.461   7.838  0.00  0.00    +0.002 C 
ATOM     14  C   UNL     1       4.097   3.847   8.440  0.00  0.00    +0.002 C 
ATOM     15  C   UNL     1       5.104   2.954   7.687  0.00  0.00    +0.031 C 
BRANCH  11  16
ATOM     16  C   UNL     1       4.293   1.111   6.261  0.00  0.00    +0.079 C 
ATOM     17  N   UNL     1       4.178  -0.017   6.191  0.00  0.00    -0.195 NA
ENDBRANCH  11  16
ENDBRANCH   8  11
ENDBRANCH   4   7
BRANCH   1  18
ATOM     18  C   UNL     1       3.672   2.182  -0.022  0.00  0.00    +0.141 C 
BRANCH  18  21
ATOM     19  C   UNL     1      -0.017   1.378   0.010  0.00  0.00    +0.001 A 
ATOM     20  C   UNL     1       1.171   2.085   0.002  0.00  0.00    +0.005 A 
ATOM     21  C   UNL     1       2.377   1.411  -0.013  0.00  0.00    -0.030 A 
ATOM     22  C   UNL     1       2.396   0.028  -0.020  0.00  0.00    +0.017 A 
ATOM     23  C   UNL     1       1.209  -0.679  -0.012  0.00  0.00    +0.055 A 
ATOM     24  C   UNL     1       0.002  -0.004   0.002  0.00  0.00    +0.012 A 
BRANCH  23  25
ATOM     25  C   UNL     1       1.229  -2.186  -0.020  0.00  0.00    +0.417 C 
ATOM     26  F   UNL     1       1.249  -2.660   1.296  0.00  0.00    -0.166 F 
ATOM     27  F   UNL     1       0.086  -2.664  -0.671  0.00  0.00    -0.166 F 
ATOM     28  F   UNL     1       2.371  -2.633  -0.694  0.00  0.00    -0.166 F 
ENDBRANCH  23  25
ENDBRANCH  18  21
ENDBRANCH   1  18
TORSDOF 6
