REMARK  Name = ZINC44559614
REMARK  8 active torsions:
REMARK  status: ('A' for Active; 'I' for Inactive)
REMARK    1  A    between atoms: C_1  and  C_2
REMARK    2  A    between atoms: C_6  and  C_23
REMARK    3  A    between atoms: C_9  and  C_22
REMARK    4  A    between atoms: C_10  and  O_21
REMARK    5  A    between atoms: C_12  and  O_20
REMARK    6  A    between atoms: C_23  and  O_24
REMARK    7  A    between atoms: O_24  and  C_25
REMARK    8  A    between atoms: C_25  and  C_27
REMARK                            x       y       z     vdW  Elec       q    Type
REMARK                         _______ _______ _______ _____ _____    ______ ____
ROOT
ATOM      1  C   UNL     1      -0.845   1.319   0.388  0.00  0.00    +0.039 C 
ATOM      2  C   UNL     1      -0.634  -0.168   0.266  0.00  0.00    -0.074 C 
ATOM      3  C   UNL     1      -0.309  -0.638  -0.896  0.00  0.00    +0.004 C 
ATOM      4  C   UNL     1      -0.080  -2.098  -1.173  0.00  0.00    +0.152 C 
ATOM      5  C   UNL     1       0.141  -2.842   0.144  0.00  0.00    +0.046 C 
ATOM      6  C   UNL     1      -0.993  -2.484   1.108  0.00  0.00    +0.018 C 
ATOM      7  C   UNL     1      -0.808  -1.003   1.500  0.00  0.00    +0.031 C 
ATOM      8  C   UNL     1       0.137  -4.360  -0.115  0.00  0.00    +0.041 C 
ATOM      9  C   UNL     1       1.104  -4.603  -1.304  0.00  0.00    +0.155 C 
ATOM     10  C   UNL     1       0.271  -4.379  -2.581  0.00  0.00    +0.175 C 
ATOM     11  C   UNL     1      -1.164  -4.039  -2.106  0.00  0.00    +0.185 C 
ATOM     12  C   UNL     1      -1.241  -4.695  -0.716  0.00  0.00    +0.130 C 
ATOM     13  C   UNL     1      -2.510  -4.732   0.108  0.00  0.00    +0.199 C 
ATOM     14  O   UNL     1      -1.921  -5.905  -0.467  0.00  0.00    -0.365 OA
ATOM     15  O   UNL     1      -1.215  -2.622  -1.864  0.00  0.00    -0.363 OA
ATOM     16  C   UNL     1       0.467  -5.182   1.132  0.00  0.00    +0.018 C 
ENDROOT
BRANCH  10  17
ATOM     17  O   UNL     1       0.259  -5.568  -3.374  0.00  0.00    -0.387 OA
ATOM     18  H   UNL     1       1.133  -5.847  -3.678  0.00  0.00    +0.210 HD
ENDBRANCH  10  17
BRANCH   9  19
ATOM     19  O   UNL     1       2.189  -3.673  -1.253  0.00  0.00    -0.388 OA
ATOM     20  H   UNL     1       2.828  -3.775  -1.972  0.00  0.00    +0.210 HD
ENDBRANCH   9  19
BRANCH   5  21
ATOM     21  C   UNL     1       1.482  -2.422   0.751  0.00  0.00    +0.242 C 
BRANCH  21  22
ATOM     22  O   UNL     1       1.629  -3.022   2.039  0.00  0.00    -0.464 OA
BRANCH  22  23
ATOM     23  C   UNL     1       2.760  -2.752   2.711  0.00  0.00    +0.304 C 
ATOM     24  O   UNL     1       3.596  -2.031   2.220  0.00  0.00    -0.251 OA
ATOM     25  C   UNL     1       2.986  -3.349   4.076  0.00  0.00    +0.136 C 
ENDBRANCH  22  23
ENDBRANCH  21  22
ENDBRANCH   5  21
TORSDOF 5
