REMARK  Name = ZINC62855888
REMARK  4 active torsions:
REMARK  status: ('A' for Active; 'I' for Inactive)
REMARK    1  A    between atoms: C_1  and  C_2
REMARK    2  A    between atoms: C_2  and  C_8
REMARK    3  A    between atoms: N_10  and  C_11
REMARK    4  A    between atoms: C_15  and  C_17
REMARK                            x       y       z     vdW  Elec       q    Type
REMARK                         _______ _______ _______ _____ _____    ______ ____
ROOT
ATOM      1  C   UNL     1       0.612  -0.633  -1.252  0.00  0.00    +0.221 C 
ATOM      2  O   UNL     1       1.512  -1.442  -1.174  0.00  0.00    -0.275 OA
ATOM      3  N   UNL     1       0.227  -0.166  -2.456  0.00  0.00    -0.285 N 
ATOM      4  H   UNL     1      -0.541   0.422  -2.525  0.00  0.00    +0.155 HD
ENDROOT
BRANCH   1   6
ATOM      5  C   UNL     1       0.090   1.366   0.121  0.00  0.00    +0.019 C 
ATOM      6  C   UNL     1      -0.077  -0.150  -0.001  0.00  0.00    +0.029 C 
ATOM      7  C   UNL     1      -1.567  -0.496  -0.070  0.00  0.00    +0.012 C 
ATOM      8  C   UNL     1      -1.725  -2.019  -0.113  0.00  0.00    -0.018 C 
ATOM      9  C   UNL     1      -1.043  -2.632   1.112  0.00  0.00    -0.083 C 
ATOM     10  N   UNL     1       0.383  -2.286   1.107  0.00  0.00    +0.380 N 
ATOM     11  C   UNL     1       0.544  -0.832   1.220  0.00  0.00    -0.067 C 
ATOM     12  H   UNL     1       0.840  -2.736   1.886  0.00  0.00    -0.086 HD
ATOM     13  H   UNL     1       0.802  -2.604   0.245  0.00  0.00    -0.086 HD
ENDBRANCH   1   6
BRANCH   3  14
ATOM     14  C   UNL     1       0.937  -0.529  -3.607  0.00  0.00    +0.034 A 
ATOM     15  C   UNL     1       0.269  -0.676  -4.817  0.00  0.00    +0.025 A 
ATOM     16  C   UNL     1       0.963  -1.034  -5.957  0.00  0.00    +0.022 A 
ATOM     17  C   UNL     1       2.327  -1.248  -5.902  0.00  0.00    +0.055 A 
ATOM     18  C   UNL     1       3.008  -1.101  -4.690  0.00  0.00    +0.083 A 
ATOM     19  C   UNL     1       2.305  -0.735  -3.540  0.00  0.00    +0.040 A 
ATOM     20 CL   UNL     1       3.194  -1.698  -7.337  0.00  0.00    -0.083 Cl
BRANCH  18  21
ATOM     21  C   UNL     1       4.464  -1.329  -4.626  0.00  0.00    +0.388 C 
ATOM     22  O   UNL     1       5.057  -1.200  -3.565  0.00  0.00    -0.241 OA
ATOM     23  O   UNL     1       5.078  -1.645  -5.636  0.00  0.00    -0.241 OA
ENDBRANCH  18  21
ENDBRANCH   3  14
TORSDOF 3
