REMARK  Name = ZINC03089841
REMARK  5 active torsions:
REMARK  status: ('A' for Active; 'I' for Inactive)
REMARK    1  A    between atoms: C_10  and  C_11
REMARK    2  A    between atoms: N_12  and  N_13
REMARK    3  A    between atoms: C_14  and  C_16
REMARK    4  A    between atoms: C_21  and  N_22
REMARK    5  A    between atoms: C_23  and  C_25
REMARK                            x       y       z     vdW  Elec       q    Type
REMARK                         _______ _______ _______ _____ _____    ______ ____
ROOT
ATOM      1  C   UNL     1      -2.630   1.119   0.056  0.00  0.00    +0.060 A 
ATOM      2  C   UNL     1      -3.890   1.721  -0.003  0.00  0.00    +0.015 A 
ATOM      3  C   UNL     1      -3.993   3.088  -0.143  0.00  0.00    +0.001 A 
ATOM      4  C   UNL     1      -2.852   3.871  -0.227  0.00  0.00    +0.002 A 
ATOM      5  C   UNL     1      -1.601   3.292  -0.166  0.00  0.00    +0.024 A 
ATOM      6  C   UNL     1      -1.477   1.915  -0.030  0.00  0.00    +0.046 A 
ENDROOT
BRANCH   1   8
ATOM      7  N   UNL     1      -3.618  -1.114   0.180  0.00  0.00    -0.203 N 
ATOM      8  C   UNL     1      -2.513  -0.343   0.207  0.00  0.00    +0.265 C 
ATOM      9  O   UNL     1      -1.418  -0.853   0.355  0.00  0.00    -0.268 OA
ATOM     10  H   UNL     1      -4.490  -0.707   0.061  0.00  0.00    +0.178 HD
BRANCH   7  12
ATOM     11  C   UNL     1      -4.571  -3.247   0.297  0.00  0.00    +0.139 C 
ATOM     12  N   UNL     1      -3.506  -2.503   0.323  0.00  0.00    -0.187 NA
BRANCH  11  22
ATOM     13  C   UNL     1      -0.686  -6.623   0.635  0.00  0.00    +0.001 A 
ATOM     14  C   UNL     1      -0.756  -5.239   0.491  0.00  0.00    +0.001 A 
ATOM     15  C   UNL     1      -1.959  -4.601   0.428  0.00  0.00    +0.009 A 
ATOM     16  C   UNL     1      -3.142  -5.347   0.503  0.00  0.00    -0.009 A 
ATOM     17  C   UNL     1      -3.074  -6.753   0.655  0.00  0.00    -0.017 A 
ATOM     18  C   UNL     1      -1.816  -7.377   0.717  0.00  0.00    +0.008 A 
ATOM     19  C   UNL     1      -4.263  -7.497   0.737  0.00  0.00    +0.008 A 
ATOM     20  C   UNL     1      -5.475  -6.879   0.677  0.00  0.00    +0.001 A 
ATOM     21  C   UNL     1      -5.589  -5.503   0.535  0.00  0.00    +0.010 A 
ATOM     22  C   UNL     1      -4.454  -4.705   0.448  0.00  0.00    +0.002 A 
ENDBRANCH  11  22
ENDBRANCH   7  12
ENDBRANCH   1   8
BRANCH   6  23
ATOM     23  N   UNL     1      -0.216   1.328   0.027  0.00  0.00    -0.281 N 
ATOM     24  C   UNL     1       0.799   1.970   0.638  0.00  0.00    +0.248 C 
ATOM     25  O   UNL     1       0.634   3.094   1.072  0.00  0.00    -0.270 OA
ATOM     26  H   UNL     1      -0.067   0.459  -0.378  0.00  0.00    +0.155 HD
BRANCH  24  27
ATOM     27  C   UNL     1       2.111   1.308   0.781  0.00  0.00    +0.037 A 
ATOM     28  C   UNL     1       2.302   0.015   0.288  0.00  0.00    +0.016 A 
ATOM     29  C   UNL     1       3.530  -0.595   0.420  0.00  0.00    +0.039 A 
ATOM     30  C   UNL     1       4.573   0.067   1.049  0.00  0.00    +0.123 A 
ATOM     31  C   UNL     1       4.388   1.349   1.545  0.00  0.00    +0.039 A 
ATOM     32  C   UNL     1       3.165   1.971   1.414  0.00  0.00    +0.016 A 
ATOM     33  F   UNL     1       5.774  -0.538   1.180  0.00  0.00    -0.205 F 
ENDBRANCH  24  27
ENDBRANCH   6  23
TORSDOF 5
