REMARK  Name = ZINC51152492
REMARK  6 active torsions:
REMARK  status: ('A' for Active; 'I' for Inactive)
REMARK    1  A    between atoms: C_1  and  C_2
REMARK    2  A    between atoms: C_2  and  C_3
REMARK    3  A    between atoms: C_4  and  C_18
REMARK    4  A    between atoms: C_6  and  C_11
REMARK    5  A    between atoms: C_8  and  N_9
REMARK    6  A    between atoms: N_9  and  N_10
REMARK                            x       y       z     vdW  Elec       q    Type
REMARK                         _______ _______ _______ _____ _____    ______ ____
ROOT
ATOM      1  C   UNL     1       0.707  -0.490  -1.238  0.00  0.00    +0.014 A 
ATOM      2  C   UNL     1       0.005  -0.723  -2.405  0.00  0.00    +0.047 A 
ATOM      3  N   UNL     1       0.654  -1.150  -3.477  0.00  0.00    -0.232 NA
ATOM      4  C   UNL     1       1.963  -1.355  -3.445  0.00  0.00    +0.162 A 
ATOM      5  N   UNL     1       2.673  -1.144  -2.346  0.00  0.00    -0.211 NA
ATOM      6  C   UNL     1       2.087  -0.710  -1.235  0.00  0.00    +0.139 A 
ATOM      7  C   UNL     1      -1.484  -0.495  -2.456  0.00  0.00    +0.066 C 
ENDROOT
BRANCH   4   8
ATOM      8  C   UNL     1       2.651  -1.834  -4.669  0.00  0.00    +0.020 A 
ATOM      9  C   UNL     1       1.924  -2.057  -5.837  0.00  0.00    +0.011 A 
ATOM     10  C   UNL     1       2.569  -2.502  -6.974  0.00  0.00    +0.002 A 
ATOM     11  C   UNL     1       3.933  -2.726  -6.955  0.00  0.00    +0.015 A 
ATOM     12  C   UNL     1       4.660  -2.506  -5.798  0.00  0.00    +0.019 A 
ATOM     13  C   UNL     1       4.026  -2.056  -4.657  0.00  0.00    +0.027 A 
ATOM     14 BR   UNL     1       6.526  -2.815  -5.782  0.00  0.00    -0.050 Br
ENDBRANCH   4   8
BRANCH   1  16
ATOM     15  C   UNL     1      -0.019   1.526   0.010  0.00  0.00    +0.009 C 
ATOM     16  C   UNL     1       0.002  -0.004   0.002  0.00  0.00    +0.037 C 
ENDBRANCH   1  16
BRANCH   6  17
ATOM     17  N   UNL     1       2.833  -0.483  -0.089  0.00  0.00    -0.267 N 
ATOM     18  H   UNL     1       2.397  -0.170   0.719  0.00  0.00    +0.167 HD
BRANCH  17  19
ATOM     19  N   UNL     1       4.181  -0.701  -0.098  0.00  0.00    -0.255 NA
ATOM     20  H   UNL     1       4.629  -0.167  -0.827  0.00  0.00    +0.140 HD
ATOM     21  H   UNL     1       4.587  -0.494   0.803  0.00  0.00    +0.140 HD
ENDBRANCH  17  19
ENDBRANCH   6  17
TORSDOF 4
