REMARK  Name = ZINC21817251
REMARK  4 active torsions:
REMARK  status: ('A' for Active; 'I' for Inactive)
REMARK    1  A    between atoms: C_3  and  N_19
REMARK    2  A    between atoms: C_6  and  C_7
REMARK    3  A    between atoms: C_7  and  S_8
REMARK    4  A    between atoms: S_8  and  N_11
REMARK                            x       y       z     vdW  Elec       q    Type
REMARK                         _______ _______ _______ _____ _____    ______ ____
ROOT
ATOM      1  S   UNL     1      -5.479   4.019   1.763  0.00  0.00    +0.036 S 
ATOM      2  O   UNL     1      -4.592   5.004   1.251  0.00  0.00    -0.158 OA
ATOM      3  O   UNL     1      -5.602   2.755   1.127  0.00  0.00    -0.158 OA
ENDROOT
BRANCH   1   4
ATOM      4  N   UNL     1      -6.983   4.701   1.641  0.00  0.00    -0.181 NA
ATOM      5  C   UNL     1      -7.130   6.157   1.506  0.00  0.00    +0.109 C 
ATOM      6  C   UNL     1      -6.601   6.582   0.137  0.00  0.00    +0.017 C 
ATOM      7  C   UNL     1      -7.590   6.132  -0.951  0.00  0.00    +0.001 C 
ATOM      8  C   UNL     1      -7.412   4.641  -1.213  0.00  0.00    +0.000 C 
ATOM      9  C   UNL     1      -8.664   3.857  -0.778  0.00  0.00    +0.001 C 
ATOM     10  C   UNL     1      -9.138   4.358   0.586  0.00  0.00    +0.017 C 
ATOM     11  C   UNL     1      -8.172   3.867   1.673  0.00  0.00    +0.109 C 
ENDBRANCH   1   4
BRANCH   1  12
ATOM     12  C   UNL     1      -5.208   3.800   3.543  0.00  0.00    +0.220 C 
BRANCH  12  18
ATOM     13  C   UNL     1      -2.746   4.000   3.940  0.00  0.00    +0.007 A 
ATOM     14  C   UNL     1      -1.501   3.441   4.151  0.00  0.00    +0.023 A 
ATOM     15  C   UNL     1      -1.360   2.060   4.195  0.00  0.00    +0.025 A 
ATOM     16  C   UNL     1      -2.472   1.245   4.022  0.00  0.00    +0.023 A 
ATOM     17  C   UNL     1      -3.715   1.811   3.817  0.00  0.00    +0.007 A 
ATOM     18  C   UNL     1      -3.852   3.187   3.773  0.00  0.00    -0.025 A 
BRANCH  15  19
ATOM     19  N   UNL     1      -0.102   1.491   4.408  0.00  0.00    -0.358 N 
ATOM     20  H   UNL     1       0.008   0.397   4.443  0.00  0.00    +0.142 HD
ATOM     21  H   UNL     1       0.778   2.137   4.540  0.00  0.00    +0.142 HD
ENDBRANCH  15  19
ENDBRANCH  12  18
ENDBRANCH   1  12
TORSDOF 4
