REMARK  Name = ZINC31072960
REMARK  12 active torsions:
REMARK  status: ('A' for Active; 'I' for Inactive)
REMARK    1  A    between atoms: C_1  and  C_2
REMARK    2  A    between atoms: C_2  and  C_3
REMARK    3  A    between atoms: C_3  and  N_4
REMARK    4  A    between atoms: C_8  and  C_10
REMARK    5  A    between atoms: C_10  and  N_11
REMARK    6  A    between atoms: N_11  and  C_12
REMARK    7  A    between atoms: C_14  and  S_20
REMARK    8  A    between atoms: C_16  and  C_19
REMARK    9  A    between atoms: C_17  and  C_18
REMARK   10  A    between atoms: S_20  and  N_23
REMARK   11  A    between atoms: N_23  and  C_24
REMARK   12  A    between atoms: N_23  and  C_25
REMARK                            x       y       z     vdW  Elec       q    Type
REMARK                         _______ _______ _______ _____ _____    ______ ____
ROOT
ATOM      1  N   UNL     1       2.628  -6.610  -4.526  0.00  0.00    -0.335 N 
ATOM      2  H   UNL     1       2.982  -5.971  -5.164  0.00  0.00    +0.147 HD
ENDROOT
BRANCH   1   3
ATOM      3  C   UNL     1       2.773  -7.980  -4.756  0.00  0.00    +0.033 A 
ATOM      4  C   UNL     1       2.261  -8.896  -3.845  0.00  0.00    +0.051 A 
ATOM      5  C   UNL     1       2.405 -10.250  -4.075  0.00  0.00    +0.107 A 
ATOM      6  C   UNL     1       3.058 -10.695  -5.211  0.00  0.00    +0.032 A 
ATOM      7  C   UNL     1       3.568  -9.786  -6.119  0.00  0.00    -0.044 A 
ATOM      8  C   UNL     1       3.422  -8.430  -5.898  0.00  0.00    -0.027 A 
ATOM      9  C   UNL     1       3.973  -7.440  -6.891  0.00  0.00    +0.046 C 
ATOM     10  C   UNL     1       4.279 -10.274  -7.355  0.00  0.00    +0.044 C 
BRANCH   5  11
ATOM     11  S   UNL     1       1.757 -11.413  -2.921  0.00  0.00    +0.060 S 
ATOM     12  O   UNL     1       2.500 -12.613  -3.092  0.00  0.00    -0.153 OA
ATOM     13  O   UNL     1       1.672 -10.741  -1.672  0.00  0.00    -0.153 OA
BRANCH  11  14
ATOM     14  N   UNL     1       0.203 -11.749  -3.385  0.00  0.00    -0.183 NA
ATOM     15  C   UNL     1      -0.063 -12.850  -4.313  0.00  0.00    +0.131 C 
ATOM     16  C   UNL     1      -0.906 -10.944  -2.866  0.00  0.00    +0.131 C 
ENDBRANCH  11  14
ENDBRANCH   5  11
ENDBRANCH   1   3
BRANCH   1  17
ATOM     17  C   UNL     1       1.943  -6.138  -3.321  0.00  0.00    +0.198 C 
BRANCH  17  22
ATOM     18  N   UNL     1       0.738  -1.962  -1.265  0.00  0.00    -0.299 N 
ATOM     19  C   UNL     1       1.321  -2.623  -2.285  0.00  0.00    +0.306 C 
ATOM     20  O   UNL     1       1.830  -2.003  -3.198  0.00  0.00    -0.252 OA
ATOM     21  N   UNL     1       1.339  -3.970  -2.292  0.00  0.00    -0.239 N 
ATOM     22  C   UNL     1       1.922  -4.631  -3.312  0.00  0.00    +0.237 C 
ATOM     23  O   UNL     1       2.430  -4.013  -4.223  0.00  0.00    -0.274 OA
ATOM     24  H   UNL     1       0.332  -2.457  -0.536  0.00  0.00    +0.150 HD
ATOM     25  H   UNL     1       0.933  -4.465  -1.563  0.00  0.00    +0.159 HD
BRANCH  18  26
ATOM     26  C   UNL     1       0.718  -0.497  -1.257  0.00  0.00    +0.105 C 
BRANCH  26  28
ATOM     27  C   UNL     1      -0.019   1.526   0.010  0.00  0.00    +0.005 C 
ATOM     28  C   UNL     1       0.002  -0.004   0.002  0.00  0.00    +0.015 C 
ENDBRANCH  26  28
ENDBRANCH  18  26
ENDBRANCH  17  22
ENDBRANCH   1  17
TORSDOF 7
