REMARK  Name = ZINC40816395
REMARK  3 active torsions:
REMARK  status: ('A' for Active; 'I' for Inactive)
REMARK    1  A    between atoms: C_4  and  C_8
REMARK    2  A    between atoms: C_6  and  N_7
REMARK    3  A    between atoms: N_10  and  C_11
REMARK                            x       y       z     vdW  Elec       q    Type
REMARK                         _______ _______ _______ _____ _____    ______ ____
ROOT
ATOM      1  C   UNL     1       0.056   1.412   0.590  0.00  0.00    +0.040 A 
ATOM      2  C   UNL     1       1.213   2.093   0.263  0.00  0.00    +0.085 A 
ATOM      3  N   UNL     1       2.340   1.449   0.045  0.00  0.00    -0.357 N 
ATOM      4  C   UNL     1       2.417   0.124   0.128  0.00  0.00    +0.108 A 
ATOM      5  C   UNL     1       1.295  -0.632   0.453  0.00  0.00    +0.054 A 
ATOM      6  C   UNL     1       0.087   0.022   0.690  0.00  0.00    +0.028 A 
ATOM      7  H   UNL     1       3.136   1.954  -0.183  0.00  0.00    +0.165 HD
ENDROOT
BRANCH   6   8
ATOM      8  N   UNL     1      -1.060  -0.696   1.018  0.00  0.00    -0.358 N 
ATOM      9  H   UNL     1      -1.894  -0.229   1.180  0.00  0.00    +0.142 HD
ATOM     10  H   UNL     1      -1.024  -1.663   1.084  0.00  0.00    +0.142 HD
ENDBRANCH   6   8
BRANCH   4  11
ATOM     11  C   UNL     1       3.708  -0.552  -0.127  0.00  0.00    +0.294 C 
ATOM     12  O   UNL     1       4.801   0.176  -0.444  0.00  0.00    -0.264 OA
ATOM     13  N   UNL     1       3.790  -1.856  -0.047  0.00  0.00    -0.207 NA
BRANCH  13  14
ATOM     14  C   UNL     1       5.004  -2.472  -0.166  0.00  0.00    +0.085 A 
ATOM     15  C   UNL     1       6.109  -2.039   0.580  0.00  0.00    +0.048 A 
ATOM     16  C   UNL     1       7.314  -2.690   0.428  0.00  0.00    +0.113 A 
ATOM     17  N   UNL     1       7.436  -3.707  -0.405  0.00  0.00    -0.262 NA
ATOM     18  C   UNL     1       6.422  -4.148  -1.127  0.00  0.00    +0.128 A 
ATOM     19  C   UNL     1       5.178  -3.559  -1.035  0.00  0.00    +0.061 A 
ATOM     20 BR   UNL     1       3.732  -4.204  -2.068  0.00  0.00    -0.047 Br
ENDBRANCH  13  14
ENDBRANCH   4  11
TORSDOF 3
