REMARK  Name = ZINC05555049
REMARK  9 active torsions:
REMARK  status: ('A' for Active; 'I' for Inactive)
REMARK    1  A    between atoms: C_1  and  C_2
REMARK    2  A    between atoms: C_2  and  C_3
REMARK    3  A    between atoms: C_7  and  C_21
REMARK    4  A    between atoms: C_8  and  N_9
REMARK    5  A    between atoms: C_10  and  C_12
REMARK    6  A    between atoms: C_12  and  S_13
REMARK    7  A    between atoms: S_13  and  C_14
REMARK    8  A    between atoms: C_17  and  C_20
REMARK    9  A    between atoms: N_18  and  N_19
REMARK                            x       y       z     vdW  Elec       q    Type
REMARK                         _______ _______ _______ _____ _____    ______ ____
ROOT
ATOM      1  N   UNL     1       5.885  -2.882   0.050  0.00  0.00    -0.284 N 
ATOM      2  C   UNL     1       4.790  -2.767  -0.727  0.00  0.00    +0.228 C 
ATOM      3  O   UNL     1       4.460  -3.685  -1.448  0.00  0.00    -0.275 OA
ATOM      4  H   UNL     1       6.180  -2.129   0.587  0.00  0.00    +0.155 HD
ENDROOT
BRANCH   1  10
ATOM      5  C   UNL     1       7.968  -4.090  -0.137  0.00  0.00    -0.026 A 
ATOM      6  C   UNL     1       8.668  -5.280  -0.104  0.00  0.00    +0.005 A 
ATOM      7  C   UNL     1       8.005  -6.467   0.147  0.00  0.00    +0.001 A 
ATOM      8  C   UNL     1       6.640  -6.466   0.367  0.00  0.00    +0.005 A 
ATOM      9  C   UNL     1       5.935  -5.279   0.342  0.00  0.00    -0.029 A 
ATOM     10  C   UNL     1       6.597  -4.086   0.083  0.00  0.00    +0.040 A 
ATOM     11  C   UNL     1       4.449  -5.279   0.588  0.00  0.00    +0.045 C 
BRANCH   5  13
ATOM     12  C   UNL     1       9.055  -2.123   0.912  0.00  0.00    +0.009 C 
ATOM     13  C   UNL     1       8.692  -2.797  -0.413  0.00  0.00    +0.033 C 
ENDBRANCH   5  13
ENDBRANCH   1  10
BRANCH   2  14
ATOM     14  C   UNL     1       3.977  -1.499  -0.701  0.00  0.00    +0.173 C 
BRANCH  14  15
ATOM     15  S   UNL     1       2.582  -1.653  -1.844  0.00  0.00    -0.075 S 
BRANCH  15  16
ATOM     16  C   UNL     1       1.825  -0.078  -1.618  0.00  0.00    +0.209 A 
ATOM     17  N   UNL     1       2.236   0.877  -0.817  0.00  0.00    -0.121 NA
ATOM     18  N   UNL     1       1.447   1.888  -0.902  0.00  0.00    -0.132 NA
ATOM     19  C   UNL     1       0.494   1.641  -1.756  0.00  0.00    +0.148 A 
ATOM     20  N   UNL     1       0.701   0.379  -2.243  0.00  0.00    -0.228 N 
ATOM     21  C   UNL     1      -0.625   2.574  -2.141  0.00  0.00    +0.090 C 
BRANCH  20  22
ATOM     22  N   UNL     1      -0.060  -0.285  -3.163  0.00  0.00    -0.295 N 
ATOM     23  H   UNL     1       0.268  -0.106  -4.100  0.00  0.00    +0.163 HD
ATOM     24  H   UNL     1      -0.079  -1.275  -2.969  0.00  0.00    +0.163 HD
ENDBRANCH  20  22
ENDBRANCH  15  16
ENDBRANCH  14  15
ENDBRANCH   2  14
TORSDOF 6
