REMARK  Name = ZINC41665190
REMARK  6 active torsions:
REMARK  status: ('A' for Active; 'I' for Inactive)
REMARK    1  A    between atoms: C_3  and  S_17
REMARK    2  A    between atoms: C_5  and  C_6
REMARK    3  A    between atoms: C_6  and  C_7
REMARK    4  A    between atoms: C_7  and  N_8
REMARK    5  A    between atoms: C_9  and  C_11
REMARK    6  A    between atoms: S_17  and  N_20
REMARK                            x       y       z     vdW  Elec       q    Type
REMARK                         _______ _______ _______ _____ _____    ______ ____
ROOT
ATOM      1  C   UNL     1      -0.016   1.351   0.009  0.00  0.00    +0.013 A 
ATOM      2  C   UNL     1       1.183   2.038   0.002  0.00  0.00    +0.036 A 
ATOM      3  C   UNL     1       2.343   1.336  -0.013  0.00  0.00    +0.142 A 
ATOM      4  S   UNL     1       1.754  -0.349  -0.017  0.00  0.00    -0.073 S 
ATOM      5  C   UNL     1       0.002  -0.004   0.002  0.00  0.00    -0.007 A 
ENDROOT
BRANCH   3   6
ATOM      6  S   UNL     1       4.001   1.932  -0.026  0.00  0.00    +0.062 S 
ATOM      7  O   UNL     1       4.799   0.900  -0.590  0.00  0.00    -0.153 OA
ATOM      8  O   UNL     1       3.957   3.244  -0.570  0.00  0.00    -0.153 OA
BRANCH   6   9
ATOM      9  N   UNL     1       4.477   2.089   1.552  0.00  0.00    -0.203 NA
ATOM     10  H   UNL     1       3.864   1.863   2.268  0.00  0.00    +0.144 HD
ATOM     11  H   UNL     1       5.369   2.408   1.760  0.00  0.00    +0.144 HD
ENDBRANCH   6   9
ENDBRANCH   3   6
BRANCH   5  12
ATOM     12  C   UNL     1      -1.155  -0.969   0.008  0.00  0.00    +0.061 C 
BRANCH  12  13
ATOM     13  C   UNL     1      -1.562  -1.288  -1.432  0.00  0.00    +0.109 C 
BRANCH  13  14
ATOM     14  N   UNL     1      -2.687  -2.226  -1.426  0.00  0.00    -0.315 N 
ATOM     15  C   UNL     1      -3.216  -2.651  -2.590  0.00  0.00    +0.218 C 
ATOM     16  O   UNL     1      -2.761  -2.257  -3.643  0.00  0.00    -0.275 OA
ATOM     17  H   UNL     1      -3.051  -2.541  -0.584  0.00  0.00    +0.149 HD
BRANCH  15  18
ATOM     18  C   UNL     1      -4.374  -3.616  -2.584  0.00  0.00    +0.103 C 
ATOM     19  C   UNL     1      -4.834  -3.919  -4.030  0.00  0.00    +0.043 C 
ATOM     20  C   UNL     1      -6.377  -3.932  -3.884  0.00  0.00    +0.160 C 
ATOM     21  O   UNL     1      -6.633  -2.884  -2.925  0.00  0.00    -0.379 OA
ATOM     22  C   UNL     1      -5.607  -2.974  -1.918  0.00  0.00    +0.172 C 
ENDBRANCH  15  18
ENDBRANCH  13  14
ENDBRANCH  12  13
ENDBRANCH   5  12
TORSDOF 6
