REMARK  Name = ZINC49584528
REMARK  4 active torsions:
REMARK  status: ('A' for Active; 'I' for Inactive)
REMARK    1  A    between atoms: C_3  and  C_6
REMARK    2  A    between atoms: C_6  and  O_7
REMARK    3  A    between atoms: O_7  and  C_8
REMARK    4  A    between atoms: C_17  and  N_18
REMARK                            x       y       z     vdW  Elec       q    Type
REMARK                         _______ _______ _______ _____ _____    ______ ____
ROOT
ATOM      1  C   UNL     1       5.490   2.454   1.487  0.00  0.00    +0.152 A 
ATOM      2  C   UNL     1       6.580   1.560   1.562  0.00  0.00    +0.045 A 
ATOM      3  C   UNL     1       6.392   0.172   1.464  0.00  0.00    +0.029 A 
ATOM      4  C   UNL     1       7.468  -0.660   1.540  0.00  0.00    +0.019 A 
ATOM      5  C   UNL     1       8.754  -0.150   1.714  0.00  0.00    +0.017 A 
ATOM      6  C   UNL     1       8.971   1.190   1.812  0.00  0.00    +0.029 A 
ATOM      7  C   UNL     1       7.885   2.080   1.737  0.00  0.00    +0.075 A 
ATOM      8  N   UNL     1       8.073   3.401   1.831  0.00  0.00    -0.253 NA
ATOM      9  C   UNL     1       7.071   4.246   1.764  0.00  0.00    +0.137 A 
ATOM     10  C   UNL     1       5.757   3.813   1.585  0.00  0.00    +0.086 A 
ATOM     11 BR   UNL     1       7.214  -2.529   1.409  0.00  0.00    -0.050 Br
ENDROOT
BRANCH  10  12
ATOM     12  N   UNL     1       4.712   4.743   1.512  0.00  0.00    -0.354 N 
ATOM     13  H   UNL     1       3.799   4.439   1.392  0.00  0.00    +0.142 HD
ATOM     14  H   UNL     1       4.901   5.692   1.581  0.00  0.00    +0.142 HD
ENDBRANCH  10  12
BRANCH   1  15
ATOM     15  O   UNL     1       4.222   2.000   1.319  0.00  0.00    -0.484 OA
BRANCH  15  16
ATOM     16  C   UNL     1       3.761   1.845  -0.024  0.00  0.00    +0.271 C 
BRANCH  16  19
ATOM     17  C   UNL     1      -0.016   1.351   0.009  0.00  0.00    +0.008 A 
ATOM     18  C   UNL     1       1.183   2.038   0.002  0.00  0.00    +0.014 A 
ATOM     19  C   UNL     1       2.343   1.336  -0.013  0.00  0.00    +0.027 A 
ATOM     20  S   UNL     1       1.754  -0.349  -0.017  0.00  0.00    -0.098 S 
ATOM     21  C   UNL     1       0.002  -0.004   0.002  0.00  0.00    +0.045 A 
ENDBRANCH  16  19
ENDBRANCH  15  16
ENDBRANCH   1  15
TORSDOF 4
