REMARK  Name = ZINC26512279
REMARK  2 active torsions:
REMARK  status: ('A' for Active; 'I' for Inactive)
REMARK    1  A    between atoms: C_8  and  N_16
REMARK    2  A    between atoms: C_10  and  C_12
REMARK                            x       y       z     vdW  Elec       q    Type
REMARK                         _______ _______ _______ _____ _____    ______ ____
ROOT
ATOM      1  C   UNL     1      -0.017   1.384   0.010  0.00  0.00    +0.005 A 
ATOM      2  C   UNL     1       0.002  -0.004   0.002  0.00  0.00    +0.020 A 
ATOM      3  C   UNL     1       1.216  -0.663  -0.013  0.00  0.00    +0.113 A 
ATOM      4  N   UNL     1       2.350   0.009  -0.021  0.00  0.00    -0.236 NA
ATOM      5  C   UNL     1       2.374   1.332  -0.014  0.00  0.00    +0.156 A 
ATOM      6  C   UNL     1       1.190   2.061   0.002  0.00  0.00    +0.048 A 
ATOM      7  N   UNL     1       3.600   2.002  -0.022  0.00  0.00    -0.200 N 
ATOM      8  C   UNL     1       4.787   1.510   0.428  0.00  0.00    +0.122 A 
ATOM      9  C   UNL     1       5.727   2.477   0.239  0.00  0.00    +0.077 A 
ATOM     10  C   UNL     1       5.095   3.582  -0.340  0.00  0.00    +0.167 A 
ATOM     11  N   UNL     1       3.828   3.299  -0.502  0.00  0.00    -0.159 NA
ENDROOT
BRANCH  10  12
ATOM     12  C   UNL     1       5.763   4.878  -0.721  0.00  0.00    +0.436 C 
ATOM     13  F   UNL     1       6.224   4.796  -2.039  0.00  0.00    -0.164 F 
ATOM     14  F   UNL     1       4.843   5.926  -0.614  0.00  0.00    -0.164 F 
ATOM     15  F   UNL     1       6.843   5.116   0.136  0.00  0.00    -0.164 F 
ENDBRANCH  10  12
BRANCH   8  16
ATOM     16  N   UNL     1       5.000   0.251   0.980  0.00  0.00    -0.343 N 
ATOM     17  H   UNL     1       6.008  -0.040   1.312  0.00  0.00    +0.144 HD
ATOM     18  H   UNL     1       4.162  -0.453   1.085  0.00  0.00    +0.144 HD
ENDBRANCH   8  16
TORSDOF 2
