REMARK  Name = ZINC16923269
REMARK  7 active torsions:
REMARK  status: ('A' for Active; 'I' for Inactive)
REMARK    1  A    between atoms: C_1  and  C_2
REMARK    2  A    between atoms: C_7  and  C_8
REMARK    3  A    between atoms: N_9  and  C1*_14
REMARK    4  A    between atoms: C2*_16  and  O2*_26
REMARK    5  A    between atoms: C3*_18  and  O3*_25
REMARK    6  A    between atoms: C4*_20  and  C5*_23
REMARK    7  A    between atoms: C5*_23  and  O5*_24
REMARK                            x       y       z     vdW  Elec       q    Type
REMARK                         _______ _______ _______ _____ _____    ______ ____
ROOT
ATOM      1  C   UNL     1      -2.511   0.979   0.019  0.00  0.00    +0.044 C 
ATOM      2  C   UNL     1      -1.217   1.752   0.017  0.00  0.00    -0.045 A 
ATOM      3  C   UNL     1      -0.013   1.076   0.008  0.00  0.00    +0.031 A 
ATOM      4  C   UNL     1       1.177   1.787   0.000  0.00  0.00    +0.065 A 
ATOM      5  C   UNL     1       1.153   3.183   0.008  0.00  0.00    +0.070 A 
ATOM      6  C   UNL     1      -0.060   3.853   0.024  0.00  0.00    +0.031 A 
ATOM      7  C   UNL     1      -1.241   3.135   0.032  0.00  0.00    -0.045 A 
ATOM      8  C   UNL     1      -2.561   3.863   0.048  0.00  0.00    +0.044 C 
ATOM      9  N   UNL     1       2.479   3.609  -0.002  0.00  0.00    -0.290 N 
ATOM     10  C   UNL     1       3.273   2.521  -0.016  0.00  0.00    +0.161 A 
ATOM     11  S   UNL     1       4.985   2.551  -0.032  0.00  0.00    -0.013 S 
ATOM     12  N   UNL     1       2.517   1.407  -0.015  0.00  0.00    -0.334 N 
ATOM     13  H   UNL     1       2.849   0.496  -0.022  0.00  0.00    +0.168 HD
ENDROOT
BRANCH   9  14
ATOM     14  C1* UNL     1       2.933   5.002   0.002  0.00  0.00    +0.253 C 
ATOM     15  C2* UNL     1       3.448   5.388  -1.401  0.00  0.00    +0.195 C 
ATOM     16  C3* UNL     1       4.685   6.267  -1.067  0.00  0.00    +0.178 C 
ATOM     17  C4* UNL     1       5.202   5.571   0.216  0.00  0.00    +0.177 C 
ATOM     18  O4* UNL     1       4.021   5.156   0.920  0.00  0.00    -0.346 OA
BRANCH  16  19
ATOM     19  O3* UNL     1       5.657   6.209  -2.113  0.00  0.00    -0.386 OA
ATOM     20  H3* UNL     1       6.489   6.655  -1.902  0.00  0.00    +0.210 HD
ENDBRANCH  16  19
BRANCH  15  21
ATOM     21  O2* UNL     1       2.466   6.143  -2.114  0.00  0.00    -0.385 OA
ATOM     22  H2* UNL     1       2.742   6.410  -3.001  0.00  0.00    +0.210 HD
ENDBRANCH  15  21
BRANCH  17  23
ATOM     23  C5* UNL     1       6.008   6.555   1.066  0.00  0.00    +0.190 C 
BRANCH  23  24
ATOM     24  O5* UNL     1       6.519   5.883   2.219  0.00  0.00    -0.392 OA
ATOM     25  H5* UNL     1       7.042   6.447   2.805  0.00  0.00    +0.210 HD
ENDBRANCH  23  24
ENDBRANCH  17  23
ENDBRANCH   9  14
TORSDOF 5
