REMARK  Name = ZINC06658820
REMARK  6 active torsions:
REMARK  status: ('A' for Active; 'I' for Inactive)
REMARK    1  A    between atoms: C_6  and  N_7
REMARK    2  A    between atoms: N_19  and  C_20
REMARK    3  A    between atoms: C_20  and  C_22
REMARK    4  A    between atoms: C_22  and  O_23
REMARK    5  A    between atoms: O_23  and  C_24
REMARK    6  A    between atoms: C_24  and  C_25
REMARK                            x       y       z     vdW  Elec       q    Type
REMARK                         _______ _______ _______ _____ _____    ______ ____
ROOT
ATOM      1  N   UNL     1      -1.200  -0.721   0.010  0.00  0.00    -0.276 N 
ATOM      2  C   UNL     1      -1.178  -2.166  -0.107  0.00  0.00    +0.116 C 
ATOM      3  C   UNL     1      -0.448  -2.558  -1.414  0.00  0.00    +0.190 C 
ATOM      4  S   UNL     1      -1.357  -4.083  -1.913  0.00  0.00    -0.028 S 
ATOM      5  O   UNL     1      -1.453  -4.131  -3.330  0.00  0.00    -0.174 OA
ATOM      6  O   UNL     1      -0.833  -5.197  -1.204  0.00  0.00    -0.174 OA
ATOM      7  C   UNL     1      -2.998  -3.622  -1.204  0.00  0.00    +0.182 C 
ATOM      8  C   UNL     1      -2.566  -2.803   0.028  0.00  0.00    +0.097 C 
ATOM      9  S   UNL     1      -3.636  -1.324   0.170  0.00  0.00    -0.086 S 
ATOM     10  C   UNL     1      -2.380  -0.060   0.134  0.00  0.00    +0.154 C 
ATOM     11  N   UNL     1      -2.561   1.253   0.210  0.00  0.00    -0.157 NA
ENDROOT
BRANCH   1  17
ATOM     12  C   UNL     1       0.299   0.843  -1.058  0.00  0.00    +0.026 A 
ATOM     13  C   UNL     1       1.486   1.550  -1.064  0.00  0.00    +0.040 A 
ATOM     14  C   UNL     1       2.378   1.415  -0.013  0.00  0.00    +0.124 A 
ATOM     15  C   UNL     1       2.084   0.571   1.044  0.00  0.00    +0.040 A 
ATOM     16  C   UNL     1       0.899  -0.138   1.054  0.00  0.00    +0.026 A 
ATOM     17  C   UNL     1       0.002  -0.004   0.002  0.00  0.00    +0.036 A 
ATOM     18  F   UNL     1       3.538   2.108  -0.021  0.00  0.00    -0.205 F 
ENDBRANCH   1  17
BRANCH  11  19
ATOM     19  C   UNL     1      -3.790   1.750   0.329  0.00  0.00    +0.264 C 
ATOM     20  O   UNL     1      -4.747   1.001   0.369  0.00  0.00    -0.271 OA
BRANCH  19  21
ATOM     21  C   UNL     1      -3.995   3.240   0.415  0.00  0.00    +0.258 C 
BRANCH  21  22
ATOM     22  O   UNL     1      -5.390   3.523   0.538  0.00  0.00    -0.359 OA
BRANCH  22  23
ATOM     23  C   UNL     1      -5.696   4.916   0.627  0.00  0.00    +0.285 C 
BRANCH  23  24
ATOM     24  C   UNL     1      -7.187   5.096   0.753  0.00  0.00    +0.381 C 
ATOM     25  O   UNL     1      -7.913   4.131   0.765  0.00  0.00    -0.244 OA
ATOM     26  O   UNL     1      -7.707   6.330   0.852  0.00  0.00    -0.244 OA
ENDBRANCH  23  24
ENDBRANCH  22  23
ENDBRANCH  21  22
ENDBRANCH  19  21
ENDBRANCH  11  19
TORSDOF 6
