REMARK  Name = ZINC13614908
REMARK  8 active torsions:
REMARK  status: ('A' for Active; 'I' for Inactive)
REMARK    1  A    between atoms: C_1  and  C_2
REMARK    2  A    between atoms: C_2  and  C_3
REMARK    3  A    between atoms: N_5  and  C_6
REMARK    4  A    between atoms: C_9  and  N_12
REMARK    5  A    between atoms: N_12  and  C_13
REMARK    6  A    between atoms: C_13  and  N_15
REMARK    7  A    between atoms: C_16  and  C_18
REMARK    8  A    between atoms: C_18  and  C_19
REMARK                            x       y       z     vdW  Elec       q    Type
REMARK                         _______ _______ _______ _____ _____    ______ ____
ROOT
ATOM      1  C   UNL     1      -4.726   5.152  -0.086  0.00  0.00    +0.141 C 
ATOM      2  S   UNL     1      -3.220   5.959  -0.202  0.00  0.00    -0.018 S 
ENDROOT
BRANCH   1   3
ATOM      3  N   UNL     1      -5.874   5.853  -0.171  0.00  0.00    -0.267 N 
ATOM      4  C   UNL     1      -5.837   7.188  -0.348  0.00  0.00    +0.223 C 
ATOM      5  O   UNL     1      -4.770   7.760  -0.430  0.00  0.00    -0.275 OA
ATOM      6  H   UNL     1      -6.727   5.396  -0.105  0.00  0.00    +0.157 HD
BRANCH   4   7
ATOM      7  C   UNL     1      -7.120   7.972  -0.444  0.00  0.00    +0.131 C 
BRANCH   7   8
ATOM      8  C   UNL     1      -6.804   9.432  -0.639  0.00  0.00    -0.031 A 
ATOM      9  C   UNL     1      -6.754  10.271   0.433  0.00  0.00    +0.005 A 
ATOM     10  C   UNL     1      -6.463  11.624   0.272  0.00  0.00    +0.001 A 
ATOM     11  C   UNL     1      -6.221  12.147  -0.962  0.00  0.00    +0.008 A 
ATOM     12  C   UNL     1      -6.263  11.312  -2.091  0.00  0.00    -0.018 A 
ATOM     13  C   UNL     1      -6.554   9.935  -1.927  0.00  0.00    -0.014 A 
ATOM     14  C   UNL     1      -6.601   9.101  -3.057  0.00  0.00    +0.009 A 
ATOM     15  C   UNL     1      -6.360   9.624  -4.290  0.00  0.00    +0.001 A 
ATOM     16  C   UNL     1      -6.070  10.978  -4.451  0.00  0.00    +0.001 A 
ATOM     17  C   UNL     1      -6.019  11.816  -3.380  0.00  0.00    +0.008 A 
ENDBRANCH   7   8
ENDBRANCH   4   7
ENDBRANCH   1   3
BRANCH   1  18
ATOM     18  N   UNL     1      -4.763   3.817   0.091  0.00  0.00    -0.297 N 
ATOM     19  H   UNL     1      -5.614   3.367   0.211  0.00  0.00    +0.154 HD
BRANCH  18  23
ATOM     20  C   UNL     1      -1.220   1.618   0.123  0.00  0.00    +0.033 A 
ATOM     21  C   UNL     1      -2.322   1.150  -0.582  0.00  0.00    +0.025 A 
ATOM     22  C   UNL     1      -3.496   1.875  -0.588  0.00  0.00    +0.025 A 
ATOM     23  C   UNL     1      -3.573   3.078   0.102  0.00  0.00    +0.033 A 
ATOM     24  C   UNL     1      -2.470   3.549   0.802  0.00  0.00    +0.025 A 
ATOM     25  C   UNL     1      -1.297   2.820   0.813  0.00  0.00    +0.025 A 
BRANCH  20  28
ATOM     26  C   UNL     1       0.734   0.847   1.243  0.00  0.00    +0.217 C 
ATOM     27  O   UNL     1       0.415   1.496   2.217  0.00  0.00    -0.275 OA
ATOM     28  N   UNL     1      -0.030   0.879   0.133  0.00  0.00    -0.286 N 
ATOM     29  H   UNL     1       0.246   0.394  -0.660  0.00  0.00    +0.155 HD
BRANCH  26  31
ATOM     30  C   UNL     1       2.659   0.147   2.639  0.00  0.00    +0.013 C 
ATOM     31  C   UNL     1       1.983   0.006   1.274  0.00  0.00    +0.093 C 
ENDBRANCH  26  31
ENDBRANCH  20  28
ENDBRANCH  18  23
ENDBRANCH   1  18
TORSDOF 7
