REMARK  Name = ZINC17087181
REMARK  8 active torsions:
REMARK  status: ('A' for Active; 'I' for Inactive)
REMARK    1  A    between atoms: C_1  and  C_2
REMARK    2  A    between atoms: C_2  and  C_3
REMARK    3  A    between atoms: C_6  and  C_8
REMARK    4  A    between atoms: C_6  and  O_12
REMARK    5  A    between atoms: C_13  and  C_15
REMARK    6  A    between atoms: N_17  and  C_18
REMARK    7  A    between atoms: C_18  and  C_19
REMARK    8  A    between atoms: C_18  and  C_20
REMARK                            x       y       z     vdW  Elec       q    Type
REMARK                         _______ _______ _______ _____ _____    ______ ____
ROOT
ATOM      1  C   UNL     1       0.000   1.080   2.488  0.00  0.00    +0.042 C 
ATOM      2  N   UNL     1       1.047   0.361   2.471  0.00  0.00    -0.183 NA
ATOM      3  N   UNL     1       1.538   0.026   3.731  0.00  0.00    -0.144 N 
ATOM      4  C   UNL     1       0.665   0.627   4.753  0.00  0.00    +0.257 C 
ATOM      5  C   UNL     1      -0.401   1.365   3.917  0.00  0.00    +0.118 C 
ATOM      6  C   UNL     1       2.631  -0.724   3.974  0.00  0.00    +0.323 C 
ATOM      7  O   UNL     1       2.967  -0.954   5.118  0.00  0.00    -0.263 OA
ENDROOT
BRANCH   4   8
ATOM      8  C   UNL     1       1.447   1.618   5.617  0.00  0.00    +0.438 C 
ATOM      9  F   UNL     1       1.992   2.617   4.803  0.00  0.00    -0.166 F 
ATOM     10  F   UNL     1       0.588   2.197   6.556  0.00  0.00    -0.166 F 
ATOM     11  F   UNL     1       2.478   0.944   6.281  0.00  0.00    -0.166 F 
ENDBRANCH   4   8
BRANCH   6  12
ATOM     12  C   UNL     1       3.428  -1.272   2.837  0.00  0.00    +0.301 C 
ATOM     13  O   UNL     1       3.092  -1.042   1.694  0.00  0.00    -0.265 OA
ATOM     14  N   UNL     1       4.521  -2.022   3.080  0.00  0.00    -0.305 N 
ATOM     15  H   UNL     1       4.790  -2.205   3.994  0.00  0.00    +0.149 HD
BRANCH  14  16
ATOM     16  C   UNL     1       5.304  -2.560   1.965  0.00  0.00    +0.067 C 
ATOM     17  C   UNL     1       6.742  -2.807   2.423  0.00  0.00    +0.027 C 
ATOM     18  C   UNL     1       4.684  -3.878   1.496  0.00  0.00    +0.027 C 
ENDBRANCH  14  16
ENDBRANCH   6  12
BRANCH   1  20
ATOM     19  C   UNL     1      -0.013   1.086   0.008  0.00  0.00    +0.010 C 
ATOM     20  C   UNL     1      -0.729   1.579   1.267  0.00  0.00    +0.049 C 
ENDBRANCH   1  20
BRANCH   4  21
ATOM     21  O   UNL     1       0.065  -0.386   5.562  0.00  0.00    -0.363 OA
ATOM     22  H   UNL     1       0.701  -0.925   6.053  0.00  0.00    +0.212 HD
ENDBRANCH   4  21
TORSDOF 5
