REMARK  Name = ZINC39684655
REMARK  11 active torsions:
REMARK  status: ('A' for Active; 'I' for Inactive)
REMARK    1  A    between atoms: C_1  and  C_2
REMARK    2  A    between atoms: C_12  and  O_13
REMARK    3  A    between atoms: O_13  and  C_14
REMARK    4  A    between atoms: C_14  and  C_15
REMARK    5  A    between atoms: C_19  and  C_28
REMARK    6  A    between atoms: N_30  and  C_31
REMARK    7  A    between atoms: C_31  and  C_33
REMARK    8  A    between atoms: C_31  and  C_34
REMARK    9  A    between atoms: C_34  and  C_35
REMARK   10  A    between atoms: C_34  and  C_36
REMARK   11  A    between atoms: C_34  and  C_37
REMARK                            x       y       z     vdW  Elec       q    Type
REMARK                         _______ _______ _______ _____ _____    ______ ____
ROOT
ATOM      1  C   UNL     1       0.138  -6.553   3.318  0.00  0.00    +0.253 C 
ATOM      2  O   UNL     1       0.093  -7.010   2.196  0.00  0.00    -0.272 OA
ATOM      3  N   UNL     1       0.125  -7.378   4.383  0.00  0.00    -0.297 N 
ATOM      4  C   UNL     1       0.166  -7.011   5.818  0.00  0.00    +0.121 C 
ATOM      5  C   UNL     1      -0.808  -7.996   6.502  0.00  0.00    +0.100 C 
ATOM      6  C   UNL     1      -0.868  -9.208   5.556  0.00  0.00    -0.004 C 
ATOM      7  C   UNL     1       0.060  -8.860   4.384  0.00  0.00    +0.115 C 
ATOM      8  C   UNL     1      -2.293  -9.414   5.051  0.00  0.00    -0.010 C 
ATOM      9  C   UNL     1      -2.338 -10.658   4.159  0.00  0.00    -0.082 C 
ATOM     10  N   UNL     1      -1.895 -11.829   4.926  0.00  0.00    +0.379 N 
ATOM     11  C   UNL     1      -0.494 -11.662   5.329  0.00  0.00    -0.082 C 
ATOM     12  C   UNL     1      -0.371 -10.461   6.271  0.00  0.00    -0.010 C 
ATOM     13  H   UNL     1      -2.471 -11.927   5.748  0.00  0.00    -0.086 HD
ATOM     14  H   UNL     1      -1.984 -12.656   4.355  0.00  0.00    -0.086 HD
ENDROOT
BRANCH   5  15
ATOM     15  C   UNL     1      -0.278  -8.407   7.851  0.00  0.00    +0.218 C 
ATOM     16  O   UNL     1       0.918  -8.472   8.039  0.00  0.00    -0.275 OA
ATOM     17  N   UNL     1      -1.134  -8.701   8.850  0.00  0.00    -0.312 N 
ATOM     18  H   UNL     1      -2.091  -8.649   8.700  0.00  0.00    +0.149 HD
BRANCH  17  19
ATOM     19  C   UNL     1      -0.619  -9.100  10.162  0.00  0.00    +0.075 C 
ATOM     20  C   UNL     1      -0.312  -7.851  10.991  0.00  0.00    +0.028 C 
BRANCH  19  21
ATOM     21  C   UNL     1      -1.668  -9.947  10.886  0.00  0.00    -0.020 C 
ATOM     22  C   UNL     1      -1.975 -11.196  10.057  0.00  0.00    +0.012 C 
ATOM     23  C   UNL     1      -1.130 -10.364  12.256  0.00  0.00    +0.012 C 
ATOM     24  C   UNL     1      -2.948  -9.128  11.068  0.00  0.00    +0.012 C 
ENDBRANCH  19  21
ENDBRANCH  17  19
ENDBRANCH   5  15
BRANCH   1  25
ATOM     25  C   UNL     1       0.208  -5.061   3.522  0.00  0.00    +0.324 C 
BRANCH  25  26
ATOM     26  O   UNL     1       0.209  -4.406   2.252  0.00  0.00    -0.479 OA
BRANCH  26  38
ATOM     27  C   UNL     1       0.405   1.297  -0.219  0.00  0.00    +0.045 C 
ATOM     28  C   UNL     1       0.340  -0.209  -0.193  0.00  0.00    -0.033 A 
ATOM     29  C   UNL     1       0.283  -0.924  -1.344  0.00  0.00    +0.096 A 
ATOM     30  C   UNL     1       0.223  -2.333  -1.293  0.00  0.00    +0.338 A 
ATOM     31  O   UNL     1       0.173  -2.964  -2.333  0.00  0.00    -0.245 OA
ATOM     32  O   UNL     1       0.219  -2.996  -0.126  0.00  0.00    -0.418 OA
ATOM     33  C   UNL     1       0.274  -2.344   1.056  0.00  0.00    +0.181 A 
ATOM     34  C   UNL     1       0.341  -0.941   1.078  0.00  0.00    +0.024 A 
ATOM     35  C   UNL     1       0.403  -0.263   2.300  0.00  0.00    +0.012 A 
ATOM     36  C   UNL     1       0.403  -0.977   3.477  0.00  0.00    +0.004 A 
ATOM     37  C   UNL     1       0.342  -2.362   3.458  0.00  0.00    +0.049 A 
ATOM     38  C   UNL     1       0.269  -3.048   2.258  0.00  0.00    +0.164 A 
ENDBRANCH  26  38
ENDBRANCH  25  26
ENDBRANCH   1  25
TORSDOF 6
