REMARK  Name = ZINC59564804
REMARK  9 active torsions:
REMARK  status: ('A' for Active; 'I' for Inactive)
REMARK    1  A    between atoms: C_1  and  C_2
REMARK    2  A    between atoms: C_2  and  C_3
REMARK    3  A    between atoms: C_3  and  C_5
REMARK    4  A    between atoms: C_3  and  S_21
REMARK    5  A    between atoms: S_21  and  C_22
REMARK    6  A    between atoms: C_24  and  C_33
REMARK    7  A    between atoms: C_24  and  C_34
REMARK    8  A    between atoms: N_26  and  C_27
REMARK    9  A    between atoms: C_34  and  C_35
REMARK                            x       y       z     vdW  Elec       q    Type
REMARK                         _______ _______ _______ _____ _____    ______ ____
ROOT
ATOM      1  C   UNL     1       0.435   0.636  -1.652  0.00  0.00    +0.140 C 
ENDROOT
BRANCH   1   2
ATOM      2  C   UNL     1      -0.068  -0.784  -1.668  0.00  0.00    +0.238 C 
ATOM      3  O   UNL     1       0.522  -1.644  -1.047  0.00  0.00    -0.274 OA
ATOM      4  N   UNL     1      -1.173  -1.100  -2.372  0.00  0.00    -0.237 N 
ATOM      5  C   UNL     1      -1.746  -2.367  -2.208  0.00  0.00    +0.055 A 
ATOM      6  C   UNL     1      -0.941  -3.482  -2.037  0.00  0.00    +0.025 A 
ATOM      7  C   UNL     1      -1.514  -4.731  -1.877  0.00  0.00    +0.002 A 
ATOM      8  C   UNL     1      -2.889  -4.877  -1.887  0.00  0.00    +0.001 A 
ATOM      9  C   UNL     1      -3.703  -3.771  -2.056  0.00  0.00    +0.017 A 
ATOM     10  C   UNL     1      -3.135  -2.520  -2.217  0.00  0.00    +0.035 A 
ATOM     11  S   UNL     1      -4.147  -1.090  -2.435  0.00  0.00    -0.086 S 
ATOM     12  C   UNL     1      -3.102  -0.030  -3.385  0.00  0.00    +0.035 A 
ATOM     13  C   UNL     1      -1.720  -0.149  -3.243  0.00  0.00    +0.055 A 
ATOM     14  C   UNL     1      -0.892   0.683  -3.981  0.00  0.00    +0.025 A 
ATOM     15  C   UNL     1      -1.439   1.618  -4.840  0.00  0.00    +0.002 A 
ATOM     16  C   UNL     1      -2.811   1.731  -4.972  0.00  0.00    +0.001 A 
ATOM     17  C   UNL     1      -3.641   0.904  -4.250  0.00  0.00    +0.017 A 
ENDBRANCH   1   2
BRANCH   1  19
ATOM     18  C   UNL     1       0.134   2.890  -0.617  0.00  0.00    +0.005 C 
ATOM     19  C   UNL     1      -0.281   1.419  -0.550  0.00  0.00    +0.020 C 
ENDBRANCH   1  19
BRANCH   1  20
ATOM     20  S   UNL     1       2.221   0.641  -1.335  0.00  0.00    -0.078 S 
BRANCH  20  21
ATOM     21  C   UNL     1       2.907  -0.168  -2.742  0.00  0.00    +0.151 C 
ATOM     22  N   UNL     1       2.197  -0.718  -3.682  0.00  0.00    -0.348 N 
ATOM     23  C   UNL     1       3.125  -1.283  -4.671  0.00  0.00    +0.104 C 
ATOM     24  N   UNL     1       4.467  -0.967  -4.144  0.00  0.00    -0.209 NA
ATOM     25  N   UNL     1       4.251  -0.286  -2.977  0.00  0.00    -0.213 N 
ATOM     26  C   UNL     1       2.936  -2.798  -4.776  0.00  0.00    +0.053 C 
ATOM     27  H   UNL     1       5.000  -1.808  -3.982  0.00  0.00    +0.147 HD
ATOM     28  H   UNL     1       1.228  -0.749  -3.722  0.00  0.00    +0.163 HD
BRANCH  25  29
ATOM     29  C   UNL     1       5.257   0.213  -2.143  0.00  0.00    +0.052 A 
ATOM     30  C   UNL     1       5.217  -0.037  -0.778  0.00  0.00    +0.025 A 
ATOM     31  C   UNL     1       6.212   0.457   0.043  0.00  0.00    +0.002 A 
ATOM     32  C   UNL     1       7.248   1.200  -0.494  0.00  0.00    +0.000 A 
ATOM     33  C   UNL     1       7.291   1.450  -1.853  0.00  0.00    +0.002 A 
ATOM     34  C   UNL     1       6.301   0.955  -2.680  0.00  0.00    +0.025 A 
ENDBRANCH  25  29
BRANCH  23  35
ATOM     35  C   UNL     1       2.918  -0.622  -6.036  0.00  0.00    +0.042 C 
ATOM     36  C   UNL     1       1.493  -0.892  -6.523  0.00  0.00    +0.007 C 
ENDBRANCH  23  35
ENDBRANCH  20  21
ENDBRANCH   1  20
TORSDOF 6
