REMARK  Name = ZINC40760212
REMARK  6 active torsions:
REMARK  status: ('A' for Active; 'I' for Inactive)
REMARK    1  A    between atoms: C_1  and  C_2
REMARK    2  A    between atoms: C_2  and  C_4
REMARK    3  A    between atoms: C_2  and  N_10
REMARK    4  A    between atoms: C_12  and  N_26
REMARK    5  A    between atoms: C_13  and  N_17
REMARK    6  A    between atoms: N_17  and  C_18
REMARK                            x       y       z     vdW  Elec       q    Type
REMARK                         _______ _______ _______ _____ _____    ______ ____
ROOT
ATOM      1  N   UNL     1      -1.129  -1.424  -0.120  0.00  0.00    -0.321 N 
ATOM      2  C   UNL     1      -1.891  -1.321  -1.278  0.00  0.00    +0.145 A 
ATOM      3  C   UNL     1      -3.263  -1.580  -1.249  0.00  0.00    +0.105 A 
ATOM      4  C   UNL     1      -3.981  -1.462  -2.440  0.00  0.00    +0.149 A 
ATOM      5  N   UNL     1      -3.336  -1.109  -3.550  0.00  0.00    -0.219 NA
ATOM      6  C   UNL     1      -2.040  -0.873  -3.533  0.00  0.00    +0.225 A 
ATOM      7  N   UNL     1      -1.326  -0.968  -2.430  0.00  0.00    -0.219 NA
ATOM      8  H   UNL     1      -1.549  -1.681   0.716  0.00  0.00    +0.148 HD
ENDROOT
BRANCH   3   9
ATOM      9  N   UNL     1      -3.902  -1.951  -0.055  0.00  0.00    -0.353 N 
ATOM     10  H   UNL     1      -3.390  -2.030   0.765  0.00  0.00    +0.143 HD
ATOM     11  H   UNL     1      -4.856  -2.128  -0.050  0.00  0.00    +0.143 HD
ENDBRANCH   3   9
BRANCH   1  13
ATOM     12  C   UNL     1       0.539   0.362  -0.004  0.00  0.00    +0.033 C 
ATOM     13  C   UNL     1       0.308  -1.143  -0.162  0.00  0.00    +0.099 C 
BRANCH  13  14
ATOM     14  C   UNL     1       0.996  -1.876   0.961  0.00  0.00    -0.028 A 
ATOM     15  C   UNL     1       0.398  -1.955   2.204  0.00  0.00    +0.005 A 
ATOM     16  C   UNL     1       1.029  -2.628   3.234  0.00  0.00    +0.000 A 
ATOM     17  C   UNL     1       2.258  -3.223   3.019  0.00  0.00    +0.000 A 
ATOM     18  C   UNL     1       2.856  -3.145   1.776  0.00  0.00    +0.000 A 
ATOM     19  C   UNL     1       2.223  -2.475   0.745  0.00  0.00    +0.005 A 
ENDBRANCH  13  14
ENDBRANCH   1  13
BRANCH   4  20
ATOM     20  N   UNL     1      -5.349  -1.710  -2.467  0.00  0.00    -0.297 N 
ATOM     21  H   UNL     1      -5.829  -1.873  -1.640  0.00  0.00    +0.154 HD
BRANCH  20  22
ATOM     22  C   UNL     1      -6.033  -1.724  -3.687  0.00  0.00    +0.052 A 
ATOM     23  C   UNL     1      -5.348  -1.989  -4.865  0.00  0.00    +0.044 A 
ATOM     24  C   UNL     1      -6.027  -2.002  -6.069  0.00  0.00    +0.043 A 
ATOM     25  C   UNL     1      -7.388  -1.752  -6.101  0.00  0.00    +0.021 A 
ATOM     26  C   UNL     1      -8.072  -1.487  -4.929  0.00  0.00    +0.023 A 
ATOM     27  C   UNL     1      -7.400  -1.478  -3.721  0.00  0.00    +0.062 A 
ATOM     28 CL   UNL     1      -8.262  -1.153  -2.250  0.00  0.00    -0.082 Cl
ATOM     29 CL   UNL     1      -5.172  -2.333  -7.543  0.00  0.00    -0.083 Cl
ENDBRANCH  20  22
ENDBRANCH   4  20
TORSDOF 5
