REMARK  Name = ZINC39273774
REMARK  4 active torsions:
REMARK  status: ('A' for Active; 'I' for Inactive)
REMARK    1  A    between atoms: C_1  and  C_2
REMARK    2  A    between atoms: N_16  and  N_17
REMARK    3  A    between atoms: C_18  and  C_19
REMARK    4  A    between atoms: C_24  and  O_25
REMARK                            x       y       z     vdW  Elec       q    Type
REMARK                         _______ _______ _______ _____ _____    ______ ____
ROOT
ATOM      1  C   UNL     1      -0.387   2.264   0.136  0.00  0.00    +0.046 C 
ATOM      2  C   UNL     1      -0.843   0.861  -0.173  0.00  0.00    -0.027 A 
ATOM      3  C   UNL     1      -1.209   0.522  -1.430  0.00  0.00    +0.005 A 
ATOM      4  C   UNL     1      -1.636  -0.774  -1.750  0.00  0.00    +0.001 A 
ATOM      5  C   UNL     1      -1.736  -1.753  -0.822  0.00  0.00    +0.012 A 
ATOM      6  C   UNL     1      -1.409  -1.501   0.529  0.00  0.00    +0.025 A 
ATOM      7  C   UNL     1      -1.518  -2.225   1.688  0.00  0.00    +0.115 C 
ATOM      8  C   UNL     1      -0.738  -1.435   2.732  0.00  0.00    +0.253 C 
ATOM      9  N   UNL     1      -0.572  -0.106   2.157  0.00  0.00    -0.358 N 
ATOM     10  C   UNL     1      -0.889  -0.154   0.886  0.00  0.00    +0.049 A 
ATOM     11  N   UNL     1      -1.547  -1.466   3.952  0.00  0.00    -0.220 NA
ATOM     12  C   UNL     1      -2.349  -2.485   4.136  0.00  0.00    +0.227 C 
ATOM     13  N   UNL     1      -2.516  -3.484   3.236  0.00  0.00    -0.247 N 
ATOM     14  N   UNL     1      -2.135  -3.364   2.007  0.00  0.00    -0.171 NA
ATOM     15  N   UNL     1      -3.066  -2.544   5.314  0.00  0.00    -0.206 N 
ATOM     16  H   UNL     1      -3.668  -3.287   5.478  0.00  0.00    +0.177 HD
ATOM     17  H   UNL     1      -2.941  -4.308   3.521  0.00  0.00    +0.192 HD
ATOM     18  H   UNL     1      -0.273   0.683   2.635  0.00  0.00    +0.162 HD
ENDROOT
BRANCH  15  19
ATOM     19  N   UNL     1      -2.924  -1.532   6.272  0.00  0.00    -0.187 NA
ATOM     20  C   UNL     1      -3.514  -1.641   7.424  0.00  0.00    +0.142 C 
BRANCH  20  21
ATOM     21  C   UNL     1      -4.116  -2.925   7.825  0.00  0.00    +0.038 A 
ATOM     22  C   UNL     1      -3.634  -4.123   7.293  0.00  0.00    +0.028 A 
ATOM     23  C   UNL     1      -4.202  -5.322   7.672  0.00  0.00    +0.020 A 
ATOM     24  C   UNL     1      -5.248  -5.342   8.580  0.00  0.00    +0.034 A 
ATOM     25  C   UNL     1      -5.734  -4.163   9.113  0.00  0.00    +0.061 A 
ATOM     26  C   UNL     1      -5.171  -2.950   8.747  0.00  0.00    +0.139 A 
ATOM     27 BR   UNL     1      -7.163  -4.204  10.350  0.00  0.00    -0.046 Br
ATOM     28 BR   UNL     1      -3.549  -6.943   6.951  0.00  0.00    -0.050 Br
BRANCH  26  29
ATOM     29  O   UNL     1      -5.644  -1.792   9.274  0.00  0.00    -0.505 OA
ATOM     30  H   UNL     1      -6.308  -1.352   8.726  0.00  0.00    +0.292 HD
ENDBRANCH  26  29
ENDBRANCH  20  21
ENDBRANCH  15  19
TORSDOF 3
