REMARK  Name = ZINC38805018
REMARK  7 active torsions:
REMARK  status: ('A' for Active; 'I' for Inactive)
REMARK    1  A    between atoms: C_1  and  C_2
REMARK    2  A    between atoms: C_2  and  O_3
REMARK    3  A    between atoms: O_3  and  C_4
REMARK    4  A    between atoms: C_12  and  N_17
REMARK    5  A    between atoms: C_13  and  C_14
REMARK    6  A    between atoms: C_18  and  C_20
REMARK    7  A    between atoms: C_20  and  C_25
REMARK                            x       y       z     vdW  Elec       q    Type
REMARK                         _______ _______ _______ _____ _____    ______ ____
ROOT
ATOM      1  C   UNL     1      -0.826  -2.448  -1.630  0.00  0.00    +0.403 C 
ATOM      2  O   UNL     1      -1.586  -3.127  -0.969  0.00  0.00    -0.226 OA
ATOM      3  N   UNL     1      -0.172  -2.992  -2.676  0.00  0.00    -0.262 N 
ATOM      4  C   UNL     1      -0.365  -4.403  -3.043  0.00  0.00    +0.116 C 
ATOM      5  C   UNL     1      -1.006  -4.489  -4.430  0.00  0.00    +0.056 C 
ATOM      6  C   UNL     1      -0.263  -3.563  -5.381  0.00  0.00    -0.020 A 
ATOM      7  C   UNL     1       0.510  -2.553  -4.927  0.00  0.00    +0.013 A 
ATOM      8  S   UNL     1       1.143  -1.777  -6.384  0.00  0.00    -0.076 S 
ATOM      9  C   UNL     1       0.425  -2.741  -7.556  0.00  0.00    +0.084 A 
ATOM     10  C   UNL     1      -0.308  -3.667  -6.830  0.00  0.00    +0.068 A 
ATOM     11  C   UNL     1       0.758  -2.192  -3.497  0.00  0.00    +0.153 C 
ENDROOT
BRANCH  10  12
ATOM     12  C   UNL     1      -1.096  -4.708  -7.496  0.00  0.00    +0.244 C 
ATOM     13  O   UNL     1      -2.257  -4.496  -7.793  0.00  0.00    -0.270 OA
ATOM     14  N   UNL     1      -0.535  -5.900  -7.780  0.00  0.00    -0.325 N 
ATOM     15  H   UNL     1       0.390  -6.069  -7.543  0.00  0.00    +0.145 HD
ATOM     16  H   UNL     1      -1.056  -6.589  -8.221  0.00  0.00    +0.145 HD
ENDBRANCH  10  12
BRANCH   9  17
ATOM     17  N   UNL     1       0.539  -2.637  -8.934  0.00  0.00    -0.279 N 
ATOM     18  C   UNL     1       1.303  -1.667  -9.475  0.00  0.00    +0.228 C 
ATOM     19  O   UNL     1       1.816  -0.830  -8.762  0.00  0.00    -0.274 OA
ATOM     20  H   UNL     1       0.070  -3.261  -9.509  0.00  0.00    +0.155 HD
BRANCH  18  21
ATOM     21  C   UNL     1       1.520  -1.622 -10.966  0.00  0.00    +0.072 C 
ATOM     22  C   UNL     1       0.163  -1.549 -11.695  0.00  0.00    +0.021 C 
ATOM     23  C   UNL     1      -0.050  -0.037 -11.953  0.00  0.00    +0.001 C 
ATOM     24  C   UNL     1       1.378   0.456 -12.296  0.00  0.00    +0.001 C 
ATOM     25  C   UNL     1       2.293  -0.347 -11.347  0.00  0.00    +0.021 C 
BRANCH  21  26
ATOM     26  C   UNL     1       2.283  -2.842 -11.413  0.00  0.00    -0.032 A 
ATOM     27  C   UNL     1       2.496  -3.068 -12.760  0.00  0.00    +0.006 A 
ATOM     28  C   UNL     1       3.196  -4.186 -13.171  0.00  0.00    +0.020 A 
ATOM     29  C   UNL     1       3.684  -5.080 -12.234  0.00  0.00    +0.041 A 
ATOM     30  C   UNL     1       3.470  -4.853 -10.886  0.00  0.00    +0.020 A 
ATOM     31  C   UNL     1       2.775  -3.731 -10.476  0.00  0.00    +0.006 A 
ATOM     32 CL   UNL     1       4.562  -6.486 -12.749  0.00  0.00    -0.084 Cl
ENDBRANCH  21  26
ENDBRANCH  18  21
ENDBRANCH   9  17
BRANCH   1  33
ATOM     33  O   UNL     1      -0.636  -1.152  -1.318  0.00  0.00    -0.451 OA
BRANCH  33  35
ATOM     34  C   UNL     1      -1.018   0.836   0.001  0.00  0.00    +0.048 C 
ATOM     35  C   UNL     1      -1.360  -0.642  -0.197  0.00  0.00    +0.230 C 
ENDBRANCH  33  35
ENDBRANCH   1  33
TORSDOF 6
