REMARK  Name = ZINC00254936
REMARK  4 active torsions:
REMARK  status: ('A' for Active; 'I' for Inactive)
REMARK    1  A    between atoms: C_1  and  S_2
REMARK    2  A    between atoms: S_2  and  N_5
REMARK    3  A    between atoms: N_5  and  C_6
REMARK    4  A    between atoms: C_9  and  O_13
REMARK                            x       y       z     vdW  Elec       q    Type
REMARK                         _______ _______ _______ _____ _____    ______ ____
ROOT
ATOM      1  C   UNL     1       1.191   1.804   0.019  0.00  0.00    +0.050 A 
ATOM      2  C   UNL     1      -0.010   1.112   0.102  0.00  0.00    +0.043 A 
ATOM      3  C   UNL     1      -1.206   1.804   0.129  0.00  0.00    +0.062 A 
ATOM      4  C   UNL     1      -1.206   3.191   0.085  0.00  0.00    +0.145 A 
ATOM      5  C   UNL     1      -0.006   3.883   0.002  0.00  0.00    +0.062 A 
ATOM      6  C   UNL     1       1.190   3.192  -0.032  0.00  0.00    +0.043 A 
ATOM      7 BR   UNL     1      -0.008   5.773  -0.066  0.00  0.00    -0.046 Br
ATOM      8 BR   UNL     1      -2.841   0.862   0.235  0.00  0.00    -0.046 Br
ENDROOT
BRANCH   1   9
ATOM      9  N   UNL     1       2.402   1.103  -0.015  0.00  0.00    -0.221 N 
ATOM     10  H   UNL     1       2.561   0.379   0.610  0.00  0.00    +0.173 HD
BRANCH   9  12
ATOM     11  C   UNL     1       2.785   1.234  -2.738  0.00  0.00    +0.218 C 
ATOM     12  S   UNL     1       3.563   1.511  -1.123  0.00  0.00    +0.040 S 
ATOM     13  O   UNL     1       3.788   2.899  -0.919  0.00  0.00    -0.155 OA
ATOM     14  O   UNL     1       4.608   0.570  -0.916  0.00  0.00    -0.155 OA
ENDBRANCH   9  12
ENDBRANCH   1   9
BRANCH   4  15
ATOM     15  O   UNL     1      -2.383   3.872   0.118  0.00  0.00    -0.505 OA
ATOM     16  H   UNL     1      -2.766   4.038  -0.754  0.00  0.00    +0.292 HD
ENDBRANCH   4  15
TORSDOF 3
