REMARK  Name = ZINC22283933
REMARK  7 active torsions:
REMARK  status: ('A' for Active; 'I' for Inactive)
REMARK    1  A    between atoms: C_6  and  N_28
REMARK    2  A    between atoms: C_8  and  S_10
REMARK    3  A    between atoms: S_10  and  C_11
REMARK    4  A    between atoms: C_11  and  C_12
REMARK    5  A    between atoms: N_14  and  C_15
REMARK    6  A    between atoms: C_15  and  C_16
REMARK    7  A    between atoms: C_16  and  N_22
REMARK                            x       y       z     vdW  Elec       q    Type
REMARK                         _______ _______ _______ _____ _____    ______ ____
ROOT
ATOM      1  C   UNL     1      -1.073   3.404   0.947  0.00  0.00    +0.223 C 
ATOM      2  O   UNL     1      -0.670   4.111   0.048  0.00  0.00    -0.275 OA
ATOM      3  N   UNL     1      -0.812   2.082   0.934  0.00  0.00    -0.313 N 
ATOM      4  H   UNL     1      -1.178   1.440   1.749  0.00  0.00    +0.149 HD
ENDROOT
BRANCH   1   5
ATOM      5  C   UNL     1      -1.867   4.003   2.079  0.00  0.00    +0.173 C 
BRANCH   5   6
ATOM      6  S   UNL     1      -2.049   5.784   1.811  0.00  0.00    -0.077 S 
BRANCH   6  14
ATOM      7  C   UNL     1      -5.207   7.059   6.668  0.00  0.00    +0.021 A 
ATOM      8  C   UNL     1      -5.460   5.988   7.434  0.00  0.00    +0.048 A 
ATOM      9  S   UNL     1      -4.675   4.652   6.553  0.00  0.00    -0.077 S 
ATOM     10  C   UNL     1      -4.028   5.568   5.179  0.00  0.00    +0.114 A 
ATOM     11  C   UNL     1      -4.441   6.892   5.444  0.00  0.00    +0.047 A 
ATOM     12  C   UNL     1      -4.048   7.861   4.480  0.00  0.00    +0.129 A 
ATOM     13  N   UNL     1      -3.344   7.479   3.428  0.00  0.00    -0.207 NA
ATOM     14  C   UNL     1      -2.988   6.214   3.239  0.00  0.00    +0.191 A 
ATOM     15  N   UNL     1      -3.330   5.267   4.102  0.00  0.00    -0.215 NA
BRANCH  12  16
ATOM     16  N   UNL     1      -4.400   9.189   4.640  0.00  0.00    -0.343 N 
ATOM     17  H   UNL     1      -4.093   9.934   3.891  0.00  0.00    +0.144 HD
ATOM     18  H   UNL     1      -4.987   9.501   5.517  0.00  0.00    +0.144 HD
ENDBRANCH  12  16
ENDBRANCH   6  14
ENDBRANCH   5   6
ENDBRANCH   1   5
BRANCH   3  19
ATOM     19  C   UNL     1      -0.040   1.498  -0.167  0.00  0.00    +0.126 C 
BRANCH  19  20
ATOM     20  C   UNL     1       0.017  -0.021  -0.000  0.00  0.00    +0.038 C 
ATOM     21  C   UNL     1       0.804  -0.367   1.266  0.00  0.00    +0.024 C 
ATOM     22  C   UNL     1       2.225   0.187   1.150  0.00  0.00    +0.002 C 
ATOM     23  C   UNL     1       2.917  -0.433  -0.066  0.00  0.00    +0.000 C 
ATOM     24  C   UNL     1       2.130  -0.088  -1.332  0.00  0.00    +0.002 C 
ATOM     25  C   UNL     1       0.709  -0.642  -1.216  0.00  0.00    +0.024 C 
BRANCH  20  26
ATOM     26  N   UNL     1      -1.348  -0.553   0.111  0.00  0.00    -0.291 NA
ATOM     27  C   UNL     1      -1.331  -2.010   0.309  0.00  0.00    +0.113 C 
ATOM     28  C   UNL     1      -2.767  -2.513   0.479  0.00  0.00    +0.175 C 
ATOM     29  O   UNL     1      -3.539  -2.131  -0.662  0.00  0.00    -0.377 OA
ATOM     30  C   UNL     1      -3.577  -0.719  -0.884  0.00  0.00    +0.175 C 
ATOM     31  C   UNL     1      -2.150  -0.197  -1.069  0.00  0.00    +0.113 C 
ENDBRANCH  20  26
ENDBRANCH  19  20
ENDBRANCH   3  19
TORSDOF 7
