REMARK  Name = ZINC43587395
REMARK  3 active torsions:
REMARK  status: ('A' for Active; 'I' for Inactive)
REMARK    1  A    between atoms: C_3  and  C_17
REMARK    2  A    between atoms: C_17  and  C_18
REMARK    3  A    between atoms: C_18  and  C_19
REMARK                            x       y       z     vdW  Elec       q    Type
REMARK                         _______ _______ _______ _____ _____    ______ ____
ROOT
ATOM      1  C   UNL     1       0.533   1.633   0.149  0.00  0.00    +0.019 C 
ATOM      2  C   UNL     1       2.017   1.647  -0.223  0.00  0.00    +0.006 C 
ATOM      3  C   UNL     1       2.812   0.850   0.814  0.00  0.00    +0.007 C 
ATOM      4  C   UNL     1       2.328  -0.604   0.815  0.00  0.00    +0.112 C 
ATOM      5  N   UNL     1       0.874  -0.618   1.028  0.00  0.00    -0.285 N 
ATOM      6  C   UNL     1       0.022   0.189   0.142  0.00  0.00    +0.109 C 
ATOM      7  C   UNL     1       0.332  -1.357   2.016  0.00  0.00    +0.305 C 
ATOM      8  O   UNL     1       1.005  -1.674   2.977  0.00  0.00    -0.252 OA
ATOM      9  N   UNL     1      -0.957  -1.743   1.939  0.00  0.00    -0.287 N 
ATOM     10  C   UNL     1      -1.502  -2.621   2.994  0.00  0.00    +0.107 C 
ATOM     11  C   UNL     1      -2.922  -2.185   3.399  0.00  0.00    -0.000 C 
ATOM     12  C   UNL     1      -2.992  -0.675   3.441  0.00  0.00    -0.081 C 
ATOM     13  N   UNL     1      -3.466  -0.177   2.152  0.00  0.00    +0.380 N 
ATOM     14  C   UNL     1      -2.454   0.049   1.193  0.00  0.00    -0.063 C 
ATOM     15  C   UNL     1      -1.760  -1.278   0.827  0.00  0.00    +0.090 C 
ATOM     16  H   UNL     1      -4.119  -0.846   1.773  0.00  0.00    -0.086 HD
ATOM     17  H   UNL     1      -3.958   0.690   2.306  0.00  0.00    -0.086 HD
ENDROOT
BRANCH   3  18
ATOM     18  C   UNL     1       4.300   0.893   0.460  0.00  0.00    +0.016 C 
BRANCH  18  19
ATOM     19  C   UNL     1       5.106   0.202   1.562  0.00  0.00    +0.125 C 
BRANCH  19  20
ATOM     20  C   UNL     1       6.572   0.244   1.213  0.00  0.00    +0.356 C 
ATOM     21  O   UNL     1       6.937   0.778   0.180  0.00  0.00    -0.246 OA
ATOM     22  O   UNL     1       7.392  -0.255   1.965  0.00  0.00    -0.246 OA
ENDBRANCH  19  20
ENDBRANCH  18  19
ENDBRANCH   3  18
TORSDOF 3
