REMARK  Name = ZINC42572316
REMARK  5 active torsions:
REMARK  status: ('A' for Active; 'I' for Inactive)
REMARK    1  A    between atoms: C_1  and  C_2
REMARK    2  A    between atoms: N_10  and  C_11
REMARK    3  A    between atoms: C_11  and  C_13
REMARK    4  A    between atoms: C_11  and  C_14
REMARK    5  A    between atoms: N_16  and  C_17
REMARK                            x       y       z     vdW  Elec       q    Type
REMARK                         _______ _______ _______ _____ _____    ______ ____
ROOT
ATOM      1  C   UNL     1      -0.018   1.503   0.010  0.00  0.00    +0.044 C 
ATOM      2  C   UNL     1       0.002  -0.004   0.002  0.00  0.00    -0.048 A 
ATOM      3  C   UNL     1       0.006  -0.687  -1.202  0.00  0.00    +0.005 A 
ATOM      4  C   UNL     1       0.024  -2.068  -1.220  0.00  0.00    +0.028 A 
ATOM      5  C   UNL     1       0.040  -2.773  -0.027  0.00  0.00    +0.068 A 
ATOM      6  C   UNL     1       0.036  -2.085   1.188  0.00  0.00    +0.065 A 
ATOM      7  C   UNL     1       0.023  -0.698   1.196  0.00  0.00    +0.031 A 
ATOM      8  N   UNL     1       0.054  -3.046   2.196  0.00  0.00    -0.334 N 
ATOM      9  C   UNL     1       0.069  -4.263   1.620  0.00  0.00    +0.159 A 
ATOM     10  N   UNL     1       0.060  -4.131   0.280  0.00  0.00    -0.308 N 
ATOM     11  S   UNL     1       0.094  -5.752   2.465  0.00  0.00    -0.013 S 
ATOM     12  H   UNL     1       0.057  -2.868   3.149  0.00  0.00    +0.168 HD
ENDROOT
BRANCH  10  13
ATOM     13  C   UNL     1       0.070  -5.229  -0.689  0.00  0.00    +0.172 C 
ATOM     14  C   UNL     1       1.333  -6.071  -0.493  0.00  0.00    +0.041 C 
BRANCH  13  15
ATOM     15  C   UNL     1      -1.147  -6.093  -0.482  0.00  0.00    +0.235 C 
ATOM     16  O   UNL     1      -1.945  -5.819   0.389  0.00  0.00    -0.274 OA
ATOM     17  N   UNL     1      -1.349  -7.171  -1.266  0.00  0.00    -0.317 N 
ATOM     18  C   UNL     1      -2.533  -8.011  -1.065  0.00  0.00    +0.128 C 
ATOM     19  H   UNL     1      -0.712  -7.391  -1.963  0.00  0.00    +0.148 HD
ENDBRANCH  13  15
ENDBRANCH  10  13
TORSDOF 2
