REMARK  Name = ZINC64219082
REMARK  8 active torsions:
REMARK  status: ('A' for Active; 'I' for Inactive)
REMARK    1  A    between atoms: C_4  and  O_9
REMARK    2  A    between atoms: C_5  and  C_7
REMARK    3  A    between atoms: C_7  and  O_8
REMARK    4  A    between atoms: O_9  and  C_10
REMARK    5  A    between atoms: C_12  and  O_24
REMARK    6  A    between atoms: C_14  and  O_23
REMARK    7  A    between atoms: C_16  and  O_22
REMARK    8  A    between atoms: C_18  and  O_21
REMARK                            x       y       z     vdW  Elec       q    Type
REMARK                         _______ _______ _______ _____ _____    ______ ____
ROOT
ATOM      1  C   UNL     1       4.772   0.164  -0.045  0.00  0.00    +0.341 C 
ATOM      2  C   UNL     1       5.998  -0.747   0.063  0.00  0.00    +0.214 C 
ATOM      3  C   UNL     1       7.267   0.108  -0.007  0.00  0.00    +0.182 C 
ATOM      4  C   UNL     1       7.255   0.915  -1.309  0.00  0.00    +0.201 C 
ATOM      5  C   UNL     1       5.981   1.761  -1.363  0.00  0.00    +0.283 C 
ATOM      6  O   UNL     1       4.839   0.908  -1.263  0.00  0.00    -0.308 OA
ENDROOT
BRANCH   5   7
ATOM      7  O   UNL     1       5.935   2.474  -2.601  0.00  0.00    -0.365 OA
ATOM      8  H   UNL     1       5.153   3.033  -2.704  0.00  0.00    +0.213 HD
ENDBRANCH   5   7
BRANCH   4   9
ATOM      9  O   UNL     1       8.400   1.769  -1.352  0.00  0.00    -0.384 OA
ATOM     10  H   UNL     1       8.457   2.311  -2.151  0.00  0.00    +0.210 HD
ENDBRANCH   4   9
BRANCH   3  11
ATOM     11  O   UNL     1       8.417  -0.740   0.021  0.00  0.00    -0.386 OA
ATOM     12  H   UNL     1       9.258  -0.265  -0.020  0.00  0.00    +0.210 HD
ENDBRANCH   3  11
BRANCH   2  13
ATOM     13  O   UNL     1       5.963  -1.451   1.306  0.00  0.00    -0.383 OA
ATOM     14  H   UNL     1       5.182  -2.010   1.420  0.00  0.00    +0.210 HD
ENDBRANCH   2  13
BRANCH   1  15
ATOM     15  O   UNL     1       3.586  -0.632  -0.037  0.00  0.00    -0.460 OA
BRANCH  15  19
ATOM     16  C   UNL     1      -0.017   1.378   0.010  0.00  0.00    +0.001 A 
ATOM     17  C   UNL     1       1.170   2.088   0.002  0.00  0.00    +0.004 A 
ATOM     18  C   UNL     1       2.377   1.417  -0.013  0.00  0.00    +0.046 A 
ATOM     19  C   UNL     1       2.399   0.030  -0.021  0.00  0.00    +0.129 A 
ATOM     20  C   UNL     1       1.207  -0.680  -0.013  0.00  0.00    +0.020 A 
ATOM     21  C   UNL     1       0.002  -0.004   0.002  0.00  0.00    +0.009 A 
BRANCH  20  22
ATOM     22  C   UNL     1       1.227  -2.187  -0.022  0.00  0.00    +0.194 C 
BRANCH  22  23
ATOM     23  O   UNL     1      -0.114  -2.680  -0.011  0.00  0.00    -0.390 OA
ATOM     24  H   UNL     1      -0.178  -3.645  -0.016  0.00  0.00    +0.210 HD
ENDBRANCH  22  23
ENDBRANCH  20  22
ENDBRANCH  15  19
ENDBRANCH   1  15
TORSDOF 8
