REMARK  Name = ZINC33252497
REMARK  7 active torsions:
REMARK  status: ('A' for Active; 'I' for Inactive)
REMARK    1  A    between atoms: C_1  and  C_2
REMARK    2  A    between atoms: C_3  and  C_31
REMARK    3  A    between atoms: C_7  and  N_12
REMARK    4  A    between atoms: C_9  and  C_11
REMARK    5  A    between atoms: C_15  and  C_18
REMARK    6  A    between atoms: N_20  and  C_21
REMARK    7  A    between atoms: C_26  and  C_27
REMARK                            x       y       z     vdW  Elec       q    Type
REMARK                         _______ _______ _______ _____ _____    ______ ____
ROOT
ATOM      1  N   UNL     1      -1.210  -2.092   0.019  0.00  0.00    -0.314 N 
ATOM      2  C   UNL     1      -0.367  -2.635  -1.055  0.00  0.00    +0.107 C 
ATOM      3  C   UNL     1      -0.320  -4.160  -0.946  0.00  0.00    +0.032 C 
ATOM      4  C   UNL     1      -1.742  -4.719  -1.054  0.00  0.00    +0.078 C 
ATOM      5  C   UNL     1      -2.610  -4.101   0.045  0.00  0.00    +0.032 C 
ATOM      6  C   UNL     1      -2.591  -2.577  -0.093  0.00  0.00    +0.107 C 
ENDROOT
BRANCH   1  13
ATOM      7  C   UNL     1       0.433  -1.788   2.799  0.00  0.00    +0.048 C 
ATOM      8  C   UNL     1       0.171  -0.392   2.296  0.00  0.00    +0.003 A 
ATOM      9  C   UNL     1       0.541   0.758   2.878  0.00  0.00    +0.108 A 
ATOM     10  O   UNL     1       0.131   1.804   2.137  0.00  0.00    -0.442 OA
ATOM     11  C   UNL     1      -0.524   1.389   1.040  0.00  0.00    +0.233 A 
ATOM     12  C   UNL     1      -0.540  -0.016   1.072  0.00  0.00    +0.083 A 
ATOM     13  C   UNL     1      -1.169  -0.709   0.029  0.00  0.00    +0.136 A 
ATOM     14  N   UNL     1      -1.728  -0.003  -0.950  0.00  0.00    -0.217 NA
ATOM     15  C   UNL     1      -1.691   1.317  -0.941  0.00  0.00    +0.132 A 
ATOM     16  N   UNL     1      -1.115   2.006   0.020  0.00  0.00    -0.197 NA
ATOM     17  C   UNL     1      -2.341   2.065  -2.076  0.00  0.00    +0.088 C 
ATOM     18  C   UNL     1       1.305   0.863   4.173  0.00  0.00    +0.086 C 
ENDBRANCH   1  13
BRANCH   4  19
ATOM     19  C   UNL     1      -1.708  -6.217  -0.888  0.00  0.00    +0.220 C 
ATOM     20  O   UNL     1      -2.319  -6.740   0.020  0.00  0.00    -0.275 OA
ATOM     21  N   UNL     1      -1.000  -6.975  -1.748  0.00  0.00    -0.285 N 
ATOM     22  H   UNL     1      -0.387  -6.497  -2.526  0.00  0.00    +0.155 HD
BRANCH  21  23
ATOM     23  C   UNL     1      -1.044  -8.370  -1.651  0.00  0.00    +0.045 A 
ATOM     24  C   UNL     1      -1.150  -8.978  -0.407  0.00  0.00    +0.024 A 
ATOM     25  C   UNL     1      -1.193 -10.355  -0.315  0.00  0.00    +0.002 A 
ATOM     26  C   UNL     1      -1.132 -11.129  -1.459  0.00  0.00    +0.001 A 
ATOM     27  C   UNL     1      -1.026 -10.527  -2.700  0.00  0.00    +0.014 A 
ATOM     28  C   UNL     1      -0.988  -9.149  -2.799  0.00  0.00    +0.076 A 
BRANCH  28  29
ATOM     29  C   UNL     1      -0.880  -8.493  -4.152  0.00  0.00    +0.419 C 
ATOM     30  F   UNL     1      -0.840  -9.478  -5.145  0.00  0.00    -0.166 F 
ATOM     31  F   UNL     1      -1.989  -7.666  -4.359  0.00  0.00    -0.166 F 
ATOM     32  F   UNL     1       0.290  -7.728  -4.206  0.00  0.00    -0.166 F 
ENDBRANCH  28  29
ENDBRANCH  21  23
ENDBRANCH   4  19
TORSDOF 4
