REMARK  Name = ZINC60340241
REMARK  6 active torsions:
REMARK  status: ('A' for Active; 'I' for Inactive)
REMARK    1  A    between atoms: C_4  and  N_7
REMARK    2  A    between atoms: C_16  and  S_17
REMARK    3  A    between atoms: S_17  and  C_18
REMARK    4  A    between atoms: C_18  and  C_19
REMARK    5  A    between atoms: C_19  and  C_20
REMARK    6  A    between atoms: C_20  and  C_21
REMARK                            x       y       z     vdW  Elec       q    Type
REMARK                         _______ _______ _______ _____ _____    ______ ____
ROOT
ATOM      1  N   UNL     1       3.623  -0.652  -0.037  0.00  0.00    -0.255 N 
ATOM      2  C   UNL     1       3.631  -1.994   0.052  0.00  0.00    +0.268 A 
ATOM      3  O   UNL     1       2.586  -2.614   0.146  0.00  0.00    -0.267 OA
ATOM      4  C   UNL     1       4.884  -2.685   0.035  0.00  0.00    +0.076 A 
ATOM      5  C   UNL     1       5.127  -4.127   0.120  0.00  0.00    -0.023 A 
ATOM      6  C   UNL     1       6.411  -4.534   0.082  0.00  0.00    -0.004 A 
ATOM      7  S   UNL     1       7.362  -3.046  -0.068  0.00  0.00    -0.073 S 
ATOM      8  C   UNL     1       6.028  -1.876  -0.078  0.00  0.00    +0.117 A 
ATOM      9  N   UNL     1       5.953  -0.553  -0.161  0.00  0.00    -0.216 NA
ATOM     10  C   UNL     1       4.786   0.058  -0.149  0.00  0.00    +0.177 A 
ATOM     11  C   UNL     1       6.919  -5.942   0.152  0.00  0.00    +0.043 C 
ATOM     12  C   UNL     1       5.780  -6.844   0.650  0.00  0.00    +0.005 C 
ATOM     13  C   UNL     1       4.514  -6.520  -0.148  0.00  0.00    +0.005 C 
ATOM     14  C   UNL     1       3.991  -5.138   0.247  0.00  0.00    +0.037 C 
ENDROOT
BRANCH   1  18
ATOM     15  C   UNL     1      -0.017   1.377   0.011  0.00  0.00    +0.000 A 
ATOM     16  C   UNL     1       0.523   0.959  -1.191  0.00  0.00    +0.002 A 
ATOM     17  C   UNL     1       1.730   0.286  -1.210  0.00  0.00    +0.026 A 
ATOM     18  C   UNL     1       2.400   0.031  -0.021  0.00  0.00    +0.052 A 
ATOM     19  C   UNL     1       1.854   0.453   1.184  0.00  0.00    +0.026 A 
ATOM     20  C   UNL     1       0.647   1.124   1.197  0.00  0.00    +0.002 A 
ENDBRANCH   1  18
BRANCH  10  21
ATOM     21  S   UNL     1       4.723   1.815  -0.271  0.00  0.00    -0.087 S 
BRANCH  21  22
ATOM     22  C   UNL     1       6.464   2.308  -0.398  0.00  0.00    +0.078 C 
BRANCH  22  23
ATOM     23  C   UNL     1       6.556   3.831  -0.512  0.00  0.00    +0.020 C 
BRANCH  23  24
ATOM     24  C   UNL     1       8.025   4.247  -0.619  0.00  0.00    +0.097 C 
BRANCH  24  25
ATOM     25  C   UNL     1       8.115   5.747  -0.731  0.00  0.00    +0.220 C 
ATOM     26  O   UNL     1       7.105   6.417  -0.725  0.00  0.00    -0.275 OA
ATOM     27  N   UNL     1       9.319   6.344  -0.837  0.00  0.00    -0.240 N 
ATOM     28  C   UNL     1       9.400   7.685  -0.936  0.00  0.00    +0.303 C 
ATOM     29  O   UNL     1       8.387   8.357  -0.931  0.00  0.00    -0.253 OA
ATOM     30  N   UNL     1      10.604   8.282  -1.043  0.00  0.00    -0.313 N 
ATOM     31  H   UNL     1      10.127   5.808  -0.841  0.00  0.00    +0.159 HD
ATOM     32  H   UNL     1      11.412   7.746  -1.047  0.00  0.00    +0.146 HD
ATOM     33  H   UNL     1      10.662   9.248  -1.114  0.00  0.00    +0.146 HD
ENDBRANCH  24  25
ENDBRANCH  23  24
ENDBRANCH  22  23
ENDBRANCH  21  22
ENDBRANCH  10  21
TORSDOF 6
