REMARK  Name = ZINC37692774
REMARK  3 active torsions:
REMARK  status: ('A' for Active; 'I' for Inactive)
REMARK    1  A    between atoms: C_5  and  N_8
REMARK    2  A    between atoms: N_8  and  C_9
REMARK    3  A    between atoms: C_16  and  O_18
REMARK                            x       y       z     vdW  Elec       q    Type
REMARK                         _______ _______ _______ _____ _____    ______ ____
ROOT
ATOM      1  N   UNL     1       1.238  -2.079  -0.021  0.00  0.00    -0.335 N 
ATOM      2  H   UNL     1       2.048  -2.088   0.512  0.00  0.00    +0.147 HD
ENDROOT
BRANCH   1   7
ATOM      3  C   UNL     1       1.783  -1.100  -3.524  0.00  0.00    +0.037 A 
ATOM      4  C   UNL     1       1.102   0.104  -3.568  0.00  0.00    +0.021 A 
ATOM      5  C   UNL     1       0.466   0.584  -2.437  0.00  0.00    +0.037 A 
ATOM      6  C   UNL     1       0.509  -0.138  -1.259  0.00  0.00    +0.064 A 
ATOM      7  C   UNL     1       1.192  -1.347  -1.212  0.00  0.00    +0.065 A 
ATOM      8  C   UNL     1       1.830  -1.826  -2.349  0.00  0.00    +0.064 A 
ATOM      9 CL   UNL     1       2.685  -3.336  -2.295  0.00  0.00    -0.082 Cl
ATOM     10 CL   UNL     1      -0.288   0.467   0.160  0.00  0.00    -0.082 Cl
ATOM     11 BR   UNL     1       1.040   1.094  -5.178  0.00  0.00    -0.050 Br
ENDBRANCH   1   7
BRANCH   1  12
ATOM     12  C   UNL     1       0.062  -2.833   0.421  0.00  0.00    +0.121 C 
ATOM     13  C   UNL     1       0.031  -2.838   1.965  0.00  0.00    +0.190 C 
ATOM     14  S   UNL     1      -0.613  -4.534   2.307  0.00  0.00    -0.027 S 
ATOM     15  O   UNL     1      -2.029  -4.534   2.185  0.00  0.00    -0.174 OA
ATOM     16  O   UNL     1      -0.007  -5.038   3.490  0.00  0.00    -0.174 OA
ATOM     17  C   UNL     1       0.127  -5.369   0.836  0.00  0.00    +0.199 C 
ATOM     18  C   UNL     1       0.117  -4.223  -0.196  0.00  0.00    +0.157 C 
BRANCH  18  19
ATOM     19  O   UNL     1      -1.020  -4.390  -1.046  0.00  0.00    -0.388 OA
ATOM     20  H   UNL     1      -1.062  -5.253  -1.480  0.00  0.00    +0.210 HD
ENDBRANCH  18  19
ENDBRANCH   1  12
TORSDOF 3
