REMARK  Name = ZINC48842762
REMARK  4 active torsions:
REMARK  status: ('A' for Active; 'I' for Inactive)
REMARK    1  A    between atoms: C_1  and  C_2
REMARK    2  A    between atoms: C_2  and  N_3
REMARK    3  A    between atoms: N_3  and  C_4
REMARK    4  A    between atoms: C_16  and  C_19
REMARK                            x       y       z     vdW  Elec       q    Type
REMARK                         _______ _______ _______ _____ _____    ______ ____
ROOT
ATOM      1  N   UNL     1       0.498  -0.922  -1.257  0.00  0.00    -0.283 N 
ATOM      2  C   UNL     1      -0.018   0.051  -2.034  0.00  0.00    +0.305 C 
ATOM      3  O   UNL     1      -1.011   0.654  -1.675  0.00  0.00    -0.252 OA
ATOM      4  N   UNL     1       0.566   0.355  -3.210  0.00  0.00    -0.285 N 
ATOM      5  C   UNL     1       2.018   0.213  -3.383  0.00  0.00    +0.109 C 
ATOM      6  C   UNL     1       2.285  -0.660  -4.613  0.00  0.00    +0.020 C 
ATOM      7  C   UNL     1       1.563  -0.063  -5.824  0.00  0.00    +0.018 C 
ATOM      8  C   UNL     1       0.056  -0.045  -5.563  0.00  0.00    +0.119 C 
ATOM      9  C   UNL     1      -0.237   0.829  -4.345  0.00  0.00    +0.124 C 
ENDROOT
BRANCH   1  10
ATOM     10  C   UNL     1       1.915  -0.891  -0.889  0.00  0.00    +0.074 C 
ATOM     11  C   UNL     1       2.451   0.537  -1.034  0.00  0.00    +0.003 C 
ATOM     12  C   UNL     1       3.950   0.547  -0.725  0.00  0.00    -0.081 C 
ATOM     13  N   UNL     1       4.652  -0.338  -1.662  0.00  0.00    +0.379 N 
ATOM     14  C   UNL     1       4.195  -1.721  -1.479  0.00  0.00    -0.081 C 
ATOM     15  C   UNL     1       2.706  -1.818  -1.817  0.00  0.00    +0.003 C 
ATOM     16  H   UNL     1       4.461  -0.044  -2.608  0.00  0.00    -0.086 HD
ATOM     17  H   UNL     1       5.645  -0.288  -1.490  0.00  0.00    -0.086 HD
ENDBRANCH   1  10
BRANCH   8  18
ATOM     18  C   UNL     1      -0.657   0.512  -6.768  0.00  0.00    +0.361 C 
ATOM     19  O   UNL     1      -0.552  -0.043  -7.848  0.00  0.00    -0.246 OA
ATOM     20  O   UNL     1      -1.338   1.518  -6.663  0.00  0.00    -0.246 OA
ENDBRANCH   8  18
BRANCH   1  22
ATOM     21  C   UNL     1      -0.835  -1.700   0.640  0.00  0.00    +0.024 C 
ATOM     22  C   UNL     1      -0.359  -2.010  -0.781  0.00  0.00    +0.106 C 
ENDBRANCH   1  22
TORSDOF 3
