REMARK  Name = ZINC61832037
REMARK  6 active torsions:
REMARK  status: ('A' for Active; 'I' for Inactive)
REMARK    1  A    between atoms: C_1  and  C_2
REMARK    2  A    between atoms: C_9  and  O_18
REMARK    3  A    between atoms: C_10  and  O_16
REMARK    4  A    between atoms: C_12  and  O_15
REMARK    5  A    between atoms: O_16  and  C_17
REMARK    6  A    between atoms: O_18  and  C_19
REMARK                            x       y       z     vdW  Elec       q    Type
REMARK                         _______ _______ _______ _____ _____    ______ ____
ROOT
ATOM      1  C   UNL     1      -0.019   1.526   0.010  0.00  0.00    +0.007 C 
ATOM      2  C   UNL     1       0.002  -0.004   0.002  0.00  0.00    -0.011 C 
ATOM      3  C   UNL     1      -1.428  -0.504  -0.046  0.00  0.00    +0.008 C 
ATOM      4  C   UNL     1      -1.472  -2.014  -0.291  0.00  0.00    +0.039 C 
ATOM      5  C   UNL     1      -1.344  -2.720   1.043  0.00  0.00    -0.003 A 
ATOM      6  C   UNL     1      -2.442  -3.378   1.575  0.00  0.00    +0.131 A 
ATOM      7  C   UNL     1      -2.331  -4.025   2.795  0.00  0.00    +0.088 A 
ATOM      8  C   UNL     1      -1.126  -4.013   3.479  0.00  0.00    +0.165 A 
ATOM      9  C   UNL     1      -0.027  -3.351   2.938  0.00  0.00    +0.168 A 
ATOM     10  C   UNL     1      -0.149  -2.707   1.716  0.00  0.00    +0.032 A 
ATOM     11  C   UNL     1       1.047  -1.988   1.129  0.00  0.00    +0.149 C 
ATOM     12  C   UNL     1       0.789  -0.481   1.206  0.00  0.00    +0.039 C 
ATOM     13  F   UNL     1      -3.615  -3.389   0.906  0.00  0.00    -0.205 F 
ENDROOT
BRANCH  11  14
ATOM     14  O   UNL     1       1.222  -2.381  -0.234  0.00  0.00    -0.387 OA
ATOM     15  H   UNL     1       1.373  -3.329  -0.353  0.00  0.00    +0.210 HD
ENDBRANCH  11  14
BRANCH   9  16
ATOM     16  O   UNL     1       1.159  -3.335   3.605  0.00  0.00    -0.491 OA
ATOM     17  C   UNL     1       2.075  -4.396   3.325  0.00  0.00    +0.277 C 
ENDBRANCH   9  16
BRANCH   8  18
ATOM     18  O   UNL     1      -1.017  -4.647   4.677  0.00  0.00    -0.491 OA
ATOM     19  C   UNL     1      -2.185  -5.306   5.171  0.00  0.00    +0.277 C 
ENDBRANCH   8  18
TORSDOF 3
