REMARK  Name = ZINC06044247
REMARK  6 active torsions:
REMARK  status: ('A' for Active; 'I' for Inactive)
REMARK    1  A    between atoms: C_1  and  C_2
REMARK    2  A    between atoms: C_5  and  C_9
REMARK    3  A    between atoms: C_6  and  C_8
REMARK    4  A    between atoms: C_11  and  C_29
REMARK    5  A    between atoms: C_12  and  N_28
REMARK    6  A    between atoms: N_13  and  C_21
REMARK                            x       y       z     vdW  Elec       q    Type
REMARK                         _______ _______ _______ _____ _____    ______ ____
ROOT
ATOM      1  C   UNL     1       0.506  -4.231  -0.145  0.00  0.00    +0.098 C 
ATOM      2  C   UNL     1       1.800  -4.476  -0.863  0.00  0.00    +0.077 C 
ATOM      3  C   UNL     1       1.818  -4.888  -2.157  0.00  0.00    +0.107 C 
ATOM      4  N   UNL     1       0.637  -5.097  -2.832  0.00  0.00    -0.257 N 
ATOM      5  C   UNL     1      -0.532  -5.289  -2.143  0.00  0.00    +0.025 C 
ATOM      6  C   UNL     1      -0.646  -4.894  -0.859  0.00  0.00    +0.025 C 
ATOM      7  C   UNL     1      -1.842  -5.086  -0.146  0.00  0.00    +0.162 C 
ATOM      8  O   UNL     1      -1.909  -4.732   1.014  0.00  0.00    -0.292 OA
ATOM      9  C   UNL     1      -3.042  -5.720  -0.794  0.00  0.00    +0.080 C 
ATOM     10  C   UNL     1      -3.005  -5.435  -2.300  0.00  0.00    +0.014 C 
ATOM     11  C   UNL     1      -1.682  -5.957  -2.856  0.00  0.00    +0.052 C 
ENDROOT
BRANCH   1  16
ATOM     12  C   UNL     1      -0.465   1.458   0.134  0.00  0.00    +0.044 C 
ATOM     13  C   UNL     1      -0.211  -0.025   0.061  0.00  0.00    -0.050 A 
ATOM     14  C   UNL     1      -0.240  -0.672  -1.160  0.00  0.00    +0.003 A 
ATOM     15  C   UNL     1      -0.008  -2.033  -1.227  0.00  0.00    +0.005 A 
ATOM     16  C   UNL     1       0.254  -2.748  -0.072  0.00  0.00    -0.032 A 
ATOM     17  C   UNL     1       0.283  -2.101   1.149  0.00  0.00    -0.046 A 
ATOM     18  C   UNL     1       0.055  -0.739   1.215  0.00  0.00    +0.007 A 
ATOM     19  C   UNL     1       0.567  -2.879   2.407  0.00  0.00    +0.044 C 
ENDBRANCH   1  16
BRANCH   4  20
ATOM     20  C   UNL     1       0.629  -5.114  -4.232  0.00  0.00    +0.075 A 
ATOM     21  C   UNL     1       0.823  -6.307  -4.915  0.00  0.00    +0.027 A 
ATOM     22  C   UNL     1       0.815  -6.320  -6.296  0.00  0.00    +0.002 A 
ATOM     23  C   UNL     1       0.615  -5.147  -7.000  0.00  0.00    +0.003 A 
ATOM     24  C   UNL     1       0.422  -3.956  -6.325  0.00  0.00    +0.040 A 
ATOM     25  C   UNL     1       0.423  -3.936  -4.942  0.00  0.00    +0.145 A 
ATOM     26  F   UNL     1       0.229  -2.773  -4.282  0.00  0.00    -0.204 F 
ENDBRANCH   4  20
BRANCH   3  27
ATOM     27  N   UNL     1       3.018  -5.095  -2.795  0.00  0.00    -0.345 N 
ATOM     28  H   UNL     1       3.851  -4.947  -2.320  0.00  0.00    +0.144 HD
ATOM     29  H   UNL     1       3.032  -5.389  -3.719  0.00  0.00    +0.144 HD
ENDBRANCH   3  27
BRANCH   2  30
ATOM     30  C   UNL     1       3.038  -4.270  -0.172  0.00  0.00    +0.099 C 
ATOM     31  N   UNL     1       4.019  -4.107   0.376  0.00  0.00    -0.191 NA
ENDBRANCH   2  30
TORSDOF 4
