REMARK  Name = ZINC37798479
REMARK  6 active torsions:
REMARK  status: ('A' for Active; 'I' for Inactive)
REMARK    1  A    between atoms: C_1  and  C_2
REMARK    2  A    between atoms: C_10  and  C_12
REMARK    3  A    between atoms: C_13  and  C_15
REMARK    4  A    between atoms: C_15  and  C_17
REMARK    5  A    between atoms: C_15  and  N_21
REMARK    6  A    between atoms: C_17  and  C_18
REMARK                            x       y       z     vdW  Elec       q    Type
REMARK                         _______ _______ _______ _____ _____    ______ ____
ROOT
ATOM      1  C   UNL     1      -0.018   1.503   0.010  0.00  0.00    +0.063 C 
ATOM      2  C   UNL     1       0.002  -0.004   0.002  0.00  0.00    +0.016 A 
ATOM      3  C   UNL     1       0.008  -0.789  -1.096  0.00  0.00    +0.023 A 
ATOM      4  C   UNL     1       0.024  -2.130  -0.658  0.00  0.00    +0.025 A 
ATOM      5  C   UNL     1       0.026  -2.111   0.684  0.00  0.00    +0.039 A 
ATOM      6  N   UNL     1       0.023  -0.807   1.100  0.00  0.00    -0.345 N 
ATOM      7  C   UNL     1       0.044  -0.381   2.504  0.00  0.00    +0.141 C 
ATOM      8  C   UNL     1      -0.395  -1.549   3.393  0.00  0.00    +0.130 C 
ATOM      9  N   UNL     1       0.309  -2.770   2.975  0.00  0.00    -0.293 N 
ATOM     10  C   UNL     1       0.034  -3.295   1.623  0.00  0.00    +0.120 C 
ATOM     11  C   UNL     1      -1.324  -3.999   1.587  0.00  0.00    +0.035 C 
ATOM     12  C   UNL     1       1.174  -3.390   3.802  0.00  0.00    +0.202 C 
ATOM     13  O   UNL     1       1.745  -4.396   3.438  0.00  0.00    -0.277 OA
ENDROOT
BRANCH  12  14
ATOM     14  C   UNL     1       1.430  -2.834   5.179  0.00  0.00    +0.022 C 
BRANCH  14  15
ATOM     15  N   UNL     1       1.995  -3.886   6.035  0.00  0.00    +0.386 N 
ATOM     16  H   UNL     1       2.166  -3.514   6.957  0.00  0.00    -0.089 HD
ATOM     17  H   UNL     1       1.343  -4.654   6.098  0.00  0.00    -0.089 HD
ATOM     18  H   UNL     1       2.862  -4.213   5.637  0.00  0.00    -0.089 HD
ENDBRANCH  14  15
BRANCH  14  19
ATOM     19  C   UNL     1       2.417  -1.670   5.083  0.00  0.00    +0.088 C 
BRANCH  19  20
ATOM     20  C   UNL     1       2.579  -1.035   6.441  0.00  0.00    +0.209 C 
ATOM     21  O   UNL     1       1.965  -1.472   7.391  0.00  0.00    -0.276 OA
ATOM     22  N   UNL     1       3.406   0.017   6.598  0.00  0.00    -0.329 N 
ATOM     23  H   UNL     1       3.897   0.366   5.838  0.00  0.00    +0.145 HD
ATOM     24  H   UNL     1       3.510   0.425   7.472  0.00  0.00    +0.145 HD
ENDBRANCH  19  20
ENDBRANCH  14  19
ENDBRANCH  12  14
TORSDOF 4
