REMARK  Name = ZINC49458176
REMARK  5 active torsions:
REMARK  status: ('A' for Active; 'I' for Inactive)
REMARK    1  A    between atoms: C_5  and  C_6
REMARK    2  A    between atoms: C_6  and  N_7
REMARK    3  A    between atoms: C_8  and  C_10
REMARK    4  A    between atoms: C_12  and  S_16
REMARK    5  A    between atoms: S_16  and  N_19
REMARK                            x       y       z     vdW  Elec       q    Type
REMARK                         _______ _______ _______ _____ _____    ______ ____
ROOT
ATOM      1  C   UNL     1      -2.953  -2.426  -2.992  0.00  0.00    +0.077 A 
ATOM      2  C   UNL     1      -3.965  -3.255  -3.452  0.00  0.00    +0.050 A 
ATOM      3  C   UNL     1      -4.090  -3.344  -4.817  0.00  0.00    +0.127 A 
ATOM      4  C   UNL     1      -3.241  -2.635  -5.604  0.00  0.00    +0.082 A 
ATOM      5  S   UNL     1      -2.253  -1.822  -4.516  0.00  0.00    -0.075 S 
ATOM      6 BR   UNL     1      -3.189  -2.571  -7.493  0.00  0.00    -0.041 Br
ENDROOT
BRANCH   1   8
ATOM      7  N   UNL     1      -1.544  -1.274  -1.371  0.00  0.00    -0.306 N 
ATOM      8  C   UNL     1      -2.564  -2.121  -1.612  0.00  0.00    +0.251 C 
ATOM      9  O   UNL     1      -3.163  -2.632  -0.684  0.00  0.00    -0.270 OA
ATOM     10  H   UNL     1      -1.067  -0.866  -2.111  0.00  0.00    +0.149 HD
BRANCH   7  11
ATOM     11  C   UNL     1      -1.156  -0.969   0.008  0.00  0.00    +0.147 C 
BRANCH  11  16
ATOM     12  C   UNL     1      -0.016   1.351   0.009  0.00  0.00    +0.014 A 
ATOM     13  C   UNL     1       1.184   2.038   0.002  0.00  0.00    +0.028 A 
ATOM     14  C   UNL     1       2.343   1.335  -0.013  0.00  0.00    +0.078 A 
ATOM     15  S   UNL     1       1.753  -0.350  -0.017  0.00  0.00    -0.080 S 
ATOM     16  C   UNL     1       0.002  -0.004   0.002  0.00  0.00    +0.008 A 
ATOM     17 CL   UNL     1       3.977   1.921  -0.026  0.00  0.00    -0.076 Cl
ENDBRANCH  11  16
ENDBRANCH   7  11
ENDBRANCH   1   8
BRANCH   3  18
ATOM     18  S   UNL     1      -5.335  -4.363  -5.536  0.00  0.00    +0.058 S 
ATOM     19  O   UNL     1      -4.691  -5.151  -6.528  0.00  0.00    -0.153 OA
ATOM     20  O   UNL     1      -6.060  -4.939  -4.458  0.00  0.00    -0.153 OA
BRANCH  18  21
ATOM     21  N   UNL     1      -6.386  -3.363  -6.334  0.00  0.00    -0.203 NA
ATOM     22  H   UNL     1      -6.238  -2.404  -6.334  0.00  0.00    +0.144 HD
ATOM     23  H   UNL     1      -7.150  -3.736  -6.801  0.00  0.00    +0.144 HD
ENDBRANCH  18  21
ENDBRANCH   3  18
TORSDOF 5
