REMARK  Name = ZINC12499775
REMARK  9 active torsions:
REMARK  status: ('A' for Active; 'I' for Inactive)
REMARK    1  A    between atoms: C_1  and  C_2
REMARK    2  A    between atoms: C_7  and  O_8
REMARK    3  A    between atoms: O_8  and  C_9
REMARK    4  A    between atoms: C_9  and  C_10
REMARK    5  A    between atoms: N_12  and  C_13
REMARK    6  A    between atoms: C_13  and  N_15
REMARK    7  A    between atoms: N_15  and  C_16
REMARK    8  A    between atoms: C_20  and  C_22
REMARK    9  A    between atoms: C_22  and  O_23
REMARK                            x       y       z     vdW  Elec       q    Type
REMARK                         _______ _______ _______ _____ _____    ______ ____
ROOT
ATOM      1  C   UNL     1       2.231   1.763   0.794  0.00  0.00    +0.256 C 
ATOM      2  O   UNL     1       2.190   0.596   1.122  0.00  0.00    -0.272 OA
ATOM      3  N   UNL     1       1.103   2.396   0.416  0.00  0.00    -0.265 N 
ATOM      4  H   UNL     1       1.136   3.330   0.153  0.00  0.00    +0.157 HD
ENDROOT
BRANCH   3   5
ATOM      5  C   UNL     1      -0.070   1.734   0.403  0.00  0.00    +0.141 C 
ATOM      6  S   UNL     1      -0.128   0.086   0.867  0.00  0.00    -0.018 S 
BRANCH   5   7
ATOM      7  N   UNL     1      -1.197   2.366   0.021  0.00  0.00    -0.297 N 
ATOM      8  H   UNL     1      -1.176   3.314  -0.183  0.00  0.00    +0.154 HD
BRANCH   7   9
ATOM      9  C   UNL     1      -2.397   1.655  -0.083  0.00  0.00    +0.033 A 
ATOM     10  C   UNL     1      -3.216   1.829  -1.191  0.00  0.00    +0.023 A 
ATOM     11  C   UNL     1      -4.398   1.121  -1.294  0.00  0.00    +0.002 A 
ATOM     12  C   UNL     1      -4.771   0.248  -0.288  0.00  0.00    +0.006 A 
ATOM     13  C   UNL     1      -3.961   0.076   0.819  0.00  0.00    -0.020 A 
ATOM     14  C   UNL     1      -2.775   0.777   0.924  0.00  0.00    +0.029 A 
BRANCH  13  15
ATOM     15  C   UNL     1      -4.372  -0.877   1.912  0.00  0.00    +0.191 C 
BRANCH  15  16
ATOM     16  O   UNL     1      -5.149  -0.177   2.886  0.00  0.00    -0.390 OA
ATOM     17  H   UNL     1      -5.449  -0.730   3.620  0.00  0.00    +0.210 HD
ENDBRANCH  15  16
ENDBRANCH  13  15
ENDBRANCH   7   9
ENDBRANCH   5   7
ENDBRANCH   3   5
BRANCH   1  18
ATOM     18  C   UNL     1       3.543   2.504   0.808  0.00  0.00    +0.325 C 
BRANCH  18  19
ATOM     19  O   UNL     1       4.583   1.624   1.241  0.00  0.00    -0.482 OA
BRANCH  19  26
ATOM     20  C   UNL     1       6.650  -0.095   2.106  0.00  0.00    +0.047 C 
ATOM     21  C   UNL     1       6.894   1.343   1.728  0.00  0.00    -0.008 A 
ATOM     22  C   UNL     1       8.171   1.867   1.792  0.00  0.00    +0.022 A 
ATOM     23  C   UNL     1       8.394   3.189   1.451  0.00  0.00    +0.018 A 
ATOM     24  C   UNL     1       7.342   3.987   1.039  0.00  0.00    +0.019 A 
ATOM     25  C   UNL     1       6.065   3.465   0.968  0.00  0.00    +0.047 A 
ATOM     26  C   UNL     1       5.838   2.140   1.310  0.00  0.00    +0.124 A 
ATOM     27 BR   UNL     1      10.141   3.906   1.548  0.00  0.00    -0.050 Br
ENDBRANCH  19  26
ENDBRANCH  18  19
ENDBRANCH   1  18
TORSDOF 8
