REMARK  Name = ZINC19736470
REMARK  5 active torsions:
REMARK  status: ('A' for Active; 'I' for Inactive)
REMARK    1  A    between atoms: C_5  and  O_7
REMARK    2  A    between atoms: O_7  and  C_8
REMARK    3  A    between atoms: C_8  and  C_9
REMARK    4  A    between atoms: N_11  and  C_12
REMARK    5  A    between atoms: C_16  and  N_18
REMARK                            x       y       z     vdW  Elec       q    Type
REMARK                         _______ _______ _______ _____ _____    ______ ____
ROOT
ATOM      1  C   UNL     1      -2.545   4.035   0.034  0.00  0.00    +0.255 C 
ATOM      2  O   UNL     1      -3.497   3.284   0.026  0.00  0.00    -0.272 OA
ATOM      3  N   UNL     1      -2.738   5.369   0.044  0.00  0.00    -0.283 N 
ATOM      4  H   UNL     1      -1.878   6.049   0.128  0.00  0.00    +0.155 HD
ENDROOT
BRANCH   3   5
ATOM      5  C   UNL     1      -4.034   5.889  -0.052  0.00  0.00    +0.035 A 
ATOM      6  C   UNL     1      -4.257   7.077  -0.737  0.00  0.00    +0.025 A 
ATOM      7  C   UNL     1      -5.537   7.589  -0.838  0.00  0.00    +0.023 A 
ATOM      8  C   UNL     1      -6.597   6.926  -0.248  0.00  0.00    +0.062 A 
ATOM      9  C   UNL     1      -6.380   5.739   0.443  0.00  0.00    +0.045 A 
ATOM     10  C   UNL     1      -5.096   5.221   0.540  0.00  0.00    +0.047 A 
ATOM     11 CL   UNL     1      -8.202   7.576  -0.371  0.00  0.00    -0.082 Cl
BRANCH   9  12
ATOM     12  N   UNL     1      -7.452   5.069   1.038  0.00  0.00    -0.357 N 
ATOM     13  H   UNL     1      -7.279   4.131   1.584  0.00  0.00    +0.142 HD
ATOM     14  H   UNL     1      -8.469   5.481   0.960  0.00  0.00    +0.142 HD
ENDBRANCH   9  12
ENDBRANCH   3   5
BRANCH   1  15
ATOM     15  C   UNL     1      -1.145   3.477   0.033  0.00  0.00    +0.325 C 
BRANCH  15  16
ATOM     16  O   UNL     1      -1.202   2.049   0.022  0.00  0.00    -0.481 OA
BRANCH  16  21
ATOM     17  C   UNL     1       2.381   1.414   0.013  0.00  0.00    +0.004 A 
ATOM     18  C   UNL     1       2.398   0.031   0.003  0.00  0.00    +0.002 A 
ATOM     19  C   UNL     1       1.210  -0.677   0.000  0.00  0.00    +0.023 A 
ATOM     20  C   UNL     1       0.003  -0.004   0.008  0.00  0.00    +0.083 A 
ATOM     21  C   UNL     1      -0.016   1.384   0.019  0.00  0.00    +0.139 A 
ATOM     22  C   UNL     1       1.177   2.092   0.022  0.00  0.00    +0.047 A 
ATOM     23 CL   UNL     1      -1.488  -0.893   0.004  0.00  0.00    -0.080 Cl
ENDBRANCH  16  21
ENDBRANCH  15  16
ENDBRANCH   1  15
TORSDOF 5
