REMARK  Name = ZINC52312532
REMARK  4 active torsions:
REMARK  status: ('A' for Active; 'I' for Inactive)
REMARK    1  A    between atoms: C_1  and  C_2
REMARK    2  A    between atoms: C_2  and  C_3
REMARK    3  A    between atoms: C_2  and  C_4
REMARK    4  A    between atoms: C_7  and  N_10
REMARK                            x       y       z     vdW  Elec       q    Type
REMARK                         _______ _______ _______ _____ _____    ______ ____
ROOT
ATOM      1  C   UNL     1      -1.412  -0.525   0.013  0.00  0.00    -0.045 A 
ATOM      2  C   UNL     1      -2.394   0.157   0.708  0.00  0.00    +0.006 A 
ATOM      3  C   UNL     1      -3.690  -0.319   0.720  0.00  0.00    +0.026 A 
ATOM      4  C   UNL     1      -4.008  -1.483   0.032  0.00  0.00    +0.048 A 
ATOM      5  C   UNL     1      -3.019  -2.166  -0.664  0.00  0.00    +0.026 A 
ATOM      6  C   UNL     1      -1.726  -1.682  -0.677  0.00  0.00    +0.006 A 
ENDROOT
BRANCH   4   7
ATOM      7  N   UNL     1      -5.321  -1.968   0.043  0.00  0.00    -0.297 N 
ATOM      8  C   UNL     1      -5.715  -2.840   1.023  0.00  0.00    +0.099 A 
ATOM      9  C   UNL     1      -6.982  -3.308   1.032  0.00  0.00    +0.088 A 
ATOM     10  C   UNL     1      -7.880  -2.884   0.022  0.00  0.00    +0.252 A 
ATOM     11  O   UNL     1      -9.027  -3.291   0.010  0.00  0.00    -0.268 OA
ATOM     12  N   UNL     1      -7.453  -2.024  -0.925  0.00  0.00    -0.302 N 
ATOM     13  H   UNL     1      -8.062  -1.729  -1.619  0.00  0.00    +0.171 HD
ATOM     14  C   UNL     1      -6.186  -1.569  -0.907  0.00  0.00    +0.165 A 
ATOM     15  S   UNL     1      -5.667  -0.473  -2.115  0.00  0.00    -0.012 S 
ENDBRANCH   4   7
BRANCH   1  17
ATOM     16  C   UNL     1       0.022   1.402  -0.601  0.00  0.00    +0.012 C 
ATOM     17  C   UNL     1       0.002  -0.004   0.003  0.00  0.00    +0.013 C 
ATOM     18  C   UNL     1       0.537   0.048   1.435  0.00  0.00    +0.012 C 
ENDBRANCH   1  17
TORSDOF 2
