REMARK  Name = ZINC00217651
REMARK  4 active torsions:
REMARK  status: ('A' for Active; 'I' for Inactive)
REMARK    1  A    between atoms: C_1  and  C_2
REMARK    2  A    between atoms: C_13  and  C_21
REMARK    3  A    between atoms: C_15  and  C_19
REMARK    4  A    between atoms: C_16  and  N_18
REMARK                            x       y       z     vdW  Elec       q    Type
REMARK                         _______ _______ _______ _____ _____    ______ ____
ROOT
ATOM      1  C   UNL     1       1.132   6.703  -1.278  0.00  0.00    +0.113 C 
ATOM      2  C   UNL     1       0.558   6.210   0.026  0.00  0.00    +0.229 C 
ATOM      3  O   UNL     1       0.902   6.720   1.071  0.00  0.00    -0.273 OA
ATOM      4  N   UNL     1      -0.338   5.203   0.030  0.00  0.00    -0.280 N 
ATOM      5  C   UNL     1      -0.022   3.854   0.023  0.00  0.00    +0.060 A 
ATOM      6  C   UNL     1       1.181   3.160   0.010  0.00  0.00    +0.027 A 
ATOM      7  C   UNL     1       1.182   1.782   0.004  0.00  0.00    +0.002 A 
ATOM      8  C   UNL     1      -0.013   1.076   0.011  0.00  0.00    +0.001 A 
ATOM      9  C   UNL     1      -1.216   1.744   0.019  0.00  0.00    +0.013 A 
ATOM     10  C   UNL     1      -1.235   3.139   0.031  0.00  0.00    +0.043 A 
ATOM     11  C   UNL     1      -2.296   4.145   0.043  0.00  0.00    +0.160 A 
ATOM     12  C   UNL     1      -1.702   5.358   0.042  0.00  0.00    +0.082 A 
ATOM     13  C   UNL     1      -2.494   6.644   0.054  0.00  0.00    +0.116 C 
ATOM     14  C   UNL     1      -3.936   6.317  -0.239  0.00  0.00    +0.099 C 
ATOM     15  C   UNL     1      -4.410   5.051  -0.221  0.00  0.00    +0.199 C 
ATOM     16  O   UNL     1      -3.644   3.975   0.054  0.00  0.00    -0.439 OA
ENDROOT
BRANCH  13  17
ATOM     17  C   UNL     1      -2.387   7.293   1.410  0.00  0.00    -0.026 A 
ATOM     18  C   UNL     1      -1.849   8.560   1.541  0.00  0.00    +0.012 A 
ATOM     19  C   UNL     1      -1.767   9.115   2.775  0.00  0.00    +0.045 A 
ATOM     20  S   UNL     1      -2.463   7.833   3.804  0.00  0.00    -0.105 S 
ATOM     21  C   UNL     1      -2.822   6.646   2.519  0.00  0.00    +0.049 A 
ENDBRANCH  13  17
BRANCH  15  22
ATOM     22  N   UNL     1      -5.740   4.849  -0.496  0.00  0.00    -0.328 N 
ATOM     23  H   UNL     1      -6.314   5.605  -0.697  0.00  0.00    +0.145 HD
ATOM     24  H   UNL     1      -6.106   3.951  -0.490  0.00  0.00    +0.145 HD
ENDBRANCH  15  22
BRANCH  14  25
ATOM     25  C   UNL     1      -4.837   7.386  -0.548  0.00  0.00    +0.101 C 
ATOM     26  N   UNL     1      -5.551   8.235  -0.793  0.00  0.00    -0.191 NA
ENDBRANCH  14  25
TORSDOF 3
