REMARK  Name = ZINC35612081
REMARK  3 active torsions:
REMARK  status: ('A' for Active; 'I' for Inactive)
REMARK    1  A    between atoms: C_2  and  N_20
REMARK    2  A    between atoms: C_3  and  N_12
REMARK    3  A    between atoms: C_16  and  O_19
REMARK                            x       y       z     vdW  Elec       q    Type
REMARK                         _______ _______ _______ _____ _____    ______ ____
ROOT
ATOM      1  C   UNL     1      -0.017   1.380   0.010  0.00  0.00    +0.072 A 
ATOM      2  C   UNL     1       1.176   2.088   0.002  0.00  0.00    +0.049 A 
ATOM      3  C   UNL     1       2.393   1.407  -0.013  0.00  0.00    +0.053 A 
ATOM      4  C   UNL     1       2.410   0.020  -0.020  0.00  0.00    +0.052 A 
ATOM      5  C   UNL     1       1.218  -0.685  -0.012  0.00  0.00    +0.078 A 
ATOM      6  C   UNL     1       0.002  -0.004   0.002  0.00  0.00    +0.144 A 
ATOM      7  O   UNL     1      -1.161  -0.712   0.007  0.00  0.00    -0.481 OA
ATOM      8  C   UNL     1      -1.158  -1.958  -0.695  0.00  0.00    +0.325 C 
ATOM      9  C   UNL     1       0.076  -2.742  -0.328  0.00  0.00    +0.255 C 
ATOM     10  O   UNL     1       0.044  -3.955  -0.311  0.00  0.00    -0.272 OA
ATOM     11  N   UNL     1       1.217  -2.090  -0.018  0.00  0.00    -0.280 N 
ATOM     12  H   UNL     1       2.024  -2.583   0.197  0.00  0.00    +0.155 HD
ENDROOT
BRANCH   3  13
ATOM     13  N   UNL     1       3.598   2.124  -0.022  0.00  0.00    -0.326 N 
ATOM     14  C   UNL     1       4.257   2.496   1.237  0.00  0.00    +0.105 C 
ATOM     15  C   UNL     1       4.513   4.006   1.232  0.00  0.00    +0.021 C 
ATOM     16  C   UNL     1       5.301   4.383  -0.024  0.00  0.00    +0.034 C 
ATOM     17  C   UNL     1       4.482   4.028  -1.267  0.00  0.00    +0.132 C 
ATOM     18  C   UNL     1       4.229   2.513  -1.291  0.00  0.00    +0.136 C 
BRANCH  17  19
ATOM     19  O   UNL     1       5.205   4.408  -2.440  0.00  0.00    -0.390 OA
ATOM     20  H   UNL     1       5.404   5.353  -2.490  0.00  0.00    +0.210 HD
ENDBRANCH  17  19
ENDBRANCH   3  13
BRANCH   2  21
ATOM     21  N   UNL     1       1.159   3.490   0.009  0.00  0.00    -0.356 N 
ATOM     22  H   UNL     1       0.313   3.965   0.020  0.00  0.00    +0.142 HD
ATOM     23  H   UNL     1       1.993   3.986   0.004  0.00  0.00    +0.142 HD
ENDBRANCH   2  21
TORSDOF 3
