REMARK  Name = ZINC40133778
REMARK  9 active torsions:
REMARK  status: ('A' for Active; 'I' for Inactive)
REMARK    1  A    between atoms: C_1  and  C_2
REMARK    2  A    between atoms: C_4  and  C_27
REMARK    3  A    between atoms: C_9  and  C_11
REMARK    4  A    between atoms: C_11  and  C_12
REMARK    5  A    between atoms: N_14  and  C_15
REMARK    6  A    between atoms: C_20  and  C_21
REMARK    7  A    between atoms: N_23  and  C_24
REMARK    8  A    between atoms: C_24  and  C_25
REMARK    9  A    between atoms: C_24  and  C_26
REMARK                            x       y       z     vdW  Elec       q    Type
REMARK                         _______ _______ _______ _____ _____    ______ ____
ROOT
ATOM      1  C   UNL     1       2.850  -5.763   1.375  0.00  0.00    +0.225 C 
ATOM      2  O   UNL     1       2.404  -5.122   2.303  0.00  0.00    -0.275 OA
ATOM      3  N   UNL     1       3.593  -6.863   1.611  0.00  0.00    -0.284 N 
ATOM      4  H   UNL     1       3.882  -7.420   0.871  0.00  0.00    +0.155 HD
ENDROOT
BRANCH   3   5
ATOM      5  C   UNL     1       3.945  -7.199   2.916  0.00  0.00    +0.046 A 
ATOM      6  C   UNL     1       4.015  -6.216   3.894  0.00  0.00    +0.024 A 
ATOM      7  C   UNL     1       4.365  -6.551   5.187  0.00  0.00    +0.002 A 
ATOM      8  C   UNL     1       4.647  -7.866   5.518  0.00  0.00    +0.001 A 
ATOM      9  C   UNL     1       4.582  -8.855   4.561  0.00  0.00    +0.015 A 
ATOM     10  C   UNL     1       4.224  -8.532   3.249  0.00  0.00    +0.058 A 
BRANCH  10  11
ATOM     11  C   UNL     1       4.147  -9.586   2.221  0.00  0.00    +0.246 C 
ATOM     12  O   UNL     1       3.928  -9.290   1.062  0.00  0.00    -0.270 OA
ATOM     13  N   UNL     1       4.318 -10.878   2.565  0.00  0.00    -0.309 N 
ATOM     14  H   UNL     1       4.492 -11.115   3.490  0.00  0.00    +0.149 HD
BRANCH  13  15
ATOM     15  C   UNL     1       4.240 -11.925   1.544  0.00  0.00    +0.067 C 
ATOM     16  C   UNL     1       5.604 -12.078   0.866  0.00  0.00    +0.027 C 
ATOM     17  C   UNL     1       3.846 -13.250   2.200  0.00  0.00    +0.027 C 
ENDBRANCH  13  15
ENDBRANCH  10  11
ENDBRANCH   3   5
BRANCH   1  18
ATOM     18  C   UNL     1       2.574  -5.330  -0.042  0.00  0.00    +0.174 C 
BRANCH  18  27
ATOM     19  C   UNL     1      -0.043   1.495   0.028  0.00  0.00    +0.066 C 
ATOM     20  C   UNL     1      -0.015  -0.011   0.011  0.00  0.00    +0.044 A 
ATOM     21  C   UNL     1      -1.217  -0.731  -0.003  0.00  0.00    +0.046 A 
ATOM     22  C   UNL     1      -1.177  -2.088  -0.019  0.00  0.00    +0.045 A 
ATOM     23  N   UNL     1       0.030  -2.713  -0.021  0.00  0.00    -0.201 N 
ATOM     24  C   UNL     1       1.185  -1.981  -0.008  0.00  0.00    +0.254 A 
ATOM     25  N   UNL     1       1.136  -0.644   0.003  0.00  0.00    -0.216 NA
ATOM     26  N   UNL     1       2.196  -2.842  -0.014  0.00  0.00    -0.193 NA
ATOM     27  C   UNL     1       1.728  -4.083  -0.030  0.00  0.00    +0.162 A 
ATOM     28  N   UNL     1       0.416  -4.059  -0.035  0.00  0.00    -0.148 NA
ATOM     29  C   UNL     1      -2.453  -2.890  -0.033  0.00  0.00    +0.066 C 
ENDBRANCH  18  27
ENDBRANCH   1  18
TORSDOF 5
