REMARK  Name = ZINC12776503
REMARK  9 active torsions:
REMARK  status: ('A' for Active; 'I' for Inactive)
REMARK    1  A    between atoms: C_1  and  C_2
REMARK    2  A    between atoms: C_2  and  C_35
REMARK    3  A    between atoms: C_9  and  C_21
REMARK    4  A    between atoms: C_17  and  C_19
REMARK    5  A    between atoms: C_17  and  C_20
REMARK    6  A    between atoms: N_23  and  C_24
REMARK    7  A    between atoms: C_24  and  C_25
REMARK    8  A    between atoms: N_27  and  C_28
REMARK    9  A    between atoms: C_33  and  O_34
REMARK                            x       y       z     vdW  Elec       q    Type
REMARK                         _______ _______ _______ _____ _____    ______ ____
ROOT
ATOM      1  C   UNL     1       3.508   2.061  -1.058  0.00  0.00    +0.245 C 
ATOM      2  O   UNL     1       3.831   2.659  -0.054  0.00  0.00    -0.273 OA
ATOM      3  N   UNL     1       4.402   1.875  -2.049  0.00  0.00    -0.304 N 
ATOM      4  H   UNL     1       4.143   1.397  -2.852  0.00  0.00    +0.149 HD
ENDROOT
BRANCH   1  11
ATOM      5  C   UNL     1       0.810   4.536  -4.363  0.00  0.00    +0.074 C 
ATOM      6  C   UNL     1       0.263   4.062  -3.015  0.00  0.00    +0.166 C 
ATOM      7  O   UNL     1      -0.613   2.943  -3.217  0.00  0.00    -0.341 OA
ATOM      8  C   UNL     1      -0.070   1.837  -2.449  0.00  0.00    +0.187 C 
ATOM      9  C   UNL     1       1.417   2.224  -2.350  0.00  0.00    +0.191 C 
ATOM     10  O   UNL     1       1.353   3.650  -2.168  0.00  0.00    -0.340 OA
ATOM     11  C   UNL     1       2.106   1.525  -1.198  0.00  0.00    +0.238 C 
ATOM     12  O   UNL     1       1.396   1.745   0.017  0.00  0.00    -0.333 OA
ATOM     13  C   UNL     1       0.071   1.201   0.025  0.00  0.00    +0.286 C 
ATOM     14  C   UNL     1      -0.750   1.826  -1.115  0.00  0.00    +0.209 C 
ATOM     15  O   UNL     1      -1.034   3.151  -0.647  0.00  0.00    -0.338 OA
ATOM     16  C   UNL     1      -0.941   3.106   0.787  0.00  0.00    +0.168 C 
ATOM     17  O   UNL     1      -0.587   1.763   1.197  0.00  0.00    -0.318 OA
ATOM     18  C   UNL     1       0.147   4.069   1.263  0.00  0.00    +0.074 C 
ATOM     19  C   UNL     1      -2.285   3.503   1.402  0.00  0.00    +0.074 C 
ATOM     20  C   UNL     1      -0.506   5.203  -2.346  0.00  0.00    +0.074 C 
ENDBRANCH   1  11
BRANCH   3  21
ATOM     21  C   UNL     1       5.765   2.396  -1.914  0.00  0.00    +0.200 C 
BRANCH  21  22
ATOM     22  C   UNL     1       6.557   2.057  -3.150  0.00  0.00    +0.234 C 
ATOM     23  O   UNL     1       6.035   1.440  -4.055  0.00  0.00    -0.274 OA
ATOM     24  N   UNL     1       7.846   2.438  -3.249  0.00  0.00    -0.281 N 
ATOM     25  H   UNL     1       8.288   2.857  -2.494  0.00  0.00    +0.155 HD
BRANCH  24  26
ATOM     26  C   UNL     1       8.549   2.228  -4.443  0.00  0.00    +0.075 A 
ATOM     27  C   UNL     1       7.891   2.315  -5.662  0.00  0.00    +0.027 A 
ATOM     28  C   UNL     1       8.586   2.108  -6.838  0.00  0.00    +0.002 A 
ATOM     29  C   UNL     1       9.936   1.814  -6.805  0.00  0.00    +0.004 A 
ATOM     30  C   UNL     1      10.599   1.725  -5.595  0.00  0.00    +0.047 A 
ATOM     31  C   UNL     1       9.910   1.937  -4.411  0.00  0.00    +0.138 A 
BRANCH  31  32
ATOM     32  O   UNL     1      10.562   1.856  -3.220  0.00  0.00    -0.505 OA
ATOM     33  H   UNL     1      10.565   0.969  -2.833  0.00  0.00    +0.292 HD
ENDBRANCH  31  32
ENDBRANCH  24  26
ENDBRANCH  21  22
ENDBRANCH   3  21
TORSDOF 5
