REMARK  Name = ZINC39609096
REMARK  6 active torsions:
REMARK  status: ('A' for Active; 'I' for Inactive)
REMARK    1  A    between atoms: C_4  and  C_7
REMARK    2  A    between atoms: C_7  and  O_8
REMARK    3  A    between atoms: O_8  and  C_9
REMARK    4  A    between atoms: C_14  and  N_16
REMARK    5  A    between atoms: C_17  and  C_19
REMARK    6  A    between atoms: C_30  and  C_32
REMARK                            x       y       z     vdW  Elec       q    Type
REMARK                         _______ _______ _______ _____ _____    ______ ____
ROOT
ATOM      1  C   UNL     1       9.372   0.764   2.897  0.00  0.00    +0.100 C 
ATOM      2  C   UNL     1      10.455  -0.338   2.932  0.00  0.00    +0.121 C 
ATOM      3  N   UNL     1      11.647   0.328   3.509  0.00  0.00    -0.297 N 
ATOM      4  C   UNL     1      11.102   1.202   4.574  0.00  0.00    +0.115 C 
ATOM      5  C   UNL     1       9.800   1.772   3.977  0.00  0.00    -0.004 C 
ATOM      6  C   UNL     1       8.727   1.877   5.057  0.00  0.00    -0.010 C 
ATOM      7  C   UNL     1       9.148   2.928   6.088  0.00  0.00    -0.082 C 
ATOM      8  N   UNL     1       9.329   4.224   5.423  0.00  0.00    +0.379 N 
ATOM      9  C   UNL     1      10.426   4.138   4.451  0.00  0.00    -0.082 C 
ATOM     10  C   UNL     1      10.059   3.139   3.351  0.00  0.00    -0.010 C 
ATOM     11  C   UNL     1      12.936   0.172   3.146  0.00  0.00    +0.260 C 
ATOM     12  O   UNL     1      13.806   0.792   3.720  0.00  0.00    -0.271 OA
ATOM     13  H   UNL     1       8.477   4.477   4.945  0.00  0.00    -0.086 HD
ATOM     14  H   UNL     1       9.547   4.927   6.113  0.00  0.00    -0.086 HD
ENDROOT
BRANCH  11  15
ATOM     15  C   UNL     1      13.296  -0.772   2.028  0.00  0.00    +0.296 C 
ATOM     16  C   UNL     1      12.968  -2.213   2.442  0.00  0.00    +0.283 C 
ATOM     17  O   UNL     1      13.335  -3.083   1.365  0.00  0.00    -0.484 OA
ATOM     18  C   UNL     1      14.556  -2.876   0.800  0.00  0.00    +0.162 A 
ATOM     19  C   UNL     1      15.124  -3.874   0.023  0.00  0.00    +0.049 A 
ATOM     20  C   UNL     1      16.362  -3.678  -0.559  0.00  0.00    +0.004 A 
ATOM     21  C   UNL     1      17.037  -2.486  -0.369  0.00  0.00    +0.004 A 
ATOM     22  C   UNL     1      16.477  -1.488   0.405  0.00  0.00    +0.049 A 
ATOM     23  C   UNL     1      15.235  -1.679   0.994  0.00  0.00    +0.163 A 
ATOM     24  O   UNL     1      14.700  -0.689   1.760  0.00  0.00    -0.473 OA
ENDBRANCH  11  15
BRANCH   1  26
ATOM     25  N   UNL     1       6.904   0.746   2.727  0.00  0.00    -0.310 N 
ATOM     26  C   UNL     1       8.021   0.182   3.228  0.00  0.00    +0.218 C 
ATOM     27  O   UNL     1       7.940  -0.793   3.944  0.00  0.00    -0.275 OA
ATOM     28  H   UNL     1       6.970   1.526   2.154  0.00  0.00    +0.149 HD
BRANCH  25  33
ATOM     29  C   UNL     1       4.506   1.265   2.926  0.00  0.00    +0.139 C 
ATOM     30  C   UNL     1       3.522   0.784   1.840  0.00  0.00    +0.033 C 
ATOM     31  C   UNL     1       4.356  -0.195   0.978  0.00  0.00    +0.004 C 
ATOM     32  C   UNL     1       5.227  -0.923   2.032  0.00  0.00    +0.025 C 
ATOM     33  C   UNL     1       5.591   0.181   3.048  0.00  0.00    +0.102 C 
BRANCH  29  34
ATOM     34  O   UNL     1       3.825   1.418   4.172  0.00  0.00    -0.370 OA
BRANCH  34  35
ATOM     35  C   UNL     1       3.315   2.733   4.398  0.00  0.00    +0.195 C 
BRANCH  35  39
ATOM     36  C   UNL     1       1.342   2.867   8.185  0.00  0.00    +0.000 A 
ATOM     37  C   UNL     1       2.692   3.154   8.098  0.00  0.00    +0.000 A 
ATOM     38  C   UNL     1       3.330   3.110   6.873  0.00  0.00    +0.006 A 
ATOM     39  C   UNL     1       2.619   2.780   5.734  0.00  0.00    -0.022 A 
ATOM     40  C   UNL     1       1.269   2.493   5.821  0.00  0.00    +0.006 A 
ATOM     41  C   UNL     1       0.631   2.538   7.046  0.00  0.00    +0.000 A 
ENDBRANCH  35  39
ENDBRANCH  34  35
ENDBRANCH  29  34
ENDBRANCH  25  33
ENDBRANCH   1  26
TORSDOF 6
