REMARK  Name = ZINC63884114
REMARK  2 active torsions:
REMARK  status: ('A' for Active; 'I' for Inactive)
REMARK    1  A    between atoms: C_4  and  C_7
REMARK    2  A    between atoms: C_15  and  C_17
REMARK                            x       y       z     vdW  Elec       q    Type
REMARK                         _______ _______ _______ _____ _____    ______ ____
ROOT
ATOM      1  C   UNL     1       3.708  -0.711  -0.038  0.00  0.00    +0.131 C 
ATOM      2  C   UNL     1       4.042  -1.228   1.337  0.00  0.00    -0.012 C 
ATOM      3  C   UNL     1       4.111  -2.547   1.262  0.00  0.00    +0.023 C 
ATOM      4  C   UNL     1       4.423  -3.443   2.443  0.00  0.00    +0.071 C 
ATOM      5  C   UNL     1       5.080  -2.607   3.545  0.00  0.00    +0.114 C 
ATOM      6  N   UNL     1       4.320  -1.360   3.721  0.00  0.00    -0.292 N 
ATOM      7  C   UNL     1       4.270  -0.418   2.588  0.00  0.00    +0.142 C 
ATOM      8  C   UNL     1       3.688  -1.088   4.880  0.00  0.00    +0.263 C 
ATOM      9  O   UNL     1       3.664  -1.917   5.768  0.00  0.00    -0.268 OA
ATOM     10  N   UNL     1       3.861  -2.980  -0.029  0.00  0.00    -0.283 N 
ATOM     11  N   UNL     1       3.610  -1.929  -0.869  0.00  0.00    -0.231 NA
ATOM     12  H   UNL     1       3.865  -3.910  -0.304  0.00  0.00    +0.166 HD
ATOM     13  H   UNL     1       4.275  -1.904  -1.627  0.00  0.00    +0.145 HD
ENDROOT
BRANCH   8  14
ATOM     14  C   UNL     1       3.025   0.220   5.072  0.00  0.00    +0.105 A 
ATOM     15  C   UNL     1       3.751   1.289   5.506  0.00  0.00    +0.031 A 
ATOM     16  C   UNL     1       3.125   2.533   5.689  0.00  0.00    +0.007 A 
ATOM     17  C   UNL     1       1.794   2.656   5.429  0.00  0.00    +0.070 A 
ATOM     18  C   UNL     1       1.066   1.532   4.980  0.00  0.00    +0.249 A 
ATOM     19  O   UNL     1      -0.126   1.633   4.744  0.00  0.00    -0.268 OA
ATOM     20  N   UNL     1       1.688   0.350   4.806  0.00  0.00    -0.318 N 
ATOM     21  H   UNL     1       1.183  -0.418   4.495  0.00  0.00    +0.169 HD
ENDBRANCH   8  14
BRANCH   1  25
ATOM     22  C   UNL     1      -0.023   1.369   0.010  0.00  0.00    +0.000 A 
ATOM     23  C   UNL     1       1.164   2.078   0.001  0.00  0.00    +0.000 A 
ATOM     24  C   UNL     1       2.371   1.405  -0.014  0.00  0.00    +0.005 A 
ATOM     25  C   UNL     1       2.392   0.023  -0.020  0.00  0.00    -0.025 A 
ATOM     26  C   UNL     1       1.205  -0.686  -0.011  0.00  0.00    +0.005 A 
ATOM     27  C   UNL     1      -0.002  -0.013   0.003  0.00  0.00    +0.000 A 
ENDBRANCH   1  25
TORSDOF 2
