REMARK  Name = ZINC59590089
REMARK  8 active torsions:
REMARK  status: ('A' for Active; 'I' for Inactive)
REMARK    1  A    between atoms: C_1  and  C_2
REMARK    2  A    between atoms: C_2  and  C_3
REMARK    3  A    between atoms: C_3  and  C_4
REMARK    4  A    between atoms: C_4  and  N_5
REMARK    5  A    between atoms: C_7  and  C_11
REMARK    6  A    between atoms: C_8  and  C_10
REMARK    7  A    between atoms: C_17  and  S_24
REMARK    8  A    between atoms: S_24  and  N_27
REMARK                            x       y       z     vdW  Elec       q    Type
REMARK                         _______ _______ _______ _____ _____    ______ ____
ROOT
ATOM      1  C   UNL     1      -5.875  -3.716   1.582  0.00  0.00    +0.195 C 
ATOM      2  N   UNL     1      -6.663  -4.745   0.907  0.00  0.00    -0.322 N 
ATOM      3  C   UNL     1      -6.198  -6.037   0.680  0.00  0.00    +0.057 A 
ATOM      4  C   UNL     1      -6.785  -6.793  -0.334  0.00  0.00    +0.047 A 
ATOM      5  C   UNL     1      -6.358  -8.084  -0.574  0.00  0.00    +0.069 A 
ATOM      6  C   UNL     1      -5.345  -8.637   0.191  0.00  0.00    +0.125 A 
ATOM      7  C   UNL     1      -4.754  -7.890   1.194  0.00  0.00    +0.060 A 
ATOM      8  C   UNL     1      -5.173  -6.597   1.431  0.00  0.00    +0.128 A 
ATOM      9  S   UNL     1      -4.388  -5.634   2.687  0.00  0.00    +0.062 S 
ATOM     10  O   UNL     1      -4.503  -6.362   3.902  0.00  0.00    -0.153 OA
ATOM     11  O   UNL     1      -3.138  -5.207   2.163  0.00  0.00    -0.153 OA
ATOM     12  N   UNL     1      -5.344  -4.272   2.842  0.00  0.00    -0.166 NA
ATOM     13 CL   UNL     1      -7.094  -9.017  -1.839  0.00  0.00    -0.081 Cl
ATOM     14  H   UNL     1      -7.555  -4.516   0.603  0.00  0.00    +0.148 HD
ATOM     15  H   UNL     1      -5.540  -3.873   3.705  0.00  0.00    +0.150 HD
ENDROOT
BRANCH   1  18
ATOM     16  N   UNL     1      -2.787  -2.571   0.015  0.00  0.00    -0.252 N 
ATOM     17  C   UNL     1      -3.523  -2.846   1.112  0.00  0.00    +0.134 A 
ATOM     18  C   UNL     1      -4.733  -3.291   0.695  0.00  0.00    +0.048 A 
ATOM     19  C   UNL     1      -4.734  -3.287  -0.703  0.00  0.00    +0.068 A 
ATOM     20  N   UNL     1      -3.571  -2.849  -1.112  0.00  0.00    -0.175 NA
ATOM     21  C   UNL     1      -5.881  -3.706  -1.587  0.00  0.00    +0.068 C 
ATOM     22 CL   UNL     1      -3.012  -2.664   2.761  0.00  0.00    -0.062 Cl
BRANCH  16  23
ATOM     23  C   UNL     1      -1.413  -2.063   0.004  0.00  0.00    +0.145 C 
BRANCH  23  24
ATOM     24  C   UNL     1      -1.433  -0.534   0.013  0.00  0.00    +0.023 C 
BRANCH  24  26
ATOM     25  C   UNL     1      -0.019   1.526   0.010  0.00  0.00    +0.004 C 
ATOM     26  C   UNL     1       0.002  -0.004   0.002  0.00  0.00    -0.002 C 
ENDBRANCH  24  26
ENDBRANCH  23  24
ENDBRANCH  16  23
ENDBRANCH   1  18
BRANCH   6  27
ATOM     27  S   UNL     1      -4.811 -10.288  -0.113  0.00  0.00    +0.057 S 
ATOM     28  O   UNL     1      -4.593 -10.393  -1.513  0.00  0.00    -0.153 OA
ATOM     29  O   UNL     1      -3.794 -10.567   0.840  0.00  0.00    -0.153 OA
BRANCH  27  30
ATOM     30  N   UNL     1      -6.082 -11.287   0.245  0.00  0.00    -0.203 NA
ATOM     31  H   UNL     1      -6.185 -12.129  -0.227  0.00  0.00    +0.144 HD
ATOM     32  H   UNL     1      -6.723 -11.032   0.926  0.00  0.00    +0.144 HD
ENDBRANCH  27  30
ENDBRANCH   6  27
TORSDOF 6
