REMARK  Name = ZINC09210355
REMARK  1 active torsions:
REMARK  status: ('A' for Active; 'I' for Inactive)
REMARK    1  A    between atoms: N_19  and  C_22
REMARK                            x       y       z     vdW  Elec       q    Type
REMARK                         _______ _______ _______ _____ _____    ______ ____
ROOT
ATOM      1  C   UNL     1       1.597   6.267  -4.193  0.00  0.00    +0.000 A 
ATOM      2  C   UNL     1       2.426   6.833  -5.145  0.00  0.00    +0.002 A 
ATOM      3  C   UNL     1       3.709   7.215  -4.812  0.00  0.00    +0.023 A 
ATOM      4  C   UNL     1       4.181   7.033  -3.514  0.00  0.00    +0.036 A 
ATOM      5  C   UNL     1       3.338   6.462  -2.566  0.00  0.00    -0.027 A 
ATOM      6  C   UNL     1       2.058   6.082  -2.902  0.00  0.00    +0.004 A 
ATOM      7  C   UNL     1       4.132   6.404  -1.291  0.00  0.00    +0.053 C 
ATOM      8  C   UNL     1       4.270   4.963  -0.785  0.00  0.00    +0.089 C 
ATOM      9  C   UNL     1       4.217   5.067   0.764  0.00  0.00    +0.074 C 
ATOM     10  C   UNL     1       4.042   6.587   1.045  0.00  0.00    -0.054 C 
ATOM     11  C   UNL     1       2.034   6.819  -0.164  0.00  0.00    -0.076 C 
ATOM     12  C   UNL     1       1.634   6.960   1.319  0.00  0.00    -0.020 C 
ATOM     13  C   UNL     1       2.947   6.788   2.108  0.00  0.00    -0.016 C 
ATOM     14  C   UNL     1       2.938   4.343   1.119  0.00  0.00    +0.228 C 
ATOM     15  O   UNL     1       2.506   4.194   2.241  0.00  0.00    -0.275 OA
ATOM     16  N   UNL     1       2.360   3.889   0.001  0.00  0.00    -0.209 N 
ATOM     17  C   UNL     1       3.021   4.181  -1.125  0.00  0.00    +0.229 C 
ATOM     18  O   UNL     1       2.673   3.869  -2.243  0.00  0.00    -0.275 OA
ATOM     19  C   UNL     1       5.472   6.993  -1.640  0.00  0.00    +0.212 C 
ATOM     20  O   UNL     1       6.417   7.136  -0.892  0.00  0.00    -0.277 OA
ATOM     21  N   UNL     1       5.419   7.332  -2.942  0.00  0.00    -0.286 N 
ATOM     22  H   UNL     1       6.155   7.737  -3.427  0.00  0.00    +0.155 HD
ATOM     23  N   UNL     1       3.483   7.107  -0.181  0.00  0.00    +0.395 N 
ATOM     24  H   UNL     1       3.644   8.118  -0.258  0.00  0.00    -0.079 HD
ENDROOT
BRANCH  16  25
ATOM     25  C   UNL     1       1.156   3.170   0.008  0.00  0.00    +0.062 A 
ATOM     26  C   UNL     1      -0.055   3.840  -0.101  0.00  0.00    +0.027 A 
ATOM     27  C   UNL     1      -1.240   3.130  -0.094  0.00  0.00    +0.022 A 
ATOM     28  C   UNL     1      -1.221   1.751   0.027  0.00  0.00    +0.042 A 
ATOM     29  C   UNL     1      -0.016   1.080   0.130  0.00  0.00    +0.042 A 
ATOM     30  C   UNL     1       1.172   1.786   0.124  0.00  0.00    +0.064 A 
ATOM     31 CL   UNL     1       2.684   0.943   0.260  0.00  0.00    -0.082 Cl
ATOM     32 CL   UNL     1      -2.713   0.863   0.042  0.00  0.00    -0.083 Cl
ENDBRANCH  16  25
TORSDOF 1
