REMARK  Name = ZINC00939522
REMARK  6 active torsions:
REMARK  status: ('A' for Active; 'I' for Inactive)
REMARK    1  A    between atoms: C_1  and  C_2
REMARK    2  A    between atoms: C_4  and  N_11
REMARK    3  A    between atoms: C_5  and  C_10
REMARK    4  A    between atoms: C_7  and  O_8
REMARK    5  A    between atoms: N_11  and  S_12
REMARK    6  A    between atoms: S_12  and  C_15
REMARK                            x       y       z     vdW  Elec       q    Type
REMARK                         _______ _______ _______ _____ _____    ______ ____
ROOT
ATOM      1  C   UNL     1       6.036   3.501  -2.324  0.00  0.00    +0.047 C 
ATOM      2  C   UNL     1       5.341   2.266  -2.836  0.00  0.00    -0.006 A 
ATOM      3  C   UNL     1       5.161   1.180  -2.001  0.00  0.00    +0.031 A 
ATOM      4  C   UNL     1       4.525   0.040  -2.473  0.00  0.00    +0.052 A 
ATOM      5  C   UNL     1       4.061  -0.005  -3.781  0.00  0.00    -0.011 A 
ATOM      6  C   UNL     1       4.238   1.084  -4.614  0.00  0.00    +0.064 A 
ATOM      7  C   UNL     1       4.879   2.221  -4.142  0.00  0.00    +0.134 A 
ATOM      8 BR   UNL     1       3.607   1.024  -6.395  0.00  0.00    -0.046 Br
ATOM      9  C   UNL     1       3.365  -1.239  -4.293  0.00  0.00    +0.047 C 
ENDROOT
BRANCH   7  10
ATOM     10  O   UNL     1       5.053   3.293  -4.961  0.00  0.00    -0.505 OA
ATOM     11  H   UNL     1       4.326   3.931  -4.934  0.00  0.00    +0.292 HD
ENDBRANCH   7  10
BRANCH   4  12
ATOM     12  N   UNL     1       4.345  -1.062  -1.629  0.00  0.00    -0.216 N 
ATOM     13  H   UNL     1       4.402  -1.962  -1.987  0.00  0.00    +0.174 HD
BRANCH  12  14
ATOM     14  S   UNL     1       4.035  -0.830  -0.019  0.00  0.00    +0.072 S 
ATOM     15  O   UNL     1       5.064   0.017   0.475  0.00  0.00    -0.150 OA
ATOM     16  O   UNL     1       3.774  -2.113   0.533  0.00  0.00    -0.150 OA
BRANCH  14  17
ATOM     17  C   UNL     1       2.533   0.084   0.096  0.00  0.00    +0.108 A 
ATOM     18  C   UNL     1       1.323  -0.582   0.169  0.00  0.00    +0.029 A 
ATOM     19  C   UNL     1       0.145   0.135   0.259  0.00  0.00    +0.002 A 
ATOM     20  C   UNL     1       0.176   1.517   0.276  0.00  0.00    +0.000 A 
ATOM     21  C   UNL     1       1.385   2.182   0.204  0.00  0.00    +0.002 A 
ATOM     22  C   UNL     1       2.564   1.465   0.114  0.00  0.00    +0.029 A 
ENDBRANCH  14  17
ENDBRANCH  12  14
ENDBRANCH   4  12
TORSDOF 4
