REMARK  Name = ZINC62824429
REMARK  4 active torsions:
REMARK  status: ('A' for Active; 'I' for Inactive)
REMARK    1  A    between atoms: C_3  and  N_11
REMARK    2  A    between atoms: C_4  and  C_8
REMARK    3  A    between atoms: C_12  and  C_14
REMARK    4  A    between atoms: C_14  and  C_15
REMARK                            x       y       z     vdW  Elec       q    Type
REMARK                         _______ _______ _______ _____ _____    ______ ____
ROOT
ATOM      1  N   UNL     1       3.537   2.113  -0.025  0.00  0.00    -0.285 N 
ATOM      2  C   UNL     1       3.502   3.458  -0.109  0.00  0.00    +0.217 C 
ATOM      3  O   UNL     1       2.437   4.039  -0.083  0.00  0.00    -0.275 OA
ATOM      4  H   UNL     1       4.390   1.653   0.019  0.00  0.00    +0.155 HD
ENDROOT
BRANCH   1   7
ATOM      5  C   UNL     1       0.056   1.173   0.663  0.00  0.00    +0.016 A 
ATOM      6  C   UNL     1       1.232   1.896   0.641  0.00  0.00    +0.025 A 
ATOM      7  C   UNL     1       2.351   1.386  -0.002  0.00  0.00    +0.048 A 
ATOM      8  C   UNL     1       2.280   0.131  -0.631  0.00  0.00    +0.085 A 
ATOM      9  C   UNL     1       1.082  -0.589  -0.600  0.00  0.00    +0.031 A 
ATOM     10  C   UNL     1      -0.018  -0.065   0.044  0.00  0.00    +0.014 A 
ATOM     11  I   UNL     1      -1.813  -1.146   0.088  0.00  0.00    -0.044 I 
BRANCH   8  12
ATOM     12  C   UNL     1       3.458  -0.421  -1.317  0.00  0.00    +0.388 C 
ATOM     13  O   UNL     1       3.368  -1.470  -1.940  0.00  0.00    -0.241 OA
ATOM     14  O   UNL     1       4.529   0.170  -1.265  0.00  0.00    -0.241 OA
ENDBRANCH   8  12
ENDBRANCH   1   7
BRANCH   2  15
ATOM     15  C   UNL     1       4.784   4.239  -0.235  0.00  0.00    +0.099 C 
BRANCH  15  16
ATOM     16  C   UNL     1       4.465   5.734  -0.312  0.00  0.00    -0.006 C 
ATOM     17  C   UNL     1       3.694   6.027  -1.602  0.00  0.00    -0.015 C 
ATOM     18  C   UNL     1       3.448   7.534  -1.712  0.00  0.00    -0.082 C 
ATOM     19  N   UNL     1       4.733   8.242  -1.736  0.00  0.00    +0.379 N 
ATOM     20  C   UNL     1       5.446   8.024  -0.472  0.00  0.00    -0.082 C 
ATOM     21  C   UNL     1       5.769   6.536  -0.315  0.00  0.00    -0.015 C 
ATOM     22  H   UNL     1       5.292   7.896  -2.501  0.00  0.00    -0.086 HD
ATOM     23  H   UNL     1       4.569   9.230  -1.862  0.00  0.00    -0.086 HD
ENDBRANCH  15  16
ENDBRANCH   2  15
TORSDOF 4
