REMARK  Name = ZINC55307924
REMARK  5 active torsions:
REMARK  status: ('A' for Active; 'I' for Inactive)
REMARK    1  A    between atoms: C_1  and  C_2
REMARK    2  A    between atoms: C_3  and  C_19
REMARK    3  A    between atoms: C_6  and  S_11
REMARK    4  A    between atoms: C_7  and  C_8
REMARK    5  A    between atoms: S_11  and  C_12
REMARK                            x       y       z     vdW  Elec       q    Type
REMARK                         _______ _______ _______ _____ _____    ______ ____
ROOT
ATOM      1  C   UNL     1      -0.011   1.502   0.008  0.00  0.00    +0.046 C 
ATOM      2  C   UNL     1       0.014  -0.005   0.000  0.00  0.00    -0.015 A 
ATOM      3  C   UNL     1       0.032  -0.714  -1.190  0.00  0.00    +0.064 A 
ATOM      4  N   UNL     1       0.055  -2.032  -1.177  0.00  0.00    -0.153 NA
ATOM      5  N   UNL     1       0.062  -2.713  -0.090  0.00  0.00    -0.142 NA
ATOM      6  C   UNL     1       0.047  -2.137   1.105  0.00  0.00    +0.135 A 
ATOM      7  C   UNL     1       0.027  -0.733   1.196  0.00  0.00    +0.051 A 
ATOM      8  C   UNL     1       0.024   0.025  -2.504  0.00  0.00    +0.068 C 
ENDROOT
BRANCH   7   9
ATOM      9  C   UNL     1       0.015  -0.051   2.507  0.00  0.00    +0.097 C 
ATOM     10  N   UNL     1       1.063  -0.157   3.323  0.00  0.00    -0.387 N 
ATOM     11  N   UNL     1      -1.043   0.671   2.873  0.00  0.00    -0.344 N 
ATOM     12  H   UNL     1       1.055   0.290   4.184  0.00  0.00    +0.157 HD
ATOM     13  H   UNL     1      -1.806   0.748   2.279  0.00  0.00    +0.144 HD
ATOM     14  H   UNL     1      -1.051   1.118   3.734  0.00  0.00    +0.144 HD
ATOM     15  H   UNL     1       1.834  -0.683   3.057  0.00  0.00    +0.157 HD
ENDBRANCH   7   9
BRANCH   6  16
ATOM     16  S   UNL     1       0.058  -3.122   2.566  0.00  0.00    -0.067 S 
BRANCH  16  17
ATOM     17  C   UNL     1      -0.071  -4.774   1.968  0.00  0.00    +0.015 A 
ATOM     18  C   UNL     1       1.075  -5.535   1.771  0.00  0.00    +0.015 A 
ATOM     19  C   UNL     1       0.971  -6.829   1.302  0.00  0.00    +0.002 A 
ATOM     20  C   UNL     1      -0.272  -7.370   1.027  0.00  0.00    +0.015 A 
ATOM     21  C   UNL     1      -1.416  -6.615   1.222  0.00  0.00    +0.019 A 
ATOM     22  C   UNL     1      -1.319  -5.321   1.697  0.00  0.00    +0.030 A 
ATOM     23 BR   UNL     1      -3.113  -7.358   0.845  0.00  0.00    -0.050 Br
ENDBRANCH  16  17
ENDBRANCH   6  16
TORSDOF 3
