REMARK  Name = ZINC03287944
REMARK  7 active torsions:
REMARK  status: ('A' for Active; 'I' for Inactive)
REMARK    1  A    between atoms: C_1  and  C_2
REMARK    2  A    between atoms: N_4  and  C_5
REMARK    3  A    between atoms: C_6  and  C_14
REMARK    4  A    between atoms: C_14  and  O_16
REMARK    5  A    between atoms: O_16  and  C_17
REMARK    6  A    between atoms: C_17  and  C_18
REMARK    7  A    between atoms: N_20  and  C_21
REMARK                            x       y       z     vdW  Elec       q    Type
REMARK                         _______ _______ _______ _____ _____    ______ ____
ROOT
ATOM      1  C   UNL     1      -3.673   1.482  -0.010  0.00  0.00    +0.342 C 
ATOM      2  O   UNL     1      -3.850   2.686  -0.007  0.00  0.00    -0.245 OA
ENDROOT
BRANCH   1   4
ATOM      3  C   UNL     1      -5.383   0.130  -1.206  0.00  0.00    +0.086 A 
ATOM      4  C   UNL     1      -4.822   0.574  -0.016  0.00  0.00    +0.091 A 
ATOM      5  C   UNL     1      -5.414   0.099   1.224  0.00  0.00    -0.021 A 
ATOM      6  C   UNL     1      -6.470  -0.730   1.076  0.00  0.00    -0.004 A 
ATOM      7  S   UNL     1      -6.676  -0.893  -0.675  0.00  0.00    -0.077 S 
ATOM      8  C   UNL     1      -7.276  -1.369   2.164  0.00  0.00    +0.043 C 
ATOM      9  C   UNL     1      -6.500  -1.236   3.483  0.00  0.00    +0.005 C 
ATOM     10  C   UNL     1      -6.020   0.211   3.629  0.00  0.00    +0.005 C 
ATOM     11  C   UNL     1      -4.919   0.500   2.608  0.00  0.00    +0.037 C 
BRANCH   3  15
ATOM     12  C   UNL     1      -5.257   0.229  -4.956  0.00  0.00    +0.109 C 
ATOM     13  C   UNL     1      -5.672  -0.099  -3.545  0.00  0.00    +0.214 C 
ATOM     14  O   UNL     1      -6.611  -0.841  -3.346  0.00  0.00    -0.276 OA
ATOM     15  N   UNL     1      -5.001   0.432  -2.504  0.00  0.00    -0.280 N 
ATOM     16  H   UNL     1      -4.150   1.105  -2.684  0.00  0.00    +0.155 HD
ENDBRANCH   3  15
ENDBRANCH   1   4
BRANCH   1  17
ATOM     17  O   UNL     1      -2.420   0.984  -0.007  0.00  0.00    -0.452 OA
BRANCH  17  18
ATOM     18  C   UNL     1      -1.330   1.943  -0.001  0.00  0.00    +0.328 C 
BRANCH  18  19
ATOM     19  C   UNL     1      -0.014   1.208   0.001  0.00  0.00    +0.255 C 
ATOM     20  O   UNL     1       0.003  -0.005  -0.002  0.00  0.00    -0.272 OA
ATOM     21  N   UNL     1       1.143   1.898   0.001  0.00  0.00    -0.280 N 
ATOM     22  H   UNL     1       1.129   2.996  -0.070  0.00  0.00    +0.155 HD
BRANCH  21  23
ATOM     23  C   UNL     1       2.365   1.218   0.092  0.00  0.00    +0.072 A 
ATOM     24  C   UNL     1       2.514  -0.025  -0.508  0.00  0.00    +0.029 A 
ATOM     25  C   UNL     1       3.720  -0.694  -0.422  0.00  0.00    +0.043 A 
ATOM     26  C   UNL     1       4.779  -0.131   0.270  0.00  0.00    +0.161 A 
ATOM     27  C   UNL     1       4.633   1.108   0.875  0.00  0.00    +0.195 A 
ATOM     28  C   UNL     1       3.427   1.784   0.787  0.00  0.00    +0.182 A 
ATOM     29  F   UNL     1       3.284   2.991   1.375  0.00  0.00    -0.200 F 
ATOM     30  F   UNL     1       5.667   1.656   1.550  0.00  0.00    -0.199 F 
ATOM     31  F   UNL     1       5.955  -0.789   0.356  0.00  0.00    -0.202 F 
ENDBRANCH  21  23
ENDBRANCH  18  19
ENDBRANCH  17  18
ENDBRANCH   1  17
TORSDOF 6
