REMARK  Name = ZINC05729066
REMARK  5 active torsions:
REMARK  status: ('A' for Active; 'I' for Inactive)
REMARK    1  A    between atoms: C_4  and  C_7
REMARK    2  A    between atoms: C_7  and  C_9
REMARK    3  A    between atoms: C_7  and  S_11
REMARK    4  A    between atoms: S_11  and  C_12
REMARK    5  A    between atoms: C_14  and  N_19
REMARK                            x       y       z     vdW  Elec       q    Type
REMARK                         _______ _______ _______ _____ _____    ______ ____
ROOT
ATOM      1  C   UNL     1      -2.510   1.454  -1.119  0.00  0.00    +0.105 A 
ATOM      2  C   UNL     1      -3.553   1.686  -2.013  0.00  0.00    +0.078 A 
ATOM      3  C   UNL     1      -4.813   1.182  -1.705  0.00  0.00    +0.122 A 
ATOM      4  N   UNL     1      -4.979   0.499  -0.574  0.00  0.00    -0.200 NA
ATOM      5  C   UNL     1      -3.964   0.298   0.253  0.00  0.00    +0.215 A 
ATOM      6  N   UNL     1      -2.750   0.758  -0.010  0.00  0.00    -0.208 NA
ATOM      7  N   UNL     1      -4.176  -0.417   1.419  0.00  0.00    -0.327 N 
ATOM      8  H   UNL     1      -5.060  -0.763   1.621  0.00  0.00    +0.145 HD
ATOM      9  H   UNL     1      -3.442  -0.572   2.033  0.00  0.00    +0.145 HD
ENDROOT
BRANCH   3  10
ATOM     10  N   UNL     1      -5.881   1.389  -2.564  0.00  0.00    -0.343 N 
ATOM     11  H   UNL     1      -5.753   1.887  -3.386  0.00  0.00    +0.144 HD
ATOM     12  H   UNL     1      -6.757   1.035  -2.343  0.00  0.00    +0.144 HD
ENDBRANCH   3  10
BRANCH   1  13
ATOM     13  S   UNL     1      -0.893   2.067  -1.456  0.00  0.00    -0.082 S 
BRANCH  13  14
ATOM     14  C   UNL     1      -0.018   1.468   0.010  0.00  0.00    +0.185 C 
BRANCH  14  18
ATOM     15  C   UNL     1       3.990   2.946  -0.020  0.00  0.00    +0.000 A 
ATOM     16  C   UNL     1       3.144   3.263   1.026  0.00  0.00    +0.000 A 
ATOM     17  C   UNL     1       1.847   2.785   1.036  0.00  0.00    +0.006 A 
ATOM     18  C   UNL     1       1.396   1.989  -0.001  0.00  0.00    -0.020 A 
ATOM     19  C   UNL     1       2.243   1.668  -1.044  0.00  0.00    +0.006 A 
ATOM     20  C   UNL     1       3.539   2.150  -1.056  0.00  0.00    +0.000 A 
ENDBRANCH  14  18
BRANCH  14  21
ATOM     21  C   UNL     1       0.002  -0.004   0.002  0.00  0.00    +0.082 C 
ATOM     22  N   UNL     1       0.018  -1.140  -0.004  0.00  0.00    -0.195 NA
ENDBRANCH  14  21
ENDBRANCH  13  14
ENDBRANCH   1  13
TORSDOF 5
