REMARK  Name = ZINC66217682
REMARK  6 active torsions:
REMARK  status: ('A' for Active; 'I' for Inactive)
REMARK    1  A    between atoms: C_1  and  C_2
REMARK    2  A    between atoms: C_6  and  N_8
REMARK    3  A    between atoms: N_8  and  C_9
REMARK    4  A    between atoms: C_10  and  C_12
REMARK    5  A    between atoms: C_17  and  C_20
REMARK    6  A    between atoms: C_20  and  C_21
REMARK                            x       y       z     vdW  Elec       q    Type
REMARK                         _______ _______ _______ _____ _____    ______ ____
ROOT
ATOM      1  C   UNL     1       0.153  -4.724   3.744  0.00  0.00    +0.302 C 
ATOM      2  O   UNL     1       0.299  -4.061   4.751  0.00  0.00    -0.265 OA
ATOM      3  N   UNL     1       0.036  -6.064   3.831  0.00  0.00    -0.294 N 
ATOM      4  C   UNL     1      -0.024  -6.890   2.617  0.00  0.00    +0.108 C 
ATOM      5  C   UNL     1       1.053  -7.976   2.707  0.00  0.00    +0.023 C 
ATOM      6  C   UNL     1       0.875  -8.759   4.009  0.00  0.00    +0.001 C 
ATOM      7  C   UNL     1       1.042  -7.814   5.201  0.00  0.00    +0.023 C 
ATOM      8  C   UNL     1      -0.029  -6.727   5.140  0.00  0.00    +0.108 C 
ENDROOT
BRANCH   1  11
ATOM      9  N   UNL     1       1.249  -3.745   1.769  0.00  0.00    -0.267 N 
ATOM     10  C   UNL     1       2.538  -4.150   2.335  0.00  0.00    +0.139 C 
ATOM     11  C   UNL     1       0.105  -4.054   2.410  0.00  0.00    +0.306 C 
ATOM     12  O   UNL     1      -0.966  -3.789   1.903  0.00  0.00    -0.265 OA
BRANCH   9  18
ATOM     13  C   UNL     1       3.612  -1.391  -1.841  0.00  0.00    +0.044 C 
ATOM     14  C   UNL     1       2.336  -1.884  -1.208  0.00  0.00    -0.049 A 
ATOM     15  C   UNL     1       1.121  -1.637  -1.820  0.00  0.00    +0.003 A 
ATOM     16  C   UNL     1      -0.052  -2.088  -1.242  0.00  0.00    +0.002 A 
ATOM     17  C   UNL     1      -0.013  -2.787  -0.052  0.00  0.00    +0.023 A 
ATOM     18  C   UNL     1       1.206  -3.038   0.565  0.00  0.00    +0.037 A 
ATOM     19  C   UNL     1       2.383  -2.588  -0.021  0.00  0.00    +0.027 A 
ENDBRANCH   9  18
ENDBRANCH   1  11
BRANCH   6  20
ATOM     20  C   UNL     1       1.927  -9.867   4.086  0.00  0.00    +0.099 C 
BRANCH  20  21
ATOM     21  C   UNL     1       1.676 -10.715   5.306  0.00  0.00    +0.211 C 
ATOM     22  O   UNL     1       0.748 -10.457   6.043  0.00  0.00    -0.276 OA
ATOM     23  N   UNL     1       2.484 -11.758   5.580  0.00  0.00    -0.329 N 
ATOM     24  H   UNL     1       3.227 -11.964   4.991  0.00  0.00    +0.145 HD
ATOM     25  H   UNL     1       2.323 -12.303   6.366  0.00  0.00    +0.145 HD
ENDBRANCH  20  21
ENDBRANCH   6  20
TORSDOF 4
