REMARK  Name = ZINC39358984
REMARK  3 active torsions:
REMARK  status: ('A' for Active; 'I' for Inactive)
REMARK    1  A    between atoms: C_1  and  C_2
REMARK    2  A    between atoms: C_6  and  C_7
REMARK    3  A    between atoms: C_10  and  O_23
REMARK                            x       y       z     vdW  Elec       q    Type
REMARK                         _______ _______ _______ _____ _____    ______ ____
ROOT
ATOM      1  C   UNL     1       0.030  -0.179   2.581  0.00  0.00    +0.096 C 
ATOM      2  C   UNL     1      -1.162  -0.703   3.324  0.00  0.00    +0.049 C 
ATOM      3  C   UNL     1      -2.324  -1.204   2.969  0.00  0.00    +0.235 C 
ATOM      4  N   UNL     1      -2.998  -1.653   4.063  0.00  0.00    -0.114 NA
ATOM      5  N   UNL     1      -2.414  -1.460   5.138  0.00  0.00    -0.157 NA
ATOM      6  C   UNL     1      -1.170  -0.741   4.856  0.00  0.00    +0.245 C 
ATOM      7  N   UNL     1       0.024  -1.517   5.196  0.00  0.00    -0.321 N 
ATOM      8  C   UNL     1       1.194  -1.290   4.514  0.00  0.00    +0.013 C 
ATOM      9  C   UNL     1       1.267  -0.679   3.312  0.00  0.00    +0.024 C 
ATOM     10  C   UNL     1       2.498  -0.471   2.668  0.00  0.00    +0.162 C 
ATOM     11  O   UNL     1       2.516   0.072   1.580  0.00  0.00    -0.292 OA
ATOM     12  C   UNL     1       3.795  -0.905   3.293  0.00  0.00    +0.080 C 
ATOM     13  C   UNL     1       3.635  -0.880   4.817  0.00  0.00    +0.014 C 
ATOM     14  C   UNL     1       2.455  -1.786   5.192  0.00  0.00    +0.051 C 
ATOM     15  H   UNL     1      -0.011  -2.185   5.898  0.00  0.00    +0.148 HD
ENDROOT
BRANCH   1  21
ATOM     16  C   UNL     1      -0.018   1.503   0.010  0.00  0.00    +0.044 C 
ATOM     17  C   UNL     1       0.002  -0.004   0.002  0.00  0.00    -0.039 A 
ATOM     18  C   UNL     1       0.006  -0.699  -1.193  0.00  0.00    +0.011 A 
ATOM     19  C   UNL     1       0.024  -2.054  -1.165  0.00  0.00    +0.046 A 
ATOM     20  S   UNL     1       0.037  -2.387   0.589  0.00  0.00    -0.100 S 
ATOM     21  C   UNL     1       0.023  -0.698   1.166  0.00  0.00    +0.005 A 
ENDBRANCH   1  21
BRANCH   3  22
ATOM     22  O   UNL     1      -2.787  -1.265   1.692  0.00  0.00    -0.491 OA
ATOM     23  H   UNL     1      -3.663  -1.666   1.610  0.00  0.00    +0.294 HD
ENDBRANCH   3  22
TORSDOF 2
