REMARK  Name = ZINC26512634
REMARK  3 active torsions:
REMARK  status: ('A' for Active; 'I' for Inactive)
REMARK    1  A    between atoms: C_4  and  C_7
REMARK    2  A    between atoms: C_8  and  C_13
REMARK    3  A    between atoms: C_11  and  N_12
REMARK                            x       y       z     vdW  Elec       q    Type
REMARK                         _______ _______ _______ _____ _____    ______ ____
ROOT
ATOM      1  C   UNL     1       1.248  -2.163  -0.021  0.00  0.00    +0.071 A 
ATOM      2  C   UNL     1       1.741  -3.068  -1.074  0.00  0.00    +0.130 A 
ATOM      3  N   UNL     1       1.548  -4.281  -0.607  0.00  0.00    -0.075 NA
ATOM      4  O   UNL     1       1.049  -4.277   0.491  0.00  0.00    -0.339 OA
ATOM      5  C   UNL     1       0.821  -3.042   0.964  0.00  0.00    +0.224 A 
ENDROOT
BRANCH   1   9
ATOM      6  C   UNL     1       1.170   2.086   0.002  0.00  0.00    +0.000 A 
ATOM      7  C   UNL     1      -0.017   1.376   0.010  0.00  0.00    +0.001 A 
ATOM      8  C   UNL     1       0.002  -0.004   0.002  0.00  0.00    +0.009 A 
ATOM      9  C   UNL     1       1.221  -0.682  -0.013  0.00  0.00    -0.011 A 
ATOM     10  C   UNL     1       2.414   0.040  -0.021  0.00  0.00    +0.009 A 
ATOM     11  C   UNL     1       2.382   1.420  -0.013  0.00  0.00    +0.001 A 
ENDBRANCH   1   9
BRANCH   2  12
ATOM     12  C   UNL     1       2.328  -2.693  -2.376  0.00  0.00    +0.041 A 
ATOM     13  C   UNL     1       3.329  -3.307  -3.081  0.00  0.00    +0.018 A 
ATOM     14  C   UNL     1       3.714  -2.770  -4.289  0.00  0.00    +0.008 A 
ATOM     15  C   UNL     1       3.093  -1.650  -4.743  0.00  0.00    +0.046 A 
ATOM     16  S   UNL     1       1.913  -1.324  -3.445  0.00  0.00    -0.095 S 
ENDBRANCH   2  12
BRANCH   5  17
ATOM     17  N   UNL     1       0.269  -2.713   2.185  0.00  0.00    -0.327 N 
ATOM     18  H   UNL     1      -0.032  -3.506   2.885  0.00  0.00    +0.145 HD
ATOM     19  H   UNL     1       0.129  -1.656   2.458  0.00  0.00    +0.145 HD
ENDBRANCH   5  17
TORSDOF 3
