REMARK  Name = ZINC32871352
REMARK  8 active torsions:
REMARK  status: ('A' for Active; 'I' for Inactive)
REMARK    1  A    between atoms: C_1  and  C_2
REMARK    2  A    between atoms: C_3  and  C_27
REMARK    3  A    between atoms: C_5  and  S_7
REMARK    4  A    between atoms: S_7  and  C_8
REMARK    5  A    between atoms: C_8  and  C_10
REMARK    6  A    between atoms: C_8  and  C_11
REMARK    7  A    between atoms: N_16  and  C_17
REMARK    8  A    between atoms: C_27  and  C_28
REMARK                            x       y       z     vdW  Elec       q    Type
REMARK                         _______ _______ _______ _____ _____    ______ ____
ROOT
ATOM      1  C   UNL     1       0.223  -6.637   0.279  0.00  0.00    +0.233 C 
ATOM      2  O   UNL     1      -0.059  -7.096  -0.807  0.00  0.00    -0.274 OA
ATOM      3  N   UNL     1       0.665  -7.450   1.259  0.00  0.00    -0.239 N 
ATOM      4  C   UNL     1       0.792  -8.773   1.032  0.00  0.00    +0.306 C 
ATOM      5  O   UNL     1       0.509  -9.232  -0.057  0.00  0.00    -0.252 OA
ATOM      6  N   UNL     1       1.234  -9.585   2.012  0.00  0.00    -0.294 N 
ATOM      7  H   UNL     1       0.921  -7.034   2.245  0.00  0.00    +0.159 HD
ATOM      8  H   UNL     1       1.490  -9.169   2.998  0.00  0.00    +0.151 HD
ENDROOT
BRANCH   6   9
ATOM      9  C   UNL     1       1.373 -11.023   1.765  0.00  0.00    +0.037 C 
ATOM     10  C   UNL     1       0.012 -11.608   1.384  0.00  0.00    +0.029 C 
ATOM     11  C   UNL     1       0.157 -13.110   1.126  0.00  0.00    -0.008 C 
ATOM     12  C   UNL     1       0.672 -13.797   2.392  0.00  0.00    +0.007 C 
ATOM     13  C   UNL     1       2.034 -13.211   2.772  0.00  0.00    -0.008 C 
ATOM     14  C   UNL     1       1.888 -11.710   3.030  0.00  0.00    +0.029 C 
ATOM     15  C   UNL     1       3.024 -13.439   1.629  0.00  0.00    +0.007 C 
ATOM     16  C   UNL     1       2.509 -12.751   0.363  0.00  0.00    -0.008 C 
ATOM     17  C   UNL     1       1.148 -13.337  -0.018  0.00  0.00    +0.007 C 
ATOM     18  C   UNL     1       2.364 -11.250   0.621  0.00  0.00    +0.029 C 
ENDBRANCH   6   9
BRANCH   1  19
ATOM     19  C   UNL     1       0.080  -5.159   0.534  0.00  0.00    +0.136 C 
ATOM     20  C   UNL     1      -1.224  -4.895   1.288  0.00  0.00    +0.029 C 
BRANCH  19  21
ATOM     21  S   UNL     1       0.053  -4.275  -1.046  0.00  0.00    -0.086 S 
BRANCH  21  26
ATOM     22  C   UNL     1       0.043  -0.375   2.462  0.00  0.00    +0.066 C 
ATOM     23  C   UNL     1       0.029  -0.873   1.040  0.00  0.00    +0.050 A 
ATOM     24  C   UNL     1       0.002  -0.004   0.002  0.00  0.00    +0.022 A 
ATOM     25  S   UNL     1       0.005  -1.136  -1.380  0.00  0.00    -0.065 S 
ATOM     26  C   UNL     1       0.034  -2.611  -0.465  0.00  0.00    +0.136 A 
ATOM     27  N   UNL     1       0.040  -2.167   0.778  0.00  0.00    -0.238 NA
BRANCH  24  28
ATOM     28  C   UNL     1      -0.018   1.503   0.010  0.00  0.00    +0.139 C 
BRANCH  28  29
ATOM     29  C   UNL     1       1.395   2.024  -0.000  0.00  0.00    +0.215 C 
ATOM     30  O   UNL     1       2.328   1.249  -0.013  0.00  0.00    -0.276 OA
ATOM     31  N   UNL     1       1.624   3.353   0.005  0.00  0.00    -0.329 N 
ATOM     32  H   UNL     1       2.656   3.733  -0.003  0.00  0.00    +0.145 HD
ATOM     33  H   UNL     1       0.778   4.056   0.017  0.00  0.00    +0.145 HD
ENDBRANCH  28  29
ENDBRANCH  24  28
ENDBRANCH  21  26
ENDBRANCH  19  21
ENDBRANCH   1  19
TORSDOF 6
