REMARK  Name = ZINC39686685
REMARK  10 active torsions:
REMARK  status: ('A' for Active; 'I' for Inactive)
REMARK    1  A    between atoms: C_1  and  C_2
REMARK    2  A    between atoms: C_4  and  C_11
REMARK    3  A    between atoms: C_5  and  C_7
REMARK    4  A    between atoms: C_15  and  C_24
REMARK    5  A    between atoms: N_26  and  C_27
REMARK    6  A    between atoms: C_27  and  C_29
REMARK    7  A    between atoms: C_27  and  C_30
REMARK    8  A    between atoms: C_30  and  C_31
REMARK    9  A    between atoms: C_36  and  O_37
REMARK   10  A    between atoms: O_37  and  C_38
REMARK                            x       y       z     vdW  Elec       q    Type
REMARK                         _______ _______ _______ _____ _____    ______ ____
ROOT
ATOM      1  C   UNL     1      -1.455  -2.880   0.096  0.00  0.00    +0.250 C 
ATOM      2  O   UNL     1      -0.935  -3.979   0.128  0.00  0.00    -0.270 OA
ATOM      3  N   UNL     1      -2.792  -2.763   0.218  0.00  0.00    -0.296 N 
ATOM      4  C   UNL     1      -3.610  -1.532   0.103  0.00  0.00    +0.121 C 
ATOM      5  C   UNL     1      -4.880  -1.977  -0.656  0.00  0.00    +0.100 C 
ATOM      6  C   UNL     1      -4.985  -3.489  -0.393  0.00  0.00    -0.004 C 
ATOM      7  C   UNL     1      -3.777  -3.837   0.489  0.00  0.00    +0.115 C 
ATOM      8  C   UNL     1      -4.910  -4.260  -1.707  0.00  0.00    -0.010 C 
ATOM      9  C   UNL     1      -5.074  -5.756  -1.426  0.00  0.00    -0.082 C 
ATOM     10  N   UNL     1      -6.364  -5.994  -0.769  0.00  0.00    +0.379 N 
ATOM     11  C   UNL     1      -6.393  -5.324   0.537  0.00  0.00    -0.082 C 
ATOM     12  C   UNL     1      -6.285  -3.810   0.339  0.00  0.00    -0.010 C 
ATOM     13  H   UNL     1      -7.107  -5.631  -1.347  0.00  0.00    -0.086 HD
ATOM     14  H   UNL     1      -6.497  -6.986  -0.639  0.00  0.00    -0.086 HD
ENDROOT
BRANCH   1  18
ATOM     15  C   UNL     1       0.288   1.910   0.316  0.00  0.00    +0.086 C 
ATOM     16  C   UNL     1       0.130   0.439   0.033  0.00  0.00    +0.103 A 
ATOM     17  C   UNL     1      -0.901  -0.323   0.430  0.00  0.00    +0.058 A 
ATOM     18  C   UNL     1      -0.622  -1.675  -0.074  0.00  0.00    +0.087 A 
ATOM     19  C   UNL     1       0.568  -1.583  -0.734  0.00  0.00    +0.220 A 
ATOM     20  O   UNL     1       0.994  -0.318  -0.662  0.00  0.00    -0.455 OA
BRANCH  19  21
ATOM     21  C   UNL     1       1.280  -2.714  -1.431  0.00  0.00    +0.451 C 
ATOM     22  F   UNL     1       0.860  -2.779  -2.763  0.00  0.00    -0.163 F 
ATOM     23  F   UNL     1       2.661  -2.492  -1.388  0.00  0.00    -0.163 F 
ATOM     24  F   UNL     1       0.981  -3.920  -0.788  0.00  0.00    -0.163 F 
ENDBRANCH  19  21
ENDBRANCH   1  18
BRANCH   5  25
ATOM     25  C   UNL     1      -4.731  -1.708  -2.131  0.00  0.00    +0.218 C 
ATOM     26  O   UNL     1      -3.647  -1.822  -2.662  0.00  0.00    -0.275 OA
ATOM     27  N   UNL     1      -5.803  -1.340  -2.861  0.00  0.00    -0.312 N 
ATOM     28  H   UNL     1      -6.682  -1.313  -2.451  0.00  0.00    +0.149 HD
BRANCH  27  29
ATOM     29  C   UNL     1      -5.641  -0.982  -4.272  0.00  0.00    +0.074 C 
ATOM     30  C   UNL     1      -5.176   0.472  -4.378  0.00  0.00    +0.028 C 
BRANCH  29  31
ATOM     31  C   UNL     1      -6.979  -1.143  -4.996  0.00  0.00    +0.060 C 
BRANCH  31  32
ATOM     32  C   UNL     1      -7.354  -2.602  -5.040  0.00  0.00    -0.004 A 
ATOM     33  C   UNL     1      -6.941  -3.391  -6.097  0.00  0.00    +0.007 A 
ATOM     34  C   UNL     1      -7.285  -4.729  -6.138  0.00  0.00    +0.000 A 
ATOM     35  C   UNL     1      -8.042  -5.282  -5.121  0.00  0.00    +0.004 A 
ATOM     36  C   UNL     1      -8.456  -4.499  -4.062  0.00  0.00    +0.046 A 
ATOM     37  C   UNL     1      -8.108  -3.156  -4.016  0.00  0.00    +0.123 A 
BRANCH  37  38
ATOM     38  O   UNL     1      -8.510  -2.384  -2.972  0.00  0.00    -0.495 OA
ATOM     39  C   UNL     1      -9.243  -3.032  -1.931  0.00  0.00    +0.277 C 
ENDBRANCH  37  38
ENDBRANCH  31  32
ENDBRANCH  29  31
ENDBRANCH  27  29
ENDBRANCH   5  25
TORSDOF 7
