REMARK  Name = ZINC35313974
REMARK  5 active torsions:
REMARK  status: ('A' for Active; 'I' for Inactive)
REMARK    1  A    between atoms: C_1  and  C_2
REMARK    2  A    between atoms: C_7  and  S_12
REMARK    3  A    between atoms: S_12  and  C_13
REMARK    4  A    between atoms: C_13  and  C_14
REMARK    5  A    between atoms: C_14  and  C_16
REMARK                            x       y       z     vdW  Elec       q    Type
REMARK                         _______ _______ _______ _____ _____    ______ ____
ROOT
ATOM      1  C   UNL     1      -0.018   1.503   0.010  0.00  0.00    +0.066 C 
ATOM      2  C   UNL     1       0.002  -0.004   0.002  0.00  0.00    +0.045 A 
ATOM      3  C   UNL     1      -1.170  -0.692   0.004  0.00  0.00    +0.071 A 
ATOM      4  C   UNL     1      -1.125  -2.103  -0.004  0.00  0.00    +0.166 A 
ATOM      5  N   UNL     1      -2.031  -3.057  -0.005  0.00  0.00    -0.128 NA
ATOM      6  N   UNL     1      -1.453  -4.207  -0.014  0.00  0.00    -0.122 NA
ATOM      7  C   UNL     1      -0.147  -4.063  -0.019  0.00  0.00    +0.199 A 
ATOM      8  N   UNL     1       0.112  -2.723  -0.013  0.00  0.00    -0.242 N 
ATOM      9  C   UNL     1       1.246  -1.961  -0.014  0.00  0.00    +0.201 A 
ATOM     10  N   UNL     1       1.173  -0.649  -0.013  0.00  0.00    -0.221 NA
ATOM     11  N   UNL     1       2.475  -2.574  -0.023  0.00  0.00    -0.328 N 
ATOM     12  H   UNL     1       2.535  -3.542  -0.029  0.00  0.00    +0.145 HD
ATOM     13  H   UNL     1       3.284  -2.038  -0.024  0.00  0.00    +0.145 HD
ENDROOT
BRANCH   7  14
ATOM     14  S   UNL     1       1.047  -5.358  -0.031  0.00  0.00    -0.078 S 
BRANCH  14  15
ATOM     15  C   UNL     1       0.051  -6.874  -0.034  0.00  0.00    +0.157 C 
BRANCH  15  16
ATOM     16  C   UNL     1       0.962  -8.074  -0.044  0.00  0.00    +0.173 C 
ATOM     17  O   UNL     1       2.165  -7.922  -0.048  0.00  0.00    -0.291 OA
BRANCH  16  18
ATOM     18  C   UNL     1       0.392  -9.431  -0.048  0.00  0.00    +0.018 A 
ATOM     19  C   UNL     1      -0.995  -9.610  -0.049  0.00  0.00    +0.011 A 
ATOM     20  C   UNL     1      -1.521 -10.885  -0.053  0.00  0.00    +0.001 A 
ATOM     21  C   UNL     1      -0.680 -11.985  -0.057  0.00  0.00    +0.000 A 
ATOM     22  C   UNL     1       0.693 -11.815  -0.056  0.00  0.00    +0.001 A 
ATOM     23  C   UNL     1       1.235 -10.547  -0.057  0.00  0.00    +0.011 A 
ENDBRANCH  16  18
ENDBRANCH  15  16
ENDBRANCH  14  15
ENDBRANCH   7  14
TORSDOF 4
