REMARK  Name = ZINC49138304
REMARK  8 active torsions:
REMARK  status: ('A' for Active; 'I' for Inactive)
REMARK    1  A    between atoms: C_1  and  C_2
REMARK    2  A    between atoms: N_4  and  C_5
REMARK    3  A    between atoms: N_4  and  C_6
REMARK    4  A    between atoms: C_6  and  C_7
REMARK    5  A    between atoms: N_9  and  C_10
REMARK    6  A    between atoms: C_10  and  C_11
REMARK    7  A    between atoms: C_14  and  S_16
REMARK    8  A    between atoms: S_16  and  N_19
REMARK                            x       y       z     vdW  Elec       q    Type
REMARK                         _______ _______ _______ _____ _____    ______ ____
ROOT
ATOM      1  C   UNL     1      -3.862  -3.707  -0.672  0.00  0.00    +0.146 C 
ENDROOT
BRANCH   1   2
ATOM      2  C   UNL     1      -4.187  -5.178  -0.648  0.00  0.00    +0.009 A 
ATOM      3  C   UNL     1      -4.227  -6.027   0.408  0.00  0.00    +0.015 A 
ATOM      4  C   UNL     1      -4.555  -7.352   0.191  0.00  0.00    +0.036 A 
ATOM      5  C   UNL     1      -4.826  -7.763  -1.072  0.00  0.00    +0.142 A 
ATOM      6  S   UNL     1      -4.628  -6.254  -2.003  0.00  0.00    -0.072 S 
BRANCH   5   7
ATOM      7  S   UNL     1      -5.267  -9.371  -1.644  0.00  0.00    +0.062 S 
ATOM      8  O   UNL     1      -4.905  -9.426  -3.017  0.00  0.00    -0.153 OA
ATOM      9  O   UNL     1      -4.768 -10.294  -0.686  0.00  0.00    -0.153 OA
BRANCH   7  10
ATOM     10  N   UNL     1      -6.919  -9.475  -1.586  0.00  0.00    -0.203 NA
ATOM     11  H   UNL     1      -7.442  -8.720  -1.274  0.00  0.00    +0.144 HD
ATOM     12  H   UNL     1      -7.363 -10.291  -1.864  0.00  0.00    +0.144 HD
ENDBRANCH   7  10
ENDBRANCH   5   7
ENDBRANCH   1   2
BRANCH   1  15
ATOM     13  C   UNL     1      -1.899  -2.287  -0.931  0.00  0.00    +0.231 C 
ATOM     14  O   UNL     1      -2.619  -1.319  -0.812  0.00  0.00    -0.274 OA
ATOM     15  N   UNL     1      -2.422  -3.528  -0.875  0.00  0.00    -0.309 N 
ATOM     16  H   UNL     1      -1.846  -4.302  -0.971  0.00  0.00    +0.149 HD
BRANCH  13  17
ATOM     17  C   UNL     1      -0.418  -2.103  -1.141  0.00  0.00    +0.203 C 
BRANCH  17  21
ATOM     18  C   UNL     1       0.418   1.459  -0.022  0.00  0.00    +0.109 C 
ATOM     19  C   UNL     1       0.210  -0.033  -0.019  0.00  0.00    +0.213 C 
ATOM     20  O   UNL     1       0.322  -0.659   1.014  0.00  0.00    -0.276 OA
ATOM     21  N   UNL     1      -0.102  -0.673  -1.163  0.00  0.00    -0.296 N 
ATOM     22  C   UNL     1      -0.124   0.062  -2.430  0.00  0.00    +0.132 C 
ENDBRANCH  17  21
ENDBRANCH  13  17
ENDBRANCH   1  15
TORSDOF 6
