REMARK  Name = ZINC17014845
REMARK  4 active torsions:
REMARK  status: ('A' for Active; 'I' for Inactive)
REMARK    1  A    between atoms: C_1  and  C_2
REMARK    2  A    between atoms: C_8  and  C_10
REMARK    3  A    between atoms: C_11  and  N_24
REMARK    4  A    between atoms: N_15  and  C_16
REMARK                            x       y       z     vdW  Elec       q    Type
REMARK                         _______ _______ _______ _____ _____    ______ ____
ROOT
ATOM      1  C   UNL     1       1.825  -5.540   0.140  0.00  0.00    +0.117 A 
ATOM      2  C   UNL     1       1.517  -6.880   0.403  0.00  0.00    +0.138 A 
ATOM      3  N   UNL     1       2.521  -7.725   0.339  0.00  0.00    -0.210 NA
ATOM      4  C   UNL     1       3.744  -7.322   0.044  0.00  0.00    +0.165 A 
ATOM      5  S   UNL     1       3.577  -5.664  -0.185  0.00  0.00    -0.046 S 
ATOM      6  N   UNL     1       4.888  -8.084  -0.059  0.00  0.00    -0.291 N 
ATOM      7  H   UNL     1       5.746  -7.654  -0.196  0.00  0.00    +0.154 HD
ENDROOT
BRANCH   1  15
ATOM      8  C   UNL     1      -0.084   1.455  -0.576  0.00  0.00    +0.088 C 
ATOM      9  C   UNL     1      -0.039  -0.034  -0.352  0.00  0.00    +0.124 A 
ATOM     10  C   UNL     1      -1.076  -0.821  -0.026  0.00  0.00    +0.157 A 
ATOM     11  N   UNL     1      -0.617  -2.082   0.080  0.00  0.00    -0.203 NA
ATOM     12  C   UNL     1       0.668  -2.083  -0.172  0.00  0.00    +0.294 A 
ATOM     13  O   UNL     1       1.050  -0.826  -0.449  0.00  0.00    -0.430 OA
ATOM     14  N   UNL     1       1.494  -3.195  -0.161  0.00  0.00    -0.235 N 
ATOM     15  C   UNL     1       0.985  -4.409   0.128  0.00  0.00    +0.262 C 
ATOM     16  O   UNL     1      -0.202  -4.528   0.379  0.00  0.00    -0.269 OA
ATOM     17  H   UNL     1       2.438  -3.100  -0.360  0.00  0.00    +0.160 HD
ENDBRANCH   1  15
BRANCH   6  18
ATOM     18  C   UNL     1       4.811  -9.478   0.034  0.00  0.00    +0.070 A 
ATOM     19  C   UNL     1       3.574 -10.109   0.028  0.00  0.00    +0.046 A 
ATOM     20  C   UNL     1       3.502 -11.486   0.119  0.00  0.00    +0.043 A 
ATOM     21  C   UNL     1       4.660 -12.237   0.217  0.00  0.00    +0.023 A 
ATOM     22  C   UNL     1       5.894 -11.613   0.223  0.00  0.00    +0.041 A 
ATOM     23  C   UNL     1       5.974 -10.236   0.126  0.00  0.00    +0.145 A 
ATOM     24  F   UNL     1       7.180  -9.626   0.127  0.00  0.00    -0.204 F 
ATOM     25 CL   UNL     1       1.955 -12.275   0.113  0.00  0.00    -0.083 Cl
ENDBRANCH   6  18
BRANCH   2  26
ATOM     26  N   UNL     1       0.228  -7.291   0.712  0.00  0.00    -0.342 N 
ATOM     27  H   UNL     1      -0.491  -6.641   0.752  0.00  0.00    +0.144 HD
ATOM     28  H   UNL     1       0.047  -8.227   0.890  0.00  0.00    +0.144 HD
ENDBRANCH   2  26
TORSDOF 3
