REMARK  Name = ZINC48421488
REMARK  3 active torsions:
REMARK  status: ('A' for Active; 'I' for Inactive)
REMARK    1  A    between atoms: C_1  and  C_2
REMARK    2  A    between atoms: N_10  and  N_11
REMARK    3  A    between atoms: C_12  and  C_14
REMARK                            x       y       z     vdW  Elec       q    Type
REMARK                         _______ _______ _______ _____ _____    ______ ____
ROOT
ATOM      1  C   UNL     1      -0.018   1.503   0.010  0.00  0.00    +0.089 C 
ATOM      2  C   UNL     1       0.002  -0.004   0.002  0.00  0.00    +0.136 A 
ATOM      3  C   UNL     1      -1.076  -0.807   0.003  0.00  0.00    +0.091 A 
ATOM      4  C   UNL     1      -0.625  -2.147  -0.007  0.00  0.00    +0.169 A 
ATOM      5  N   UNL     1       0.683  -2.130  -0.013  0.00  0.00    -0.063 NA
ATOM      6  O   UNL     1       1.100  -0.776  -0.013  0.00  0.00    -0.358 OA
ATOM      7  N   UNL     1      -1.432  -3.285  -0.009  0.00  0.00    -0.250 N 
ATOM      8  C   UNL     1      -2.774  -3.159  -0.002  0.00  0.00    +0.321 C 
ATOM      9  O   UNL     1      -3.281  -2.054   0.006  0.00  0.00    -0.251 OA
ATOM     10  N   UNL     1      -3.553  -4.259  -0.005  0.00  0.00    -0.218 N 
ATOM     11  H   UNL     1      -1.027  -4.166  -0.016  0.00  0.00    +0.158 HD
ATOM     12  H   UNL     1      -4.519  -4.169   0.000  0.00  0.00    +0.174 HD
ENDROOT
BRANCH  10  13
ATOM     13  N   UNL     1      -2.969  -5.532  -0.014  0.00  0.00    -0.228 N 
ATOM     14  C   UNL     1      -3.748  -6.631  -0.017  0.00  0.00    +0.276 C 
ATOM     15  O   UNL     1      -4.960  -6.519  -0.011  0.00  0.00    -0.267 OA
ATOM     16  H   UNL     1      -2.003  -5.622  -0.019  0.00  0.00    +0.173 HD
BRANCH  14  17
ATOM     17  C   UNL     1      -3.136  -7.964  -0.027  0.00  0.00    +0.104 A 
ATOM     18  C   UNL     1      -3.807  -9.169  -0.036  0.00  0.00    +0.047 A 
ATOM     19  C   UNL     1      -2.838 -10.179  -0.044  0.00  0.00    +0.036 A 
ATOM     20  C   UNL     1      -1.620  -9.586  -0.039  0.00  0.00    +0.098 A 
ATOM     21  N   UNL     1      -1.787  -8.240  -0.035  0.00  0.00    -0.356 N 
ATOM     22  H   UNL     1      -1.075  -7.581  -0.034  0.00  0.00    +0.166 HD
ATOM     23 BR   UNL     1      -3.171 -12.040  -0.058  0.00  0.00    -0.049 Br
ENDBRANCH  14  17
ENDBRANCH  10  13
TORSDOF 2
