REMARK  Name = ZINC43769275
REMARK  7 active torsions:
REMARK  status: ('A' for Active; 'I' for Inactive)
REMARK    1  A    between atoms: C_1  and  C_2
REMARK    2  A    between atoms: C_5  and  N_22
REMARK    3  A    between atoms: C_7  and  N_8
REMARK    4  A    between atoms: N_8  and  C_9
REMARK    5  A    between atoms: C_11  and  O_21
REMARK    6  A    between atoms: C_13  and  O_20
REMARK    7  A    between atoms: C_15  and  O_19
REMARK                            x       y       z     vdW  Elec       q    Type
REMARK                         _______ _______ _______ _____ _____    ______ ____
ROOT
ATOM      1  N   UNL     1       0.025  -0.016   2.415  0.00  0.00    -0.317 N 
ATOM      2  H   UNL     1       0.012   0.954   2.422  0.00  0.00    +0.149 HD
ENDROOT
BRANCH   1   9
ATOM      3  C   UNL     1      -0.018   1.503   0.010  0.00  0.00    +0.045 C 
ATOM      4  C   UNL     1       0.002  -0.004   0.002  0.00  0.00    -0.029 A 
ATOM      5  C   UNL     1       0.006  -0.689  -1.198  0.00  0.00    +0.007 A 
ATOM      6  C   UNL     1       0.025  -2.071  -1.206  0.00  0.00    +0.033 A 
ATOM      7  C   UNL     1       0.040  -2.773  -0.014  0.00  0.00    +0.128 A 
ATOM      8  C   UNL     1       0.036  -2.095   1.188  0.00  0.00    +0.056 A 
ATOM      9  C   UNL     1       0.023  -0.706   1.200  0.00  0.00    +0.034 A 
BRANCH   7  10
ATOM     10  N   UNL     1       0.059  -4.253  -0.028  0.00  0.00    +0.056 N 
ATOM     11  O   UNL     1       0.062  -4.848  -1.081  0.00  0.00    -0.126 OA
ATOM     12  O   UNL     1       0.072  -4.867   1.013  0.00  0.00    -0.126 OA
ENDBRANCH   7  10
ENDBRANCH   1   9
BRANCH   1  13
ATOM     13  C   UNL     1       0.047  -0.758   3.678  0.00  0.00    +0.235 C 
ATOM     14  C   UNL     1       0.874   0.015   4.710  0.00  0.00    +0.192 C 
ATOM     15  C   UNL     1       0.842  -0.737   6.044  0.00  0.00    +0.178 C 
ATOM     16  C   UNL     1      -0.615  -0.915   6.483  0.00  0.00    +0.171 C 
ATOM     17  C   UNL     1      -1.384  -1.652   5.383  0.00  0.00    +0.196 C 
ATOM     18  O   UNL     1      -1.288  -0.916   4.162  0.00  0.00    -0.354 OA
BRANCH  16  19
ATOM     19  O   UNL     1      -1.207   0.366   6.705  0.00  0.00    -0.387 OA
ATOM     20  H   UNL     1      -2.131   0.329   6.986  0.00  0.00    +0.210 HD
ENDBRANCH  16  19
BRANCH  15  21
ATOM     21  O   UNL     1       1.552   0.013   7.032  0.00  0.00    -0.386 OA
ATOM     22  H   UNL     1       1.573  -0.405   7.904  0.00  0.00    +0.210 HD
ENDBRANCH  15  21
BRANCH  14  23
ATOM     23  O   UNL     1       2.224   0.124   4.254  0.00  0.00    -0.385 OA
ATOM     24  H   UNL     1       2.806   0.604   4.860  0.00  0.00    +0.210 HD
ENDBRANCH  14  23
ENDBRANCH   1  13
TORSDOF 6
