REMARK  Name = ZINC54396365
REMARK  4 active torsions:
REMARK  status: ('A' for Active; 'I' for Inactive)
REMARK    1  A    between atoms: C_5  and  S_7
REMARK    2  A    between atoms: S_7  and  C_8
REMARK    3  A    between atoms: C_9  and  C_14
REMARK    4  A    between atoms: N_15  and  O_16
REMARK                            x       y       z     vdW  Elec       q    Type
REMARK                         _______ _______ _______ _____ _____    ______ ____
ROOT
ATOM      1  C   UNL     1      -0.472  -2.903   0.149  0.00  0.00    +0.130 A 
ATOM      2  C   UNL     1      -0.818  -4.258   0.281  0.00  0.00    +0.138 A 
ATOM      3  N   UNL     1      -2.097  -4.602   0.396  0.00  0.00    -0.248 NA
ATOM      4  C   UNL     1      -3.034  -3.672   0.385  0.00  0.00    +0.131 A 
ATOM      5  C   UNL     1      -2.692  -2.337   0.254  0.00  0.00    +0.132 A 
ATOM      6  N   UNL     1      -1.425  -1.979   0.144  0.00  0.00    -0.245 NA
ENDROOT
BRANCH   2   7
ATOM      7  C   UNL     1       0.234  -5.297   0.293  0.00  0.00    +0.183 C 
ATOM      8  N   UNL     1       0.707  -5.732   1.424  0.00  0.00    -0.070 NA
ATOM      9  N   UNL     1       0.718  -5.806  -0.901  0.00  0.00    -0.339 N 
ATOM     10  H   UNL     1       0.365  -5.482  -1.745  0.00  0.00    +0.144 HD
ATOM     11  H   UNL     1       1.408  -6.488  -0.894  0.00  0.00    +0.144 HD
BRANCH   8  12
ATOM     12  O   UNL     1       0.300  -5.129   2.640  0.00  0.00    -0.408 OA
ATOM     13  H   UNL     1       0.761  -5.468   3.420  0.00  0.00    +0.328 HD
ENDBRANCH   8  12
ENDBRANCH   2   7
BRANCH   1  14
ATOM     14  S   UNL     1       1.219  -2.432  -0.003  0.00  0.00    -0.067 S 
BRANCH  14  19
ATOM     15  C   UNL     1       1.482   1.450   1.016  0.00  0.00    +0.001 A 
ATOM     16  C   UNL     1       1.087   2.094  -0.143  0.00  0.00    +0.001 A 
ATOM     17  C   UNL     1       0.734   1.359  -1.260  0.00  0.00    +0.016 A 
ATOM     18  C   UNL     1       0.773  -0.022  -1.221  0.00  0.00    +0.032 A 
ATOM     19  C   UNL     1       1.168  -0.672  -0.058  0.00  0.00    +0.028 A 
ATOM     20  C   UNL     1       1.523   0.070   1.062  0.00  0.00    +0.016 A 
ATOM     21 BR   UNL     1       0.288  -1.026  -2.748  0.00  0.00    -0.049 Br
ENDBRANCH  14  19
ENDBRANCH   1  14
TORSDOF 4
