REMARK  Name = ZINC43424178
REMARK  3 active torsions:
REMARK  status: ('A' for Active; 'I' for Inactive)
REMARK    1  A    between atoms: C_5  and  S_8
REMARK    2  A    between atoms: C_6  and  N_7
REMARK    3  A    between atoms: S_8  and  N_11
REMARK                            x       y       z     vdW  Elec       q    Type
REMARK                         _______ _______ _______ _____ _____    ______ ____
ROOT
ATOM      1  S   UNL     1       1.021  -2.389  -0.555  0.00  0.00    +0.064 S 
ATOM      2  O   UNL     1      -0.329  -2.666  -0.899  0.00  0.00    -0.153 OA
ATOM      3  O   UNL     1       2.108  -2.710  -1.413  0.00  0.00    -0.153 OA
ENDROOT
BRANCH   1   4
ATOM      4  N   UNL     1       1.311  -3.158   0.882  0.00  0.00    -0.169 NA
ATOM      5  C   UNL     1       2.684  -3.520   1.266  0.00  0.00    +0.138 C 
ATOM      6  C   UNL     1       2.912  -3.014   2.697  0.00  0.00    +0.177 C 
ATOM      7  O   UNL     1       1.891  -3.552   3.537  0.00  0.00    -0.374 OA
ATOM      8  C   UNL     1       0.561  -3.125   3.237  0.00  0.00    +0.137 C 
ATOM      9  C   UNL     1       0.206  -3.478   1.780  0.00  0.00    +0.109 C 
ATOM     10  C   UNL     1      -0.066  -4.990   1.803  0.00  0.00    +0.023 C 
ATOM     11  C   UNL     1      -0.454  -5.339   3.252  0.00  0.00    +0.004 C 
ATOM     12  C   UNL     1      -0.408  -4.030   4.046  0.00  0.00    +0.033 C 
ENDBRANCH   1   4
BRANCH   1  17
ATOM     13  C   UNL     1       0.068   1.406   0.405  0.00  0.00    +0.044 A 
ATOM     14  C   UNL     1       1.270   2.068   0.235  0.00  0.00    +0.044 A 
ATOM     15  C   UNL     1       2.393   1.371  -0.175  0.00  0.00    +0.042 A 
ATOM     16  C   UNL     1       2.317   0.010  -0.415  0.00  0.00    +0.070 A 
ATOM     17  C   UNL     1       1.118  -0.657  -0.247  0.00  0.00    +0.144 A 
ATOM     18  C   UNL     1      -0.011   0.040   0.165  0.00  0.00    +0.054 A 
ATOM     19 CL   UNL     1       3.728  -0.860  -0.929  0.00  0.00    -0.081 Cl
ATOM     20 CL   UNL     1       1.369   3.775   0.535  0.00  0.00    -0.083 Cl
BRANCH  18  21
ATOM     21  N   UNL     1      -1.224  -0.631   0.336  0.00  0.00    -0.356 N 
ATOM     22  H   UNL     1      -2.054  -0.131   0.374  0.00  0.00    +0.142 HD
ATOM     23  H   UNL     1      -1.236  -1.598   0.417  0.00  0.00    +0.142 HD
ENDBRANCH  18  21
ENDBRANCH   1  17
TORSDOF 3
