REMARK  Name = ZINC33602750
REMARK  7 active torsions:
REMARK  status: ('A' for Active; 'I' for Inactive)
REMARK    1  A    between atoms: C_1  and  C_2
REMARK    2  A    between atoms: C_2  and  C_3
REMARK    3  A    between atoms: C_3  and  C_4
REMARK    4  A    between atoms: C_4  and  C_6
REMARK    5  A    between atoms: C_4  and  N_24
REMARK    6  A    between atoms: C_8  and  C_11
REMARK    7  A    between atoms: N_13  and  C_14
REMARK                            x       y       z     vdW  Elec       q    Type
REMARK                         _______ _______ _______ _____ _____    ______ ____
ROOT
ATOM      1  C   UNL     1      -2.112   5.752  -0.958  0.00  0.00    +0.266 C 
ATOM      2  O   UNL     1      -2.639   5.142  -1.868  0.00  0.00    -0.268 OA
ATOM      3  N   UNL     1      -1.510   5.081   0.044  0.00  0.00    -0.304 N 
ATOM      4  H   UNL     1      -1.033   5.633   0.867  0.00  0.00    +0.150 HD
ENDROOT
BRANCH   3   5
ATOM      5  C   UNL     1      -1.490   3.616   0.036  0.00  0.00    +0.036 C 
ATOM      6  C   UNL     1      -0.773   3.123  -1.223  0.00  0.00    +0.029 C 
ATOM      7  C   UNL     1      -0.753   1.593  -1.232  0.00  0.00    -0.008 C 
ATOM      8  C   UNL     1      -0.013   1.086   0.008  0.00  0.00    +0.007 C 
ATOM      9  C   UNL     1      -0.729   1.579   1.267  0.00  0.00    -0.008 C 
ATOM     10  C   UNL     1      -0.750   3.109   1.275  0.00  0.00    +0.029 C 
ATOM     11  C   UNL     1      -2.164   1.050   1.278  0.00  0.00    +0.007 C 
ATOM     12  C   UNL     1      -2.904   1.556   0.038  0.00  0.00    -0.008 C 
ATOM     13  C   UNL     1      -2.188   1.063  -1.221  0.00  0.00    +0.007 C 
ATOM     14  C   UNL     1      -2.925   3.086   0.047  0.00  0.00    +0.029 C 
ENDBRANCH   3   5
BRANCH   1  17
ATOM     15  C   UNL     1      -1.807   9.272  -0.341  0.00  0.00    +0.182 A 
ATOM     16  N   UNL     1      -1.587   8.037  -0.003  0.00  0.00    -0.210 NA
ATOM     17  C   UNL     1      -2.132   7.226  -0.950  0.00  0.00    +0.163 A 
ATOM     18  C   UNL     1      -2.694   8.032  -1.891  0.00  0.00    +0.230 A 
ATOM     19  O   UNL     1      -2.489   9.299  -1.495  0.00  0.00    -0.449 OA
BRANCH  15  20
ATOM     20  C   UNL     1      -1.366  10.483   0.440  0.00  0.00    +0.013 C 
BRANCH  20  21
ATOM     21  N   UNL     1      -0.787  11.473  -0.478  0.00  0.00    +0.386 N 
ATOM     22  H   UNL     1       0.080  11.033  -0.993  0.00  0.00    -0.089 HD
ATOM     23  H   UNL     1      -0.464  12.357   0.092  0.00  0.00    -0.089 HD
ATOM     24  H   UNL     1      -1.542  11.771  -1.220  0.00  0.00    -0.089 HD
ENDBRANCH  20  21
BRANCH  20  25
ATOM     25  C   UNL     1      -2.571  11.095   1.156  0.00  0.00    -0.007 C 
BRANCH  25  27
ATOM     26  C   UNL     1      -3.309  12.859   2.764  0.00  0.00    +0.004 C 
ATOM     27  C   UNL     1      -2.103  12.247   2.047  0.00  0.00    -0.005 C 
ENDBRANCH  25  27
ENDBRANCH  20  25
ENDBRANCH  15  20
ENDBRANCH   1  17
TORSDOF 6
