REMARK  Name = ZINC14568953
REMARK  7 active torsions:
REMARK  status: ('A' for Active; 'I' for Inactive)
REMARK    1  A    between atoms: C_5  and  C_7
REMARK    2  A    between atoms: C_8  and  C_9
REMARK    3  A    between atoms: N_11  and  C_12
REMARK    4  A    between atoms: C_12  and  N_14
REMARK    5  A    between atoms: N_14  and  C_15
REMARK    6  A    between atoms: C_19  and  N_21
REMARK    7  A    between atoms: C_22  and  C_24
REMARK                            x       y       z     vdW  Elec       q    Type
REMARK                         _______ _______ _______ _____ _____    ______ ____
ROOT
ATOM      1  N   UNL     1      -2.815   1.378   0.259  0.00  0.00    -0.297 N 
ATOM      2  H   UNL     1      -2.858   0.441   0.509  0.00  0.00    +0.154 HD
ENDROOT
BRANCH   1   3
ATOM      3  C   UNL     1      -1.581   2.037   0.228  0.00  0.00    +0.034 A 
ATOM      4  C   UNL     1      -0.490   1.441  -0.393  0.00  0.00    +0.023 A 
ATOM      5  C   UNL     1       0.730   2.088  -0.418  0.00  0.00    +0.004 A 
ATOM      6  C   UNL     1       0.868   3.332   0.167  0.00  0.00    +0.023 A 
ATOM      7  C   UNL     1      -0.220   3.936   0.783  0.00  0.00    +0.036 A 
ATOM      8  C   UNL     1      -1.447   3.288   0.811  0.00  0.00    +0.046 A 
BRANCH   7   9
ATOM      9  N   UNL     1      -0.080   5.194   1.376  0.00  0.00    -0.279 N 
ATOM     10  C   UNL     1      -0.751   5.486   2.507  0.00  0.00    +0.284 C 
ATOM     11  O   UNL     1      -1.385   4.618   3.079  0.00  0.00    -0.266 OA
ATOM     12  H   UNL     1       0.501   5.858   0.972  0.00  0.00    +0.155 HD
BRANCH  10  13
ATOM     13  C   UNL     1      -0.718   6.847   3.050  0.00  0.00    +0.189 A 
ATOM     14  C   UNL     1      -1.351   7.276   4.182  0.00  0.00    +0.054 A 
ATOM     15  C   UNL     1      -1.047   8.639   4.322  0.00  0.00    +0.042 A 
ATOM     16  C   UNL     1      -0.253   8.979   3.283  0.00  0.00    +0.196 A 
ATOM     17  O   UNL     1      -0.053   7.895   2.521  0.00  0.00    -0.458 OA
ENDBRANCH  10  13
ENDBRANCH   7   9
ENDBRANCH   1   3
BRANCH   1  18
ATOM     18  C   UNL     1      -3.943   2.044  -0.058  0.00  0.00    +0.141 C 
ATOM     19  S   UNL     1      -3.881   3.722  -0.390  0.00  0.00    -0.018 S 
BRANCH  18  22
ATOM     20  C   UNL     1      -6.247   2.055  -0.430  0.00  0.00    +0.242 C 
ATOM     21  O   UNL     1      -6.203   3.248  -0.666  0.00  0.00    -0.270 OA
ATOM     22  N   UNL     1      -5.119   1.389  -0.113  0.00  0.00    -0.264 N 
ATOM     23  H   UNL     1      -5.154   0.438   0.075  0.00  0.00    +0.157 HD
BRANCH  20  25
ATOM     24  C   UNL     1      -8.653   2.010  -0.807  0.00  0.00    +0.014 C 
ATOM     25  C   UNL     1      -7.524   1.344  -0.490  0.00  0.00    +0.068 C 
BRANCH  24  30
ATOM     26  C   UNL     1     -11.199  -0.739  -0.656  0.00  0.00    +0.001 A 
ATOM     27  C   UNL     1     -12.356  -0.052  -0.981  0.00  0.00    +0.001 A 
ATOM     28  C   UNL     1     -12.312   1.304  -1.250  0.00  0.00    +0.020 A 
ATOM     29  C   UNL     1     -11.112   1.984  -1.190  0.00  0.00    +0.048 A 
ATOM     30  C   UNL     1      -9.938   1.295  -0.867  0.00  0.00    -0.007 A 
ATOM     31  C   UNL     1      -9.992  -0.076  -0.597  0.00  0.00    +0.009 A 
ATOM     32 CL   UNL     1     -11.059   3.688  -1.521  0.00  0.00    -0.083 Cl
ENDBRANCH  24  30
ENDBRANCH  20  25
ENDBRANCH  18  22
ENDBRANCH   1  18
TORSDOF 7
