REMARK  Name = ZINC50731305
REMARK  9 active torsions:
REMARK  status: ('A' for Active; 'I' for Inactive)
REMARK    1  A    between atoms: C_1  and  C_2
REMARK    2  A    between atoms: C_2  and  C_3
REMARK    3  A    between atoms: C_3  and  C_4
REMARK    4  A    between atoms: C_4  and  C_6
REMARK    5  A    between atoms: C_4  and  N_7
REMARK    6  A    between atoms: C_8  and  C_10
REMARK    7  A    between atoms: C_17  and  C_19
REMARK    8  A    between atoms: C_23  and  N_26
REMARK    9  A    between atoms: C_24  and  N_25
REMARK                            x       y       z     vdW  Elec       q    Type
REMARK                         _______ _______ _______ _____ _____    ______ ____
ROOT
ATOM      1  C   UNL     1       0.332  -4.275  -2.612  0.00  0.00    +0.092 C 
ATOM      2  C   UNL     1       0.936  -5.667  -2.410  0.00  0.00    +0.016 C 
ATOM      3  C   UNL     1       1.508  -6.173  -3.736  0.00  0.00    +0.020 C 
ATOM      4  C   UNL     1       2.619  -5.226  -4.202  0.00  0.00    +0.108 C 
ATOM      5  N   UNL     1       2.083  -3.860  -4.259  0.00  0.00    -0.297 N 
ATOM      6  C   UNL     1       1.429  -3.307  -3.065  0.00  0.00    +0.120 C 
ATOM      7  C   UNL     1       2.190  -3.126  -5.385  0.00  0.00    +0.249 C 
ATOM      8  O   UNL     1       1.649  -2.039  -5.456  0.00  0.00    -0.270 OA
ENDROOT
BRANCH   7   9
ATOM      9  C   UNL     1       2.962  -3.642  -6.530  0.00  0.00    +0.062 A 
ATOM     10  C   UNL     1       4.285  -4.059  -6.356  0.00  0.00    +0.053 A 
ATOM     11  C   UNL     1       5.001  -4.540  -7.431  0.00  0.00    +0.126 A 
ATOM     12  C   UNL     1       4.415  -4.612  -8.687  0.00  0.00    +0.073 A 
ATOM     13  C   UNL     1       3.111  -4.204  -8.873  0.00  0.00    +0.150 A 
ATOM     14  C   UNL     1       2.372  -3.722  -7.800  0.00  0.00    +0.068 A 
ATOM     15  F   UNL     1       6.280  -4.943  -7.261  0.00  0.00    -0.205 F 
BRANCH  14  16
ATOM     16  N   UNL     1       1.055  -3.317  -7.985  0.00  0.00    -0.356 N 
ATOM     17  H   UNL     1       0.788  -2.902  -8.820  0.00  0.00    +0.142 HD
ATOM     18  H   UNL     1       0.403  -3.448  -7.279  0.00  0.00    +0.142 HD
ENDBRANCH  14  16
BRANCH  13  19
ATOM     19  N   UNL     1       2.496  -4.284 -10.218  0.00  0.00    +0.058 N 
ATOM     20  O   UNL     1       3.106  -4.788 -11.132  0.00  0.00    -0.126 OA
ATOM     21  O   UNL     1       1.385  -3.845 -10.401  0.00  0.00    -0.126 OA
ENDBRANCH  13  19
ENDBRANCH   7   9
BRANCH   1  23
ATOM     22  N   UNL     1      -0.851  -2.581  -1.251  0.00  0.00    -0.312 N 
ATOM     23  C   UNL     1      -0.261  -3.791  -1.313  0.00  0.00    +0.218 C 
ATOM     24  O   UNL     1      -0.207  -4.491  -0.324  0.00  0.00    -0.275 OA
ATOM     25  H   UNL     1      -0.894  -2.022  -2.042  0.00  0.00    +0.149 HD
BRANCH  22  26
ATOM     26  C   UNL     1      -1.427  -2.111   0.011  0.00  0.00    +0.070 C 
ATOM     27  C   UNL     1      -2.852  -2.650   0.153  0.00  0.00    +0.028 C 
BRANCH  26  28
ATOM     28  C   UNL     1      -1.457  -0.581   0.019  0.00  0.00    +0.022 C 
BRANCH  28  30
ATOM     29  C   UNL     1      -0.056   1.487   0.010  0.00  0.00    +0.004 C 
ATOM     30  C   UNL     1      -0.025  -0.042   0.002  0.00  0.00    -0.002 C 
ENDBRANCH  28  30
ENDBRANCH  26  28
ENDBRANCH  22  26
ENDBRANCH   1  23
TORSDOF 7
