REMARK  Name = ZINC37577196
REMARK  7 active torsions:
REMARK  status: ('A' for Active; 'I' for Inactive)
REMARK    1  A    between atoms: C_3  and  S_12
REMARK    2  A    between atoms: C_6  and  C_7
REMARK    3  A    between atoms: C_8  and  C_9
REMARK    4  A    between atoms: C_9  and  O_10
REMARK    5  A    between atoms: S_12  and  N_15
REMARK    6  A    between atoms: N_15  and  C_16
REMARK    7  A    between atoms: C_16  and  C_17
REMARK                            x       y       z     vdW  Elec       q    Type
REMARK                         _______ _______ _______ _____ _____    ______ ____
ROOT
ATOM      1  C   UNL     1      -0.017   1.391   0.010  0.00  0.00    +0.019 A 
ATOM      2  C   UNL     1       1.170   2.095   0.002  0.00  0.00    +0.031 A 
ATOM      3  C   UNL     1       2.378   1.420  -0.013  0.00  0.00    +0.124 A 
ATOM      4  C   UNL     1       2.404   0.036  -0.022  0.00  0.00    +0.068 A 
ATOM      5  C   UNL     1       1.223  -0.679  -0.014  0.00  0.00    +0.038 A 
ATOM      6  C   UNL     1       0.002  -0.004   0.002  0.00  0.00    +0.026 A 
ATOM      7 CL   UNL     1       3.924  -0.802  -0.042  0.00  0.00    -0.081 Cl
ENDROOT
BRANCH   3   8
ATOM      8  S   UNL     1       3.889   2.327  -0.024  0.00  0.00    +0.060 S 
ATOM      9  O   UNL     1       4.687   1.773  -1.060  0.00  0.00    -0.153 OA
ATOM     10  O   UNL     1       3.537   3.703   0.014  0.00  0.00    -0.153 OA
BRANCH   8  11
ATOM     11  N   UNL     1       4.667   1.998   1.401  0.00  0.00    -0.181 NA
ATOM     12  H   UNL     1       4.810   2.704   2.050  0.00  0.00    +0.149 HD
BRANCH  11  13
ATOM     13  C   UNL     1       5.138   0.639   1.681  0.00  0.00    +0.201 C 
BRANCH  13  14
ATOM     14  C   UNL     1       6.112   0.673   2.830  0.00  0.00    +0.226 C 
ATOM     15  O   UNL     1       6.385   1.727   3.364  0.00  0.00    -0.275 OA
ATOM     16  N   UNL     1       6.679  -0.469   3.266  0.00  0.00    -0.328 N 
ATOM     17  H   UNL     1       6.461  -1.313   2.840  0.00  0.00    +0.145 HD
ATOM     18  H   UNL     1       7.306  -0.448   4.006  0.00  0.00    +0.145 HD
ENDBRANCH  13  14
ENDBRANCH  11  13
ENDBRANCH   8  11
ENDBRANCH   3   8
BRANCH   6  19
ATOM     19  C   UNL     1      -1.226  -0.740   0.010  0.00  0.00    -0.064 C 
ATOM     20  C   UNL     1      -2.234  -1.343   0.017  0.00  0.00    -0.069 C 
BRANCH  20  21
ATOM     21  C   UNL     1      -3.497  -2.099   0.025  0.00  0.00    +0.244 C 
BRANCH  21  22
ATOM     22  O   UNL     1      -3.213  -3.500   0.015  0.00  0.00    -0.383 OA
ATOM     23  H   UNL     1      -4.001  -4.061   0.020  0.00  0.00    +0.211 HD
ENDBRANCH  21  22
ENDBRANCH  20  21
ENDBRANCH   6  19
TORSDOF 7
