REMARK  Name = ZINC03453393
REMARK  10 active torsions:
REMARK  status: ('A' for Active; 'I' for Inactive)
REMARK    1  A    between atoms: C_1  and  C_2
REMARK    2  A    between atoms: C_2  and  C_24
REMARK    3  A    between atoms: N_5  and  C_9
REMARK    4  A    between atoms: C_9  and  C_10
REMARK    5  A    between atoms: N_12  and  C_13
REMARK    6  A    between atoms: C_14  and  C_21
REMARK    7  A    between atoms: C_27  and  C_30
REMARK    8  A    between atoms: C_30  and  C_31
REMARK    9  A    between atoms: C_30  and  C_32
REMARK   10  A    between atoms: C_30  and  C_33
REMARK                            x       y       z     vdW  Elec       q    Type
REMARK                         _______ _______ _______ _____ _____    ______ ____
ROOT
ATOM      1  C   UNL     1       1.799  -1.187  -1.280  0.00  0.00    +0.047 C 
ATOM      2  C   UNL     1       1.467  -0.394  -0.014  0.00  0.00    +0.135 C 
ATOM      3  C   UNL     1       0.002  -0.004   0.002  0.00  0.00    +0.251 C 
ATOM      4  O   UNL     1      -0.954  -0.749   0.008  0.00  0.00    -0.272 OA
ATOM      5  N   UNL     1      -0.016   1.343   0.009  0.00  0.00    -0.215 N 
ATOM      6  C   UNL     1       1.220   1.854   0.000  0.00  0.00    +0.310 C 
ATOM      7  O   UNL     1       1.460   3.045   0.004  0.00  0.00    -0.252 OA
ATOM      8  N   UNL     1       2.170   0.901  -0.014  0.00  0.00    -0.281 N 
ATOM      9  H   UNL     1       3.130   1.039  -0.022  0.00  0.00    +0.152 HD
ENDROOT
BRANCH   2  10
ATOM     10  C   UNL     1       1.818  -1.188   1.218  0.00  0.00    -0.015 A 
ATOM     11  C   UNL     1       0.860  -1.975   1.829  0.00  0.00    +0.006 A 
ATOM     12  C   UNL     1       1.183  -2.707   2.956  0.00  0.00    +0.004 A 
ATOM     13  C   UNL     1       2.461  -2.644   3.478  0.00  0.00    -0.042 A 
ATOM     14  C   UNL     1       3.418  -1.853   2.870  0.00  0.00    +0.004 A 
ATOM     15  C   UNL     1       3.096  -1.125   1.740  0.00  0.00    +0.006 A 
BRANCH  13  16
ATOM     16  C   UNL     1       2.812  -3.437   4.711  0.00  0.00    -0.013 C 
ATOM     17  C   UNL     1       3.263  -2.484   5.819  0.00  0.00    +0.015 C 
ATOM     18  C   UNL     1       1.584  -4.221   5.179  0.00  0.00    +0.015 C 
ATOM     19  C   UNL     1       3.945  -4.413   4.384  0.00  0.00    +0.015 C 
ENDBRANCH  13  16
ENDBRANCH   2  10
BRANCH   5  20
ATOM     20  C   UNL     1      -1.239   2.150   0.020  0.00  0.00    +0.214 C 
BRANCH  20  21
ATOM     21  C   UNL     1      -1.652   2.419   1.444  0.00  0.00    +0.236 C 
ATOM     22  O   UNL     1      -0.989   1.980   2.360  0.00  0.00    -0.274 OA
ATOM     23  N   UNL     1      -2.757   3.147   1.700  0.00  0.00    -0.278 N 
ATOM     24  H   UNL     1      -3.287   3.498   0.967  0.00  0.00    +0.155 HD
BRANCH  23  25
ATOM     25  C   UNL     1      -3.136   3.394   3.010  0.00  0.00    +0.084 A 
ATOM     26  C   UNL     1      -4.227   4.112   3.469  0.00  0.00    +0.068 A 
ATOM     27  C   UNL     1      -4.403   4.226   4.917  0.00  0.00    -0.023 A 
ATOM     28  C   UNL     1      -3.466   3.605   5.656  0.00  0.00    -0.004 A 
ATOM     29  S   UNL     1      -2.365   2.873   4.470  0.00  0.00    -0.077 S 
ATOM     30  C   UNL     1      -3.717   3.762   7.131  0.00  0.00    +0.043 C 
ATOM     31  C   UNL     1      -5.191   4.213   7.230  0.00  0.00    +0.010 C 
ATOM     32  C   UNL     1      -5.405   4.891   5.862  0.00  0.00    +0.037 C 
BRANCH  26  33
ATOM     33  C   UNL     1      -5.172   4.736   2.538  0.00  0.00    +0.244 C 
ATOM     34  O   UNL     1      -6.144   4.115   2.150  0.00  0.00    -0.270 OA
ATOM     35  N   UNL     1      -4.965   5.998   2.111  0.00  0.00    -0.325 N 
ATOM     36  H   UNL     1      -4.190   6.493   2.420  0.00  0.00    +0.145 HD
ATOM     37  H   UNL     1      -5.590   6.410   1.495  0.00  0.00    +0.145 HD
ENDBRANCH  26  33
ENDBRANCH  23  25
ENDBRANCH  20  21
ENDBRANCH   5  20
TORSDOF 6
