REMARK  Name = ZINC13086955
REMARK  8 active torsions:
REMARK  status: ('A' for Active; 'I' for Inactive)
REMARK    1  A    between atoms: C_1  and  C_2
REMARK    2  A    between atoms: C_2  and  N_3
REMARK    3  A    between atoms: C_4  and  C_6
REMARK    4  A    between atoms: C_6  and  O_7
REMARK    5  A    between atoms: O_7  and  C_8
REMARK    6  A    between atoms: C_11  and  S_16
REMARK    7  A    between atoms: C_13  and  C_14
REMARK    8  A    between atoms: S_16  and  N_19
REMARK                            x       y       z     vdW  Elec       q    Type
REMARK                         _______ _______ _______ _____ _____    ______ ____
ROOT
ATOM      1  C   UNL     1       1.180   1.785   0.000  0.00  0.00    +0.135 A 
ATOM      2  C   UNL     1      -0.013   1.076   0.008  0.00  0.00    +0.048 A 
ATOM      3  C   UNL     1      -1.218   1.749   0.017  0.00  0.00    +0.032 A 
ATOM      4  C   UNL     1      -1.248   3.134   0.031  0.00  0.00    +0.106 A 
ATOM      5  C   UNL     1      -0.073   3.855   0.024  0.00  0.00    +0.047 A 
ATOM      6  C   UNL     1       1.154   3.186   0.008  0.00  0.00    +0.107 A 
ENDROOT
BRANCH   6   7
ATOM      7  C   UNL     1       2.414   3.951   0.001  0.00  0.00    +0.390 C 
ATOM      8  O   UNL     1       3.480   3.366  -0.012  0.00  0.00    -0.240 OA
ATOM      9  O   UNL     1       2.385   5.298   0.008  0.00  0.00    -0.240 OA
ENDBRANCH   6   7
BRANCH   4  10
ATOM     10  S   UNL     1      -2.794   3.978   0.050  0.00  0.00    +0.061 S 
ATOM     11  O   UNL     1      -3.742   3.076   0.605  0.00  0.00    -0.153 OA
ATOM     12  O   UNL     1      -2.549   5.263   0.606  0.00  0.00    -0.153 OA
BRANCH  10  13
ATOM     13  N   UNL     1      -3.239   4.221  -1.526  0.00  0.00    -0.172 NA
ATOM     14  C   UNL     1      -2.843   5.442  -2.245  0.00  0.00    +0.137 C 
ATOM     15  C   UNL     1      -2.210   5.027  -3.583  0.00  0.00    +0.177 C 
ATOM     16  O   UNL     1      -3.101   4.147  -4.271  0.00  0.00    -0.377 OA
ATOM     17  C   UNL     1      -3.359   2.920  -3.583  0.00  0.00    +0.177 C 
ATOM     18  C   UNL     1      -4.047   3.225  -2.248  0.00  0.00    +0.137 C 
ENDBRANCH  10  13
ENDBRANCH   4  10
BRANCH   1  19
ATOM     19  O   UNL     1       2.365   1.125  -0.015  0.00  0.00    -0.482 OA
BRANCH  19  20
ATOM     20  C   UNL     1       2.312  -0.303  -0.023  0.00  0.00    +0.324 C 
BRANCH  20  22
ATOM     21  N   UNL     1       3.910  -2.191  -0.049  0.00  0.00    -0.313 N 
ATOM     22  C   UNL     1       3.713  -0.858  -0.039  0.00  0.00    +0.251 C 
ATOM     23  O   UNL     1       4.663  -0.104  -0.044  0.00  0.00    -0.272 OA
ATOM     24  H   UNL     1       3.150  -2.793  -0.045  0.00  0.00    +0.149 HD
BRANCH  21  26
ATOM     25  C   UNL     1       5.216  -4.258  -0.073  0.00  0.00    +0.024 C 
ATOM     26  C   UNL     1       5.273  -2.730  -0.065  0.00  0.00    +0.101 C 
ENDBRANCH  21  26
ENDBRANCH  20  22
ENDBRANCH  19  20
ENDBRANCH   1  19
TORSDOF 7
