REMARK  Name = ZINC42839366
REMARK  4 active torsions:
REMARK  status: ('A' for Active; 'I' for Inactive)
REMARK    1  A    between atoms: C_1  and  C_2
REMARK    2  A    between atoms: C_2  and  C_3
REMARK    3  A    between atoms: C_2  and  N_4
REMARK    4  A    between atoms: C_10  and  C_13
REMARK                            x       y       z     vdW  Elec       q    Type
REMARK                         _______ _______ _______ _____ _____    ______ ____
ROOT
ATOM      1  N   UNL     1      -1.373  -0.510   0.011  0.00  0.00    -0.297 N 
ATOM      2  C   UNL     1      -1.643  -1.734  -0.485  0.00  0.00    +0.303 C 
ATOM      3  O   UNL     1      -0.765  -2.380  -1.023  0.00  0.00    -0.253 OA
ATOM      4  N   UNL     1      -2.888  -2.242  -0.385  0.00  0.00    -0.282 N 
ATOM      5  C   UNL     1      -3.190  -3.619  -0.813  0.00  0.00    +0.114 C 
ATOM      6  C   UNL     1      -3.663  -4.402   0.414  0.00  0.00    +0.054 C 
ATOM      7  C   UNL     1      -4.661  -3.599   1.194  0.00  0.00    -0.039 C 
ATOM      8  C   UNL     1      -4.808  -2.298   1.092  0.00  0.00    -0.004 C 
ATOM      9  C   UNL     1      -3.996  -1.447   0.163  0.00  0.00    +0.137 C 
ATOM     10  H   UNL     1      -2.088   0.035   0.373  0.00  0.00    +0.150 HD
ENDROOT
BRANCH   7  11
ATOM     11  C   UNL     1      -5.536  -4.319   2.140  0.00  0.00    +0.003 A 
ATOM     12  C   UNL     1      -6.599  -5.102   1.825  0.00  0.00    +0.091 A 
ATOM     13  N   UNL     1      -7.160  -5.598   2.967  0.00  0.00    -0.360 N 
ATOM     14  H   UNL     1      -7.933  -6.184   2.996  0.00  0.00    +0.165 HD
ATOM     15  C   UNL     1      -6.470  -5.146   4.071  0.00  0.00    +0.050 A 
ATOM     16  C   UNL     1      -5.422  -4.333   3.609  0.00  0.00    +0.007 A 
ATOM     17  C   UNL     1      -4.548  -3.737   4.516  0.00  0.00    +0.013 A 
ATOM     18  C   UNL     1      -4.713  -3.953   5.866  0.00  0.00    +0.039 A 
ATOM     19  C   UNL     1      -5.747  -4.760   6.325  0.00  0.00    +0.125 A 
ATOM     20  C   UNL     1      -6.625  -5.349   5.439  0.00  0.00    +0.064 A 
ATOM     21  F   UNL     1      -5.898  -4.964   7.652  0.00  0.00    -0.205 F 
ENDBRANCH   7  11
BRANCH   1  23
ATOM     22  C   UNL     1      -0.018   1.526   0.009  0.00  0.00    +0.027 C 
ATOM     23  C   UNL     1       0.002  -0.004   0.003  0.00  0.00    +0.068 C 
ATOM     24  C   UNL     1       0.739  -0.509   1.244  0.00  0.00    +0.027 C 
ENDBRANCH   1  23
TORSDOF 2
