REMARK  Name = ZINC37934287
REMARK  10 active torsions:
REMARK  status: ('A' for Active; 'I' for Inactive)
REMARK    1  A    between atoms: C_1  and  C_2
REMARK    2  A    between atoms: C_2  and  N_3
REMARK    3  A    between atoms: N_3  and  C_4
REMARK    4  A    between atoms: N_3  and  C_10
REMARK    5  A    between atoms: C_4  and  C_5
REMARK    6  A    between atoms: N_7  and  C_8
REMARK    7  A    between atoms: N_7  and  C_9
REMARK    8  A    between atoms: C_12  and  N_20
REMARK    9  A    between atoms: C_14  and  S_16
REMARK   10  A    between atoms: S_16  and  N_19
REMARK                            x       y       z     vdW  Elec       q    Type
REMARK                         _______ _______ _______ _____ _____    ______ ____
ROOT
ATOM      1  C   UNL     1      -2.016  -0.759   1.227  0.00  0.00    +0.034 A 
ATOM      2  C   UNL     1      -3.316  -1.245   1.238  0.00  0.00    +0.046 A 
ATOM      3  C   UNL     1      -3.952  -1.490   2.446  0.00  0.00    +0.028 A 
ATOM      4  C   UNL     1      -3.285  -1.249   3.642  0.00  0.00    +0.051 A 
ATOM      5  C   UNL     1      -1.991  -0.765   3.628  0.00  0.00    +0.108 A 
ATOM      6  C   UNL     1      -1.353  -0.526   2.426  0.00  0.00    +0.051 A 
ENDROOT
BRANCH   5   7
ATOM      7  S   UNL     1      -1.150  -0.461   5.146  0.00  0.00    +0.056 S 
ATOM      8  O   UNL     1      -0.145   0.504   4.866  0.00  0.00    -0.153 OA
ATOM      9  O   UNL     1      -2.153  -0.254   6.131  0.00  0.00    -0.153 OA
BRANCH   7  10
ATOM     10  N   UNL     1      -0.363  -1.858   5.558  0.00  0.00    -0.204 NA
ATOM     11  H   UNL     1      -0.428  -2.639   4.986  0.00  0.00    +0.144 HD
ATOM     12  H   UNL     1       0.164  -1.896   6.372  0.00  0.00    +0.144 HD
ENDBRANCH   7  10
ENDBRANCH   5   7
BRANCH   3  13
ATOM     13  N   UNL     1      -5.260  -1.979   2.462  0.00  0.00    -0.358 N 
ATOM     14  H   UNL     1      -5.725  -2.147   1.627  0.00  0.00    +0.142 HD
ATOM     15  H   UNL     1      -5.704  -2.150   3.307  0.00  0.00    +0.142 HD
ENDBRANCH   3  13
BRANCH   1  16
ATOM     16  N   UNL     1      -1.372  -0.511   0.012  0.00  0.00    -0.321 N 
BRANCH  16  18
ATOM     17  C   UNL     1      -0.019   1.526   0.010  0.00  0.00    +0.024 C 
ATOM     18  C   UNL     1       0.002  -0.004   0.002  0.00  0.00    +0.102 C 
ENDBRANCH  16  18
BRANCH  16  19
ATOM     19  C   UNL     1      -2.072  -0.758  -1.251  0.00  0.00    +0.200 C 
BRANCH  19  20
ATOM     20  C   UNL     1      -1.820  -2.175  -1.696  0.00  0.00    +0.232 C 
ATOM     21  O   UNL     1      -1.125  -2.908  -1.024  0.00  0.00    -0.274 OA
ATOM     22  N   UNL     1      -2.367  -2.630  -2.841  0.00  0.00    -0.306 N 
ATOM     23  C   UNL     1      -2.122  -4.008  -3.274  0.00  0.00    +0.131 C 
ATOM     24  C   UNL     1      -3.207  -1.745  -3.653  0.00  0.00    +0.131 C 
ENDBRANCH  19  20
ENDBRANCH  16  19
ENDBRANCH   1  16
TORSDOF 7
