REMARK  Name = ZINC33916935
REMARK  8 active torsions:
REMARK  status: ('A' for Active; 'I' for Inactive)
REMARK    1  A    between atoms: C_1  and  C_2
REMARK    2  A    between atoms: C_2  and  C_3
REMARK    3  A    between atoms: C_2  and  C_4
REMARK    4  A    between atoms: C_2  and  N_5
REMARK    5  A    between atoms: C_10  and  C_28
REMARK    6  A    between atoms: C_13  and  C_18
REMARK    7  A    between atoms: C_13  and  C_25
REMARK    8  A    between atoms: C_18  and  C_19
REMARK                            x       y       z     vdW  Elec       q    Type
REMARK                         _______ _______ _______ _____ _____    ______ ____
ROOT
ATOM      1  N   UNL     1       1.723   0.581  -0.816  0.00  0.00    -0.236 N 
ATOM      2  C   UNL     1       0.704  -0.032  -1.502  0.00  0.00    +0.225 C 
ATOM      3  O   UNL     1      -0.489   0.122  -1.350  0.00  0.00    -0.275 OA
ATOM      4  C   UNL     1       1.369  -0.900  -2.445  0.00  0.00    +0.077 C 
ATOM      5  C   UNL     1       1.098  -1.629  -3.692  0.00  0.00    -0.020 C 
ATOM      6  N   UNL     1       2.458  -1.913  -4.259  0.00  0.00    +0.396 N 
ATOM      7  C   UNL     1       3.464  -1.228  -3.382  0.00  0.00    +0.048 C 
ATOM      8  C   UNL     1       2.647  -0.047  -2.817  0.00  0.00    +0.086 C 
ATOM      9  C   UNL     1       2.939   0.414  -1.415  0.00  0.00    +0.225 C 
ATOM     10  O   UNL     1       4.030   0.596  -0.920  0.00  0.00    -0.275 OA
ATOM     11  H   UNL     1       2.627  -2.908  -4.261  0.00  0.00    -0.083 HD
ATOM     12  H   UNL     1       2.520  -1.551  -5.198  0.00  0.00    -0.083 HD
ENDROOT
BRANCH   5  13
ATOM     13  C   UNL     1       0.298  -0.774  -4.640  0.00  0.00    -0.022 A 
ATOM     14  C   UNL     1      -1.035  -0.792  -4.887  0.00  0.00    +0.011 A 
ATOM     15  C   UNL     1      -1.558   0.095  -5.809  0.00  0.00    +0.028 A 
ATOM     16  C   UNL     1      -0.721   0.958  -6.439  0.00  0.00    +0.078 A 
ATOM     17  S   UNL     1       0.857   0.531  -5.722  0.00  0.00    -0.083 S 
ATOM     18 CL   UNL     1      -1.090   2.167  -7.629  0.00  0.00    -0.076 Cl
ENDBRANCH   5  13
BRANCH   1  20
ATOM     19  C   UNL     1       1.980   2.784   0.214  0.00  0.00    +0.031 C 
ATOM     20  C   UNL     1       1.527   1.338   0.423  0.00  0.00    +0.036 C 
ATOM     21  C   UNL     1       2.350   0.703   1.545  0.00  0.00    +0.031 C 
ATOM     22  C   UNL     1       0.045   1.318   0.803  0.00  0.00    +0.031 C 
ENDBRANCH   1  20
BRANCH   7  23
ATOM     23  C   UNL     1       4.626  -0.723  -4.197  0.00  0.00    +0.346 C 
ATOM     24  O   UNL     1       4.661  -0.923  -5.399  0.00  0.00    -0.248 OA
ATOM     25  O   UNL     1       5.532  -0.114  -3.655  0.00  0.00    -0.248 OA
ENDBRANCH   7  23
BRANCH   7  26
ATOM     26  C   UNL     1       3.944  -2.167  -2.273  0.00  0.00    +0.003 C 
BRANCH  26  27
ATOM     27  C   UNL     1       4.994  -3.126  -2.837  0.00  0.00    -0.012 C 
ATOM     28  C   UNL     1       4.360  -3.994  -3.925  0.00  0.00    +0.003 C 
ATOM     29  C   UNL     1       5.410  -4.954  -4.489  0.00  0.00    +0.000 C 
ATOM     30  C   UNL     1       5.938  -5.849  -3.365  0.00  0.00    +0.000 C 
ATOM     31  C   UNL     1       6.572  -4.981  -2.277  0.00  0.00    +0.000 C 
ATOM     32  C   UNL     1       5.522  -4.021  -1.713  0.00  0.00    +0.003 C 
ENDBRANCH  26  27
ENDBRANCH   7  26
TORSDOF 5
