REMARK  Name = ZINC02858702
REMARK  9 active torsions:
REMARK  status: ('A' for Active; 'I' for Inactive)
REMARK    1  A    between atoms: C_3  and  N_25
REMARK    2  A    between atoms: C_6  and  C_7
REMARK    3  A    between atoms: C_7  and  C_8
REMARK    4  A    between atoms: N_10  and  N_11
REMARK    5  A    between atoms: N_11  and  C_12
REMARK    6  A    between atoms: C_12  and  N_14
REMARK    7  A    between atoms: N_14  and  C_15
REMARK    8  A    between atoms: C_18  and  S_21
REMARK    9  A    between atoms: S_21  and  N_24
REMARK                            x       y       z     vdW  Elec       q    Type
REMARK                         _______ _______ _______ _____ _____    ______ ____
ROOT
ATOM      1  N   UNL     1       1.638  -4.493  -3.009  0.00  0.00    -0.246 N 
ATOM      2  H   UNL     1       1.902  -3.883  -3.716  0.00  0.00    +0.172 HD
ENDROOT
BRANCH   1   5
ATOM      3  C   UNL     1       1.262  -2.664  -1.533  0.00  0.00    +0.233 C 
ATOM      4  O   UNL     1       1.593  -1.901  -2.416  0.00  0.00    -0.274 OA
ATOM      5  N   UNL     1       1.259  -3.993  -1.757  0.00  0.00    -0.235 N 
ATOM      6  H   UNL     1       0.995  -4.603  -1.050  0.00  0.00    +0.173 HD
BRANCH   3   7
ATOM      7  C   UNL     1       0.855  -2.126  -0.185  0.00  0.00    +0.132 C 
BRANCH   7  13
ATOM      8  C   UNL     1      -0.152   0.133  -0.572  0.00  0.00    +0.006 A 
ATOM      9  C   UNL     1      -0.070   1.513  -0.582  0.00  0.00    +0.033 A 
ATOM     10  C   UNL     1       1.108   2.138  -0.217  0.00  0.00    +0.126 A 
ATOM     11  C   UNL     1       2.204   1.383   0.157  0.00  0.00    +0.033 A 
ATOM     12  C   UNL     1       2.122   0.004   0.167  0.00  0.00    +0.006 A 
ATOM     13  C   UNL     1       0.944  -0.622  -0.197  0.00  0.00    -0.038 A 
BRANCH  10  14
ATOM     14  N   UNL     1       1.195   3.616  -0.228  0.00  0.00    +0.056 N 
ATOM     15  O   UNL     1       0.230   4.281  -0.559  0.00  0.00    -0.126 OA
ATOM     16  O   UNL     1       2.233   4.167   0.093  0.00  0.00    -0.126 OA
ENDBRANCH  10  14
ENDBRANCH   7  13
ENDBRANCH   3   7
ENDBRANCH   1   5
BRANCH   1  17
ATOM     17  C   UNL     1       1.635  -5.822  -3.233  0.00  0.00    +0.151 C 
ATOM     18  S   UNL     1       2.098  -6.434  -4.764  0.00  0.00    -0.017 S 
BRANCH  17  19
ATOM     19  N   UNL     1       1.268  -6.670  -2.252  0.00  0.00    -0.296 N 
ATOM     20  H   UNL     1       1.066  -6.329  -1.367  0.00  0.00    +0.154 HD
BRANCH  19  21
ATOM     21  C   UNL     1       1.178  -8.042  -2.510  0.00  0.00    +0.033 A 
ATOM     22  C   UNL     1       0.080  -8.764  -2.063  0.00  0.00    +0.025 A 
ATOM     23  C   UNL     1      -0.009 -10.117  -2.325  0.00  0.00    +0.030 A 
ATOM     24  C   UNL     1       1.001 -10.756  -3.021  0.00  0.00    +0.105 A 
ATOM     25  C   UNL     1       2.099 -10.041  -3.463  0.00  0.00    +0.030 A 
ATOM     26  C   UNL     1       2.191  -8.686  -3.209  0.00  0.00    +0.025 A 
BRANCH  24  27
ATOM     27  S   UNL     1       0.888 -12.484  -3.347  0.00  0.00    +0.056 S 
ATOM     28  O   UNL     1      -0.493 -12.815  -3.305  0.00  0.00    -0.153 OA
ATOM     29  O   UNL     1       1.698 -12.736  -4.487  0.00  0.00    -0.153 OA
BRANCH  27  30
ATOM     30  N   UNL     1       1.603 -13.269  -2.076  0.00  0.00    -0.204 NA
ATOM     31  H   UNL     1       1.296 -14.153  -1.818  0.00  0.00    +0.144 HD
ATOM     32  H   UNL     1       2.327 -12.846  -1.590  0.00  0.00    +0.144 HD
ENDBRANCH  27  30
ENDBRANCH  24  27
ENDBRANCH  19  21
ENDBRANCH  17  19
ENDBRANCH   1  17
TORSDOF 9
