REMARK  Name = ZINC40758172
REMARK  6 active torsions:
REMARK  status: ('A' for Active; 'I' for Inactive)
REMARK    1  A    between atoms: C_1  and  C_2
REMARK    2  A    between atoms: C_7  and  N_8
REMARK    3  A    between atoms: C_10  and  N_31
REMARK    4  A    between atoms: C_11  and  N_15
REMARK    5  A    between atoms: N_18  and  C_21
REMARK    6  A    between atoms: C_21  and  C_22
REMARK                            x       y       z     vdW  Elec       q    Type
REMARK                         _______ _______ _______ _____ _____    ______ ____
ROOT
ATOM      1  N   UNL     1      -2.248  -2.227   3.522  0.00  0.00    -0.283 N 
ATOM      2  C   UNL     1      -1.079  -1.822   4.158  0.00  0.00    +0.150 A 
ATOM      3  C   UNL     1      -1.133  -1.176   5.394  0.00  0.00    +0.106 A 
ATOM      4  C   UNL     1       0.070  -0.791   5.989  0.00  0.00    +0.147 A 
ATOM      5  N   UNL     1       1.214  -1.053   5.360  0.00  0.00    -0.219 NA
ATOM      6  C   UNL     1       1.219  -1.665   4.193  0.00  0.00    +0.225 A 
ATOM      7  N   UNL     1       0.107  -2.050   3.600  0.00  0.00    -0.219 NA
ATOM      8  H   UNL     1      -3.109  -2.057   3.935  0.00  0.00    +0.155 HD
ENDROOT
BRANCH   1  15
ATOM      9  C   UNL     1      -4.695  -3.016   2.301  0.00  0.00    +0.047 C 
ATOM     10  C   UNL     1      -3.355  -3.278   1.662  0.00  0.00    -0.010 A 
ATOM     11  C   UNL     1      -3.276  -3.916   0.437  0.00  0.00    +0.008 A 
ATOM     12  C   UNL     1      -2.021  -4.137  -0.115  0.00  0.00    +0.020 A 
ATOM     13  C   UNL     1      -0.898  -3.716   0.569  0.00  0.00    +0.113 A 
ATOM     14  N   UNL     1      -1.004  -3.110   1.736  0.00  0.00    -0.240 NA
ATOM     15  C   UNL     1      -2.183  -2.876   2.292  0.00  0.00    +0.127 A 
ENDBRANCH   1  15
BRANCH   4  16
ATOM     16  N   UNL     1       0.074  -0.144   7.219  0.00  0.00    -0.317 N 
ATOM     17  C   UNL     1      -0.075   1.317   7.306  0.00  0.00    +0.088 C 
ATOM     18  C   UNL     1       1.046   1.868   8.192  0.00  0.00    -0.059 C 
ATOM     19  N   UNL     1       1.028   1.179   9.489  0.00  0.00    +0.384 N 
ATOM     20  C   UNL     1       1.335  -0.244   9.303  0.00  0.00    -0.059 C 
ATOM     21  C   UNL     1       0.222  -0.901   8.472  0.00  0.00    +0.088 C 
ATOM     22  H   UNL     1       0.113   1.273   9.905  0.00  0.00    -0.081 HD
BRANCH  19  23
ATOM     23  C   UNL     1       2.030   1.783  10.376  0.00  0.00    -0.043 C 
BRANCH  23  24
ATOM     24  C   UNL     1       1.929   1.161  11.745  0.00  0.00    -0.060 A 
ATOM     25  C   UNL     1       1.087   1.712  12.693  0.00  0.00    +0.005 A 
ATOM     26  C   UNL     1       0.990   1.144  13.950  0.00  0.00    +0.050 A 
ATOM     27  C   UNL     1       1.738   0.021  14.262  0.00  0.00    +0.166 A 
ATOM     28  C   UNL     1       2.587  -0.534  13.308  0.00  0.00    +0.166 A 
ATOM     29  C   UNL     1       2.674   0.037  12.048  0.00  0.00    +0.051 A 
ATOM     30  O   UNL     1       3.206  -1.621  13.854  0.00  0.00    -0.453 OA
ATOM     31  C   UNL     1       3.038  -1.485  15.277  0.00  0.00    +0.466 C 
ATOM     32  O   UNL     1       1.826  -0.718  15.406  0.00  0.00    -0.453 OA
ENDBRANCH  23  24
ENDBRANCH  19  23
ENDBRANCH   4  16
BRANCH   3  33
ATOM     33  N   UNL     1      -2.362  -0.920   6.022  0.00  0.00    -0.353 N 
ATOM     34  H   UNL     1      -3.192  -1.111   5.558  0.00  0.00    +0.143 HD
ATOM     35  H   UNL     1      -2.381  -0.552   6.919  0.00  0.00    +0.143 HD
ENDBRANCH   3  33
TORSDOF 5
