REMARK  Name = ZINC63823693
REMARK  4 active torsions:
REMARK  status: ('A' for Active; 'I' for Inactive)
REMARK    1  A    between atoms: N_3  and  C_17
REMARK    2  A    between atoms: N_6  and  C_7
REMARK    3  A    between atoms: C_17  and  C_19
REMARK    4  A    between atoms: C_17  and  C_30
REMARK                            x       y       z     vdW  Elec       q    Type
REMARK                         _______ _______ _______ _____ _____    ______ ____
ROOT
ATOM      1  C   UNL     1      -0.198   1.769   0.569  0.00  0.00    +0.102 C 
ATOM      2  C   UNL     1       1.261   2.164   0.328  0.00  0.00    +0.101 C 
ATOM      3  N   UNL     1       2.101   1.596   1.391  0.00  0.00    -0.284 NA
ATOM      4  C   UNL     1       1.992   0.131   1.419  0.00  0.00    +0.101 C 
ATOM      5  C   UNL     1       0.533  -0.264   1.660  0.00  0.00    +0.102 C 
ATOM      6  N   UNL     1      -0.308   0.304   0.597  0.00  0.00    -0.274 NA
ENDROOT
BRANCH   6   7
ATOM      7  C   UNL     1      -1.707  -0.117   0.751  0.00  0.00    +0.230 C 
ATOM      8  C   UNL     1      -1.754  -1.625   0.720  0.00  0.00    +0.126 C 
ATOM      9  N   UNL     1      -1.239  -2.605   1.390  0.00  0.00    -0.233 NA
ATOM     10  C   UNL     1      -1.667  -3.772   0.871  0.00  0.00    +0.224 C 
ATOM     11  N   UNL     1      -2.468  -3.581  -0.147  0.00  0.00    -0.215 NA
ATOM     12  C   UNL     1      -2.599  -2.242  -0.338  0.00  0.00    +0.181 C 
ATOM     13  N   UNL     1      -3.242  -1.466  -1.167  0.00  0.00    -0.215 NA
ATOM     14  C   UNL     1      -3.191  -0.131  -1.128  0.00  0.00    +0.220 C 
ATOM     15  N   UNL     1      -2.511   0.564  -0.283  0.00  0.00    -0.247 NA
ENDBRANCH   6   7
BRANCH   3  16
ATOM     16  C   UNL     1       3.501   2.017   1.237  0.00  0.00    +0.203 C 
BRANCH  16  17
ATOM     17  C   UNL     1       3.563   3.516   1.102  0.00  0.00    +0.004 C 
ATOM     18  C   UNL     1       4.151   4.176   0.097  0.00  0.00    -0.013 C 
ATOM     19  C   UNL     1       5.006   3.784  -0.952  0.00  0.00    +0.007 C 
ATOM     20  C   UNL     1       5.968   4.699  -1.284  0.00  0.00    +0.015 C 
ATOM     21  C   UNL     1       6.065   5.958  -0.549  0.00  0.00    +0.016 C 
ATOM     22  C   UNL     1       5.077   6.422   0.226  0.00  0.00    +0.019 C 
ATOM     23  C   UNL     1       3.797   5.642   0.313  0.00  0.00    +0.159 C 
ATOM     24  N   UNL     1       3.154   5.670   1.619  0.00  0.00    -0.279 NA
ATOM     25  C   UNL     1       3.003   4.439   2.014  0.00  0.00    +0.112 C 
ATOM     26 BR   UNL     1       7.653   6.973  -0.699  0.00  0.00    -0.051 Br
ENDBRANCH  16  17
BRANCH  16  27
ATOM     27  C   UNL     1       4.290   1.588   2.446  0.00  0.00    +0.377 C 
ATOM     28  O   UNL     1       5.507   1.532   2.392  0.00  0.00    -0.244 OA
ATOM     29  O   UNL     1       3.712   1.296   3.480  0.00  0.00    -0.244 OA
ENDBRANCH  16  27
ENDBRANCH   3  16
TORSDOF 4
