REMARK  Name = ZINC39556464
REMARK  9 active torsions:
REMARK  status: ('A' for Active; 'I' for Inactive)
REMARK    1  A    between atoms: C_1  and  C_2
REMARK    2  A    between atoms: C_2  and  C_3
REMARK    3  A    between atoms: N_9  and  C_29
REMARK    4  A    between atoms: C_11  and  C_12
REMARK    5  A    between atoms: N_16  and  C_20
REMARK    6  A    between atoms: C_23  and  O_26
REMARK    7  A    between atoms: O_26  and  C_27
REMARK    8  A    between atoms: C_27  and  C_28
REMARK    9  A    between atoms: C_29  and  C_30
REMARK                            x       y       z     vdW  Elec       q    Type
REMARK                         _______ _______ _______ _____ _____    ______ ____
ROOT
ATOM      1  C   UNL     1       0.700  -0.603  -1.190  0.00  0.00    -0.024 A 
ATOM      2  C   UNL     1      -0.041  -1.179  -2.198  0.00  0.00    +0.005 A 
ATOM      3  C   UNL     1       0.585  -1.825  -3.255  0.00  0.00    +0.001 A 
ATOM      4  C   UNL     1       1.960  -1.897  -3.308  0.00  0.00    +0.010 A 
ATOM      5  C   UNL     1       2.721  -1.318  -2.296  0.00  0.00    +0.007 A 
ATOM      6  C   UNL     1       2.090  -0.659  -1.229  0.00  0.00    +0.053 A 
ATOM      7  N   UNL     1       3.075  -0.182  -0.389  0.00  0.00    -0.337 N 
ATOM      8  C   UNL     1       4.304  -0.497  -0.869  0.00  0.00    +0.095 A 
ATOM      9  C   UNL     1       4.171  -1.209  -2.042  0.00  0.00    +0.002 A 
ENDROOT
BRANCH   9  10
ATOM     10  C   UNL     1       5.217  -1.719  -2.850  0.00  0.00    +0.043 C 
ATOM     11  C   UNL     1       6.532  -1.534  -2.475  0.00  0.00    +0.130 C 
ATOM     12  C   UNL     1       7.729  -1.989  -3.195  0.00  0.00    +0.275 C 
ATOM     13  O   UNL     1       7.769  -2.607  -4.245  0.00  0.00    -0.268 OA
ATOM     14  N   UNL     1       8.778  -1.579  -2.449  0.00  0.00    -0.213 N 
ATOM     15  C   UNL     1       8.293  -0.918  -1.347  0.00  0.00    +0.179 C 
ATOM     16  S   UNL     1       9.298  -0.204  -0.087  0.00  0.00    -0.013 SA
ATOM     17  N   UNL     1       6.987  -0.884  -1.360  0.00  0.00    -0.220 NA
BRANCH  14  18
ATOM     18  C   UNL     1      10.133  -1.792  -2.748  0.00  0.00    +0.044 A 
ATOM     19  C   UNL     1      10.898  -2.629  -1.947  0.00  0.00    +0.027 A 
ATOM     20  C   UNL     1      12.230  -2.838  -2.243  0.00  0.00    +0.047 A 
ATOM     21  C   UNL     1      12.805  -2.212  -3.339  0.00  0.00    +0.121 A 
ATOM     22  C   UNL     1      12.041  -1.375  -4.140  0.00  0.00    +0.047 A 
ATOM     23  C   UNL     1      10.706  -1.170  -3.849  0.00  0.00    +0.027 A 
BRANCH  21  24
ATOM     24  O   UNL     1      14.117  -2.418  -3.630  0.00  0.00    -0.492 OA
BRANCH  24  25
ATOM     25  C   UNL     1      14.642  -1.742  -4.773  0.00  0.00    +0.225 C 
ATOM     26  C   UNL     1      16.122  -2.094  -4.939  0.00  0.00    +0.048 C 
ENDBRANCH  24  25
ENDBRANCH  21  24
ENDBRANCH  14  18
ENDBRANCH   9  10
BRANCH   1  28
ATOM     27  C   UNL     1      -0.087   1.593  -0.347  0.00  0.00    +0.009 C 
ATOM     28  C   UNL     1       0.006   0.095  -0.048  0.00  0.00    +0.034 C 
ENDBRANCH   1  28
BRANCH   7  29
ATOM     29  C   UNL     1       2.828   0.562   0.848  0.00  0.00    +0.217 C 
BRANCH  29  30
ATOM     30  C   UNL     1       2.592  -0.406   1.979  0.00  0.00    +0.230 C 
ATOM     31  O   UNL     1       2.626  -1.600   1.771  0.00  0.00    -0.274 OA
ATOM     32  N   UNL     1       2.342   0.055   3.220  0.00  0.00    -0.328 N 
ATOM     33  H   UNL     1       2.314   1.010   3.386  0.00  0.00    +0.145 HD
ATOM     34  H   UNL     1       2.190  -0.568   3.948  0.00  0.00    +0.145 HD
ENDBRANCH  29  30
ENDBRANCH   7  29
TORSDOF 7
