REMARK  Name = ZINC07126269
REMARK  4 active torsions:
REMARK  status: ('A' for Active; 'I' for Inactive)
REMARK    1  A    between atoms: C_4  and  C_7
REMARK    2  A    between atoms: C_7  and  O_8
REMARK    3  A    between atoms: O_8  and  C_9
REMARK    4  A    between atoms: C_14  and  C_15
REMARK                            x       y       z     vdW  Elec       q    Type
REMARK                         _______ _______ _______ _____ _____    ______ ____
ROOT
ATOM      1  C   UNL     1       5.090  -1.323   3.936  0.00  0.00    +0.212 C 
ATOM      2  N   UNL     1       5.227   0.108   4.261  0.00  0.00    -0.294 N 
ATOM      3  C   UNL     1       6.353   0.508   4.967  0.00  0.00    +0.159 C 
ATOM      4  N   UNL     1       6.629  -0.192   6.143  0.00  0.00    -0.259 N 
ATOM      5  C   UNL     1       6.298  -1.544   6.119  0.00  0.00    +0.205 A 
ATOM      6  N   UNL     1       5.566  -2.094   5.091  0.00  0.00    -0.288 N 
ATOM      7  C   UNL     1       5.405  -3.420   5.374  0.00  0.00    +0.072 A 
ATOM      8  C   UNL     1       4.759  -4.457   4.713  0.00  0.00    +0.028 A 
ATOM      9  C   UNL     1       4.801  -5.708   5.307  0.00  0.00    +0.002 A 
ATOM     10  C   UNL     1       5.455  -5.929   6.506  0.00  0.00    +0.002 A 
ATOM     11  C   UNL     1       6.105  -4.915   7.185  0.00  0.00    +0.030 A 
ATOM     12  C   UNL     1       6.076  -3.642   6.604  0.00  0.00    +0.091 A 
ATOM     13  N   UNL     1       6.596  -2.462   6.997  0.00  0.00    -0.214 NA
ATOM     14  N   UNL     1       7.112   1.483   4.554  0.00  0.00    -0.375 N 
ATOM     15  H   UNL     1       4.552   0.750   3.991  0.00  0.00    +0.151 HD
ATOM     16  H   UNL     1       6.896   1.951   3.732  0.00  0.00    +0.158 HD
ATOM     17  H   UNL     1       7.023   0.234   6.920  0.00  0.00    +0.158 HD
ATOM     18  H   UNL     1       7.894   1.740   5.068  0.00  0.00    +0.158 HD
ENDROOT
BRANCH   1  24
ATOM     19  C   UNL     1       5.465  -1.323   1.457  0.00  0.00    +0.128 A 
ATOM     20  C   UNL     1       6.237  -1.623   0.343  0.00  0.00    +0.046 A 
ATOM     21  C   UNL     1       7.455  -2.255   0.499  0.00  0.00    +0.004 A 
ATOM     22  C   UNL     1       7.906  -2.588   1.763  0.00  0.00    +0.001 A 
ATOM     23  C   UNL     1       7.139  -2.290   2.874  0.00  0.00    +0.011 A 
ATOM     24  C   UNL     1       5.923  -1.653   2.724  0.00  0.00    +0.035 A 
BRANCH  19  25
ATOM     25  O   UNL     1       4.266  -0.701   1.307  0.00  0.00    -0.487 OA
BRANCH  25  26
ATOM     26  C   UNL     1       3.809  -0.487  -0.030  0.00  0.00    +0.264 C 
BRANCH  26  30
ATOM     27  C   UNL     1      -0.087   1.263   0.057  0.00  0.00    +0.000 A 
ATOM     28  C   UNL     1       1.034   2.067   0.142  0.00  0.00    +0.000 A 
ATOM     29  C   UNL     1       2.295   1.501   0.114  0.00  0.00    +0.007 A 
ATOM     30  C   UNL     1       2.435   0.130   0.001  0.00  0.00    -0.010 A 
ATOM     31  C   UNL     1       1.314  -0.674  -0.083  0.00  0.00    +0.007 A 
ATOM     32  C   UNL     1       0.053  -0.108  -0.056  0.00  0.00    +0.000 A 
ENDBRANCH  26  30
ENDBRANCH  25  26
ENDBRANCH  19  25
ENDBRANCH   1  24
TORSDOF 4
