REMARK  Name = ZINC02419838
REMARK  5 active torsions:
REMARK  status: ('A' for Active; 'I' for Inactive)
REMARK    1  A    between atoms: C_9  and  S_21
REMARK    2  A    between atoms: C_10  and  N_20
REMARK    3  A    between atoms: N_11  and  C_14
REMARK    4  A    between atoms: C_14  and  C_15
REMARK    5  A    between atoms: S_21  and  C_24
REMARK                            x       y       z     vdW  Elec       q    Type
REMARK                         _______ _______ _______ _____ _____    ______ ____
ROOT
ATOM      1  C   UNL     1       6.751  -3.602  -4.130  0.00  0.00    +0.002 A 
ATOM      2  C   UNL     1       6.263  -3.989  -5.377  0.00  0.00    +0.002 A 
ATOM      3  C   UNL     1       4.926  -4.080  -5.607  0.00  0.00    +0.030 A 
ATOM      4  C   UNL     1       4.015  -3.782  -4.577  0.00  0.00    +0.092 A 
ATOM      5  C   UNL     1       4.511  -3.389  -3.308  0.00  0.00    +0.090 A 
ATOM      6  C   UNL     1       5.903  -3.305  -3.109  0.00  0.00    +0.030 A 
ATOM      7  N   UNL     1       3.669  -3.099  -2.311  0.00  0.00    -0.240 NA
ATOM      8  C   UNL     1       2.363  -3.181  -2.513  0.00  0.00    +0.135 A 
ATOM      9  C   UNL     1       1.222  -2.954  -1.708  0.00  0.00    +0.160 A 
ATOM     10  C   UNL     1       0.123  -3.205  -2.457  0.00  0.00    +0.126 A 
ATOM     11  N   UNL     1       0.478  -3.580  -3.728  0.00  0.00    -0.304 N 
ATOM     12  C   UNL     1       1.853  -3.589  -3.828  0.00  0.00    +0.164 A 
ATOM     13  N   UNL     1       2.697  -3.869  -4.796  0.00  0.00    -0.226 NA
ENDROOT
BRANCH  10  14
ATOM     14  N   UNL     1      -1.179  -3.095  -2.004  0.00  0.00    -0.343 N 
ATOM     15  H   UNL     1      -1.353  -2.821  -1.090  0.00  0.00    +0.144 HD
ATOM     16  H   UNL     1      -1.919  -3.291  -2.600  0.00  0.00    +0.144 HD
ENDBRANCH  10  14
BRANCH   9  17
ATOM     17  S   UNL     1       1.231  -2.441  -0.022  0.00  0.00    +0.030 S 
ATOM     18  O   UNL     1       2.487  -2.834   0.515  0.00  0.00    -0.164 OA
ATOM     19  O   UNL     1      -0.004  -2.866   0.538  0.00  0.00    -0.164 OA
BRANCH  17  20
ATOM     20  C   UNL     1       1.208  -0.680  -0.013  0.00  0.00    +0.095 A 
ATOM     21  C   UNL     1       0.002  -0.004   0.002  0.00  0.00    +0.027 A 
ATOM     22  C   UNL     1      -0.017   1.378   0.010  0.00  0.00    +0.003 A 
ATOM     23  C   UNL     1       1.171   2.086   0.002  0.00  0.00    +0.020 A 
ATOM     24  C   UNL     1       2.378   1.410  -0.013  0.00  0.00    +0.043 A 
ATOM     25  C   UNL     1       2.396   0.027  -0.020  0.00  0.00    +0.047 A 
ATOM     26 CL   UNL     1       3.870   2.298  -0.021  0.00  0.00    -0.083 Cl
ENDBRANCH  17  20
ENDBRANCH   9  17
BRANCH  11  27
ATOM     27  C   UNL     1      -0.455  -3.922  -4.805  0.00  0.00    +0.199 C 
BRANCH  27  28
ATOM     28  C   UNL     1      -0.754  -5.398  -4.761  0.00  0.00    +0.125 A 
ATOM     29  C   UNL     1      -1.748  -5.979  -4.066  0.00  0.00    +0.046 A 
ATOM     30  C   UNL     1      -1.662  -7.369  -4.312  0.00  0.00    +0.041 A 
ATOM     31  C   UNL     1      -0.616  -7.554  -5.136  0.00  0.00    +0.195 A 
ATOM     32  O   UNL     1      -0.069  -6.357  -5.405  0.00  0.00    -0.466 OA
ENDBRANCH  27  28
ENDBRANCH  11  27
TORSDOF 5
