REMARK  Name = ZINC16160731
REMARK  6 active torsions:
REMARK  status: ('A' for Active; 'I' for Inactive)
REMARK    1  A    between atoms: C_1  and  C_2
REMARK    2  A    between atoms: N_4  and  C_19
REMARK    3  A    between atoms: C_8  and  N_9
REMARK    4  A    between atoms: N_9  and  C_10
REMARK    5  A    between atoms: C_13  and  O_18
REMARK    6  A    between atoms: C_14  and  C_16
REMARK                            x       y       z     vdW  Elec       q    Type
REMARK                         _______ _______ _______ _____ _____    ______ ____
ROOT
ATOM      1  C   UNL     1       0.056  -6.662  -3.853  0.00  0.00    +0.068 C 
ATOM      2  C   UNL     1       0.075  -7.104  -2.412  0.00  0.00    +0.070 C 
ATOM      3  N   UNL     1       0.095  -8.330  -1.987  0.00  0.00    -0.176 NA
ATOM      4  N   UNL     1       0.109  -8.383  -0.593  0.00  0.00    -0.156 N 
ATOM      5  C   UNL     1       0.104  -7.136  -0.082  0.00  0.00    +0.273 C 
ATOM      6  O   UNL     1       0.117  -6.826   1.098  0.00  0.00    -0.268 OA
ATOM      7  C   UNL     1       0.074  -6.225  -1.233  0.00  0.00    +0.075 C 
ATOM      8  C   UNL     1       0.056  -4.840  -1.214  0.00  0.00    +0.087 C 
ENDROOT
BRANCH   4   9
ATOM      9  C   UNL     1       0.132  -9.561   0.165  0.00  0.00    +0.060 A 
ATOM     10  C   UNL     1       0.150  -9.495   1.552  0.00  0.00    +0.026 A 
ATOM     11  C   UNL     1       0.168 -10.658   2.297  0.00  0.00    +0.016 A 
ATOM     12  C   UNL     1       0.178 -11.887   1.663  0.00  0.00    +0.013 A 
ATOM     13  C   UNL     1       0.165 -11.956   0.281  0.00  0.00    +0.016 A 
ATOM     14  C   UNL     1       0.143 -10.796  -0.469  0.00  0.00    +0.026 A 
ATOM     15  I   UNL     1       0.212 -13.649   2.796  0.00  0.00    -0.044 I 
ENDBRANCH   4   9
BRANCH   8  16
ATOM     16  N   UNL     1       0.058  -4.183  -0.036  0.00  0.00    -0.320 N 
ATOM     17  H   UNL     1       0.073  -4.679   0.797  0.00  0.00    +0.152 HD
BRANCH  16  18
ATOM     18  C   UNL     1       0.040  -2.783  -0.016  0.00  0.00    +0.032 A 
ATOM     19  C   UNL     1       0.019  -2.072  -1.212  0.00  0.00    +0.027 A 
ATOM     20  C   UNL     1      -0.006  -0.693  -1.202  0.00  0.00    +0.048 A 
ATOM     21  C   UNL     1       0.002  -0.004   0.002  0.00  0.00    +0.131 A 
ATOM     22  C   UNL     1       0.023  -0.713   1.211  0.00  0.00    +0.106 A 
ATOM     23  C   UNL     1       0.042  -2.110   1.194  0.00  0.00    +0.042 A 
BRANCH  22  24
ATOM     24  C   UNL     1       0.026   0.012   2.495  0.00  0.00    +0.390 C 
ATOM     25  O   UNL     1       0.010   1.227   2.506  0.00  0.00    -0.240 OA
ATOM     26  O   UNL     1       0.046  -0.673   3.655  0.00  0.00    -0.240 OA
ENDBRANCH  22  24
BRANCH  21  27
ATOM     27  O   UNL     1      -0.016   1.353   0.009  0.00  0.00    -0.506 OA
ATOM     28  H   UNL     1       0.862   1.758   0.003  0.00  0.00    +0.292 HD
ENDBRANCH  21  27
ENDBRANCH  16  18
ENDBRANCH   8  16
TORSDOF 5
