REMARK  Name = ZINC35427027
REMARK  7 active torsions:
REMARK  status: ('A' for Active; 'I' for Inactive)
REMARK    1  A    between atoms: C_1  and  C_2
REMARK    2  A    between atoms: C_2  and  C_3
REMARK    3  A    between atoms: C_2  and  C_4
REMARK    4  A    between atoms: C_4  and  C_5
REMARK    5  A    between atoms: C_5  and  N_6
REMARK    6  A    between atoms: C_21  and  C_23
REMARK    7  A    between atoms: N_31  and  C_34
REMARK                            x       y       z     vdW  Elec       q    Type
REMARK                         _______ _______ _______ _____ _____    ______ ____
ROOT
ATOM      1  N   UNL     1      -1.901  -3.244  -0.215  0.00  0.00    -0.299 N 
ATOM      2  C   UNL     1      -2.523  -4.433  -0.342  0.00  0.00    +0.303 C 
ATOM      3  O   UNL     1      -1.878  -5.433  -0.595  0.00  0.00    -0.253 OA
ATOM      4  N   UNL     1      -3.860  -4.514  -0.190  0.00  0.00    -0.269 N 
ATOM      5  C   UNL     1      -4.676  -3.325   0.110  0.00  0.00    +0.148 C 
ATOM      6  C   UNL     1      -5.778  -3.607   1.107  0.00  0.00    +0.004 A 
ATOM      7  C   UNL     1      -5.779  -3.095   2.418  0.00  0.00    -0.034 A 
ATOM      8  C   UNL     1      -6.834  -3.405   3.220  0.00  0.00    -0.021 A 
ATOM      9  S   UNL     1      -7.865  -4.415   2.191  0.00  0.00    -0.077 S 
ATOM     10  C   UNL     1      -6.834  -4.390   0.755  0.00  0.00    +0.090 A 
ATOM     11  N   UNL     1      -6.967  -5.009  -0.481  0.00  0.00    -0.312 N 
ATOM     12  C   UNL     1      -8.019  -5.105  -1.327  0.00  0.00    +0.092 A 
ATOM     13  C   UNL     1      -7.604  -5.756  -2.438  0.00  0.00    +0.020 A 
ATOM     14  C   UNL     1      -6.245  -6.090  -2.253  0.00  0.00    +0.025 A 
ATOM     15  C   UNL     1      -5.884  -5.646  -1.040  0.00  0.00    +0.049 A 
ATOM     16  C   UNL     1      -4.580  -5.803  -0.323  0.00  0.00    +0.155 C 
ATOM     17  C   UNL     1      -7.039  -2.978   4.635  0.00  0.00    -0.036 C 
ATOM     18  N   UNL     1      -5.754  -2.475   5.158  0.00  0.00    +0.381 N 
ATOM     19  C   UNL     1      -5.190  -1.501   4.215  0.00  0.00    -0.074 C 
ATOM     20  C   UNL     1      -4.660  -2.214   2.967  0.00  0.00    +0.018 C 
ATOM     21  C   UNL     1      -5.974  -1.827   6.458  0.00  0.00    -0.096 C 
ATOM     22  H   UNL     1      -2.416  -2.447  -0.014  0.00  0.00    +0.150 HD
ATOM     23  H   UNL     1      -5.112  -3.245   5.271  0.00  0.00    -0.082 HD
ENDROOT
BRANCH  16  24
ATOM     24  C   UNL     1      -4.845  -6.361   1.052  0.00  0.00    -0.021 A 
ATOM     25  C   UNL     1      -5.849  -7.293   1.237  0.00  0.00    +0.007 A 
ATOM     26  C   UNL     1      -6.093  -7.805   2.498  0.00  0.00    +0.020 A 
ATOM     27  C   UNL     1      -5.332  -7.384   3.574  0.00  0.00    +0.041 A 
ATOM     28  C   UNL     1      -4.328  -6.452   3.388  0.00  0.00    +0.020 A 
ATOM     29  C   UNL     1      -4.081  -5.945   2.126  0.00  0.00    +0.007 A 
ATOM     30 CL   UNL     1      -5.638  -8.026   5.158  0.00  0.00    -0.084 Cl
ENDBRANCH  16  24
BRANCH   1  31
ATOM     31  C   UNL     1      -0.448  -3.156  -0.380  0.00  0.00    +0.106 C 
BRANCH  31  32
ATOM     32  C   UNL     1       0.000  -1.706  -0.186  0.00  0.00    +0.022 C 
BRANCH  32  34
ATOM     33  C   UNL     1       1.951  -0.149  -0.289  0.00  0.00    +0.007 C 
ATOM     34  C   UNL     1       1.518  -1.614  -0.359  0.00  0.00    -0.016 C 
ATOM     35  C   UNL     1       2.207  -2.404   0.756  0.00  0.00    +0.007 C 
ENDBRANCH  32  34
ENDBRANCH  31  32
ENDBRANCH   1  31
TORSDOF 4
