REMARK  Name = ZINC05683962
REMARK  4 active torsions:
REMARK  status: ('A' for Active; 'I' for Inactive)
REMARK    1  A    between atoms: C_4  and  N_7
REMARK    2  A    between atoms: N_10  and  N_11
REMARK    3  A    between atoms: N_11  and  S_12
REMARK    4  A    between atoms: S_12  and  C_15
REMARK                            x       y       z     vdW  Elec       q    Type
REMARK                         _______ _______ _______ _____ _____    ______ ____
ROOT
ATOM      1  N   UNL     1      -0.069   5.242   0.029  0.00  0.00    -0.268 N 
ATOM      2  C   UNL     1      -1.242   5.900  -0.058  0.00  0.00    +0.319 C 
ATOM      3  O   UNL     1      -2.288   5.281  -0.051  0.00  0.00    -0.251 OA
ATOM      4  N   UNL     1      -1.254   7.245  -0.153  0.00  0.00    -0.215 N 
ATOM      5  H   UNL     1       0.761   5.738   0.101  0.00  0.00    +0.156 HD
ATOM      6  H   UNL     1      -2.098   7.718  -0.216  0.00  0.00    +0.172 HD
ENDROOT
BRANCH   1  10
ATOM      7  C   UNL     1      -0.012   1.076  -0.010  0.00  0.00    +0.000 A 
ATOM      8  C   UNL     1       0.921   1.772   0.736  0.00  0.00    +0.002 A 
ATOM      9  C   UNL     1       0.908   3.153   0.747  0.00  0.00    +0.023 A 
ATOM     10  C   UNL     1      -0.050   3.842   0.016  0.00  0.00    +0.035 A 
ATOM     11  C   UNL     1      -0.988   3.141  -0.729  0.00  0.00    +0.023 A 
ATOM     12  C   UNL     1      -0.967   1.760  -0.740  0.00  0.00    +0.002 A 
ENDBRANCH   1  10
BRANCH   4  13
ATOM     13  N   UNL     1      -0.048   7.957  -0.162  0.00  0.00    -0.107 NA
ATOM     14  H   UNL     1       0.590   7.839   0.559  0.00  0.00    +0.172 HD
BRANCH  13  15
ATOM     15  S   UNL     1       0.288   9.002  -1.402  0.00  0.00    +0.074 S 
ATOM     16  O   UNL     1       1.494   9.669  -1.055  0.00  0.00    -0.152 OA
ATOM     17  O   UNL     1       0.145   8.262  -2.606  0.00  0.00    -0.152 OA
BRANCH  15  18
ATOM     18  C   UNL     1      -0.980  10.226  -1.410  0.00  0.00    +0.107 A 
ATOM     19  C   UNL     1      -2.123  10.032  -2.163  0.00  0.00    +0.030 A 
ATOM     20  C   UNL     1      -3.120  10.989  -2.166  0.00  0.00    +0.022 A 
ATOM     21  C   UNL     1      -2.969  12.146  -1.423  0.00  0.00    +0.041 A 
ATOM     22  C   UNL     1      -1.823  12.343  -0.674  0.00  0.00    +0.022 A 
ATOM     23  C   UNL     1      -0.829  11.382  -0.668  0.00  0.00    +0.030 A 
ATOM     24 CL   UNL     1      -4.218  13.352  -1.431  0.00  0.00    -0.084 Cl
ENDBRANCH  15  18
ENDBRANCH  13  15
ENDBRANCH   4  13
TORSDOF 4
