REMARK  Name = ZINC63755377
REMARK  6 active torsions:
REMARK  status: ('A' for Active; 'I' for Inactive)
REMARK    1  A    between atoms: C_7  and  C_10
REMARK    2  A    between atoms: C_10  and  C_11
REMARK    3  A    between atoms: C_11  and  N_12
REMARK    4  A    between atoms: C_13  and  C_15
REMARK    5  A    between atoms: N_17  and  C_18
REMARK    6  A    between atoms: C_21  and  O_24
REMARK                            x       y       z     vdW  Elec       q    Type
REMARK                         _______ _______ _______ _____ _____    ______ ____
ROOT
ATOM      1  N   UNL     1      -0.462  -4.794  -1.461  0.00  0.00    -0.307 N 
ATOM      2  C   UNL     1      -0.816  -5.376  -2.624  0.00  0.00    +0.299 C 
ATOM      3  O   UNL     1      -0.382  -4.948  -3.673  0.00  0.00    -0.265 OA
ATOM      4  H   UNL     1      -0.809  -5.137  -0.622  0.00  0.00    +0.149 HD
ENDROOT
BRANCH   2   5
ATOM      5  C   UNL     1      -1.742  -6.548  -2.622  0.00  0.00    +0.303 C 
ATOM      6  O   UNL     1      -2.176  -6.976  -1.572  0.00  0.00    -0.265 OA
ATOM      7  N   UNL     1      -2.096  -7.129  -3.785  0.00  0.00    -0.278 N 
ATOM      8  H   UNL     1      -1.803  -6.747  -4.627  0.00  0.00    +0.155 HD
BRANCH   7   9
ATOM      9  C   UNL     1      -2.884  -8.284  -3.778  0.00  0.00    +0.034 A 
ATOM     10  C   UNL     1      -3.873  -8.445  -2.815  0.00  0.00    +0.027 A 
ATOM     11  C   UNL     1      -4.651  -9.586  -2.809  0.00  0.00    +0.047 A 
ATOM     12  C   UNL     1      -4.446 -10.571  -3.764  0.00  0.00    +0.117 A 
ATOM     13  C   UNL     1      -3.458 -10.411  -4.726  0.00  0.00    +0.047 A 
ATOM     14  C   UNL     1      -2.683  -9.269  -4.737  0.00  0.00    +0.027 A 
BRANCH  12  15
ATOM     15  O   UNL     1      -5.213 -11.694  -3.757  0.00  0.00    -0.507 OA
ATOM     16  H   UNL     1      -6.018 -11.623  -4.288  0.00  0.00    +0.292 HD
ENDBRANCH  12  15
ENDBRANCH   7   9
ENDBRANCH   2   5
BRANCH   1  17
ATOM     17  C   UNL     1       0.446  -3.645  -1.463  0.00  0.00    +0.109 C 
BRANCH  17  18
ATOM     18  C   UNL     1       0.683  -3.179  -0.025  0.00  0.00    +0.052 C 
BRANCH  18  25
ATOM     19  C   UNL     1      -0.049   1.350   0.022  0.00  0.00    +0.001 A 
ATOM     20  C   UNL     1       1.129   2.110   0.012  0.00  0.00    +0.002 A 
ATOM     21  C   UNL     1       2.358   1.551  -0.009  0.00  0.00    +0.026 A 
ATOM     22  C   UNL     1       2.503   0.136  -0.022  0.00  0.00    +0.043 A 
ATOM     23  N   UNL     1       3.565  -0.632  -0.043  0.00  0.00    -0.380 N 
ATOM     24  C   UNL     1       3.130  -2.033  -0.049  0.00  0.00    +0.144 C 
ATOM     25  C   UNL     1       1.618  -1.997  -0.028  0.00  0.00    -0.040 C 
ATOM     26  C   UNL     1       1.274  -0.689  -0.012  0.00  0.00    -0.001 A 
ATOM     27  C   UNL     1      -0.023  -0.002   0.011  0.00  0.00    +0.010 A 
ATOM     28  H   UNL     1       4.486  -0.326  -0.054  0.00  0.00    +0.160 HD
ENDBRANCH  18  25
ENDBRANCH  17  18
ENDBRANCH   1  17
TORSDOF 6
