REMARK  Name = ZINC15780429
REMARK  5 active torsions:
REMARK  status: ('A' for Active; 'I' for Inactive)
REMARK    1  A    between atoms: C_1  and  C_2
REMARK    2  A    between atoms: C_4  and  S_9
REMARK    3  A    between atoms: S_9  and  N_12
REMARK    4  A    between atoms: N_12  and  C_13
REMARK    5  A    between atoms: C_18  and  C_19
REMARK                            x       y       z     vdW  Elec       q    Type
REMARK                         _______ _______ _______ _____ _____    ______ ____
ROOT
ATOM      1  N   UNL     1      -0.033   0.019  -2.412  0.00  0.00    -0.216 N 
ATOM      2  H   UNL     1       0.493   0.830  -2.498  0.00  0.00    +0.174 HD
ENDROOT
BRANCH   1   3
ATOM      3  C   UNL     1      -0.176  -0.593  -1.162  0.00  0.00    +0.053 A 
ATOM      4  C   UNL     1      -0.231  -1.976  -1.070  0.00  0.00    +0.052 A 
ATOM      5  C   UNL     1      -0.379  -2.578   0.169  0.00  0.00    +0.069 A 
ATOM      6  C   UNL     1      -0.467  -1.792   1.320  0.00  0.00    +0.067 A 
ATOM      7  C   UNL     1      -0.407  -0.410   1.222  0.00  0.00    +0.033 A 
ATOM      8  C   UNL     1      -0.259   0.187  -0.014  0.00  0.00    -0.026 A 
ATOM      9  C   UNL     1      -0.194   1.689  -0.120  0.00  0.00    +0.046 C 
ATOM     10  N   UNL     1      -0.609  -2.669   2.396  0.00  0.00    -0.306 N 
ATOM     11  H   UNL     1      -0.695  -2.415   3.329  0.00  0.00    +0.170 HD
ATOM     12  C   UNL     1      -0.606  -3.928   1.919  0.00  0.00    +0.325 A 
ATOM     13  O   UNL     1      -0.712  -4.934   2.596  0.00  0.00    -0.247 OA
ATOM     14  N   UNL     1      -0.469  -3.906   0.581  0.00  0.00    -0.306 N 
ATOM     15  H   UNL     1      -0.439  -4.683   0.001  0.00  0.00    +0.170 HD
ENDBRANCH   1   3
BRANCH   1  16
ATOM     16  S   UNL     1      -0.760  -0.641  -3.746  0.00  0.00    +0.072 S 
ATOM     17  O   UNL     1      -0.544   0.267  -4.817  0.00  0.00    -0.150 OA
ATOM     18  O   UNL     1      -0.346  -2.000  -3.803  0.00  0.00    -0.150 OA
BRANCH  16  22
ATOM     19  C   UNL     1      -5.476   1.599  -3.968  0.00  0.00    +0.047 C 
ATOM     20  C   UNL     1      -4.631   0.417  -3.567  0.00  0.00    -0.013 A 
ATOM     21  C   UNL     1      -3.270   0.428  -3.807  0.00  0.00    +0.035 A 
ATOM     22  C   UNL     1      -2.495  -0.656  -3.439  0.00  0.00    +0.109 A 
ATOM     23  C   UNL     1      -3.081  -1.754  -2.836  0.00  0.00    +0.031 A 
ATOM     24  C   UNL     1      -4.441  -1.764  -2.591  0.00  0.00    +0.040 A 
ATOM     25  C   UNL     1      -5.218  -0.679  -2.959  0.00  0.00    +0.126 A 
ATOM     26  F   UNL     1      -6.549  -0.690  -2.724  0.00  0.00    -0.205 F 
ENDBRANCH  16  22
ENDBRANCH   1  16
TORSDOF 3
