REMARK  Name = ZINC05640655
REMARK  8 active torsions:
REMARK  status: ('A' for Active; 'I' for Inactive)
REMARK    1  A    between atoms: C_1  and  C_2
REMARK    2  A    between atoms: C_9  and  N_30
REMARK    3  A    between atoms: C_10  and  C_28
REMARK    4  A    between atoms: C_11  and  C_13
REMARK    5  A    between atoms: C_15  and  C_19
REMARK    6  A    between atoms: C_16  and  C_18
REMARK    7  A    between atoms: C_19  and  O_20
REMARK    8  A    between atoms: O_20  and  C_21
REMARK                            x       y       z     vdW  Elec       q    Type
REMARK                         _______ _______ _______ _____ _____    ______ ____
ROOT
ATOM      1  C   UNL     1      -2.172   5.399  -3.005  0.00  0.00    +0.065 C 
ATOM      2  C   UNL     1      -1.936   6.778  -2.446  0.00  0.00    +0.041 A 
ATOM      3  C   UNL     1      -1.735   7.085  -1.155  0.00  0.00    +0.049 A 
ATOM      4  C   UNL     1      -1.558   8.483  -1.059  0.00  0.00    +0.245 A 
ATOM      5  N   UNL     1      -1.651   8.983  -2.257  0.00  0.00    -0.135 NA
ATOM      6  N   UNL     1      -1.889   7.930  -3.154  0.00  0.00    -0.278 N 
ATOM      7  H   UNL     1      -2.030   7.911  -4.244  0.00  0.00    +0.189 HD
ATOM      8  O   UNL     1      -1.335   9.101   0.131  0.00  0.00    -0.421 OA
ATOM      9  C   UNL     1      -1.555   8.387   1.253  0.00  0.00    +0.201 C 
ATOM     10  C   UNL     1      -1.726   7.049   1.286  0.00  0.00    +0.099 C 
ATOM     11  C   UNL     1      -1.685   6.184   0.052  0.00  0.00    +0.108 C 
ENDROOT
BRANCH  11  12
ATOM     12  C   UNL     1      -0.410   5.380   0.035  0.00  0.00    +0.003 A 
ATOM     13  C   UNL     1      -0.250   4.034   0.027  0.00  0.00    +0.019 A 
ATOM     14  C   UNL     1       1.030   3.512   0.011  0.00  0.00    -0.000 A 
ATOM     15  C   UNL     1       2.087   4.362   0.011  0.00  0.00    -0.007 A 
ATOM     16  S   UNL     1       1.280   5.954   0.021  0.00  0.00    -0.097 S 
ATOM     17  C   UNL     1       3.560   4.044   0.002  0.00  0.00    +0.052 C 
BRANCH  14  18
ATOM     18  C   UNL     1       1.248   2.021   0.001  0.00  0.00    +0.265 C 
BRANCH  18  19
ATOM     19  O   UNL     1      -0.016   1.355   0.009  0.00  0.00    -0.487 OA
BRANCH  19  20
ATOM     20  C   UNL     1       0.002  -0.004   0.002  0.00  0.00    +0.121 A 
ATOM     21  C   UNL     1       1.212  -0.682  -0.019  0.00  0.00    +0.048 A 
ATOM     22  C   UNL     1       1.230  -2.063  -0.022  0.00  0.00    +0.042 A 
ATOM     23  C   UNL     1       0.040  -2.771  -0.015  0.00  0.00    +0.124 A 
ATOM     24  C   UNL     1      -1.169  -2.096   0.002  0.00  0.00    +0.042 A 
ATOM     25  C   UNL     1      -1.189  -0.715   0.010  0.00  0.00    +0.048 A 
ATOM     26  F   UNL     1       0.058  -4.122  -0.023  0.00  0.00    -0.205 F 
ENDBRANCH  19  20
ENDBRANCH  18  19
ENDBRANCH  14  18
ENDBRANCH  11  12
BRANCH   9  27
ATOM     27  N   UNL     1      -1.609   9.067   2.443  0.00  0.00    -0.328 N 
ATOM     28  H   UNL     1      -1.787   8.521   3.382  0.00  0.00    +0.145 HD
ATOM     29  H   UNL     1      -1.475  10.159   2.460  0.00  0.00    +0.145 HD
ENDBRANCH   9  27
BRANCH  10  30
ATOM     30  C   UNL     1      -1.957   6.421   2.553  0.00  0.00    +0.101 C 
ATOM     31  N   UNL     1      -2.140   5.924   3.557  0.00  0.00    -0.191 NA
ENDBRANCH  10  30
TORSDOF 6
