REMARK  Name = ZINC57845596
REMARK  6 active torsions:
REMARK  status: ('A' for Active; 'I' for Inactive)
REMARK    1  A    between atoms: C_1  and  C_2
REMARK    2  A    between atoms: C_2  and  C_4
REMARK    3  A    between atoms: C_2  and  N_6
REMARK    4  A    between atoms: C_4  and  N_5
REMARK    5  A    between atoms: C_9  and  C_13
REMARK    6  A    between atoms: C_9  and  C_14
REMARK                            x       y       z     vdW  Elec       q    Type
REMARK                         _______ _______ _______ _____ _____    ______ ____
ROOT
ATOM      1  N   UNL     1       0.711  -0.489   1.189  0.00  0.00    -0.223 N 
ATOM      2  C   UNL     1       0.160  -1.284   2.127  0.00  0.00    +0.251 C 
ATOM      3  O   UNL     1      -0.973  -1.716   2.148  0.00  0.00    -0.272 OA
ATOM      4  C   UNL     1       1.251  -1.527   3.151  0.00  0.00    +0.136 C 
ATOM      5  N   UNL     1       2.397  -0.769   2.621  0.00  0.00    -0.281 N 
ATOM      6  C   UNL     1       1.986  -0.203   1.472  0.00  0.00    +0.310 C 
ATOM      7  O   UNL     1       2.694   0.494   0.771  0.00  0.00    -0.252 OA
ATOM      8  C   UNL     1       1.585  -3.017   3.239  0.00  0.00    +0.047 C 
ATOM      9  H   UNL     1       3.278  -0.695   3.021  0.00  0.00    +0.152 HD
ENDROOT
BRANCH   4  10
ATOM     10  C   UNL     1       0.840  -0.993   4.500  0.00  0.00    +0.003 A 
ATOM     11  C   UNL     1       1.594  -0.009   5.112  0.00  0.00    +0.009 A 
ATOM     12  C   UNL     1       1.218   0.480   6.348  0.00  0.00    +0.020 A 
ATOM     13  C   UNL     1       0.087  -0.014   6.974  0.00  0.00    +0.042 A 
ATOM     14  C   UNL     1      -0.667  -0.998   6.362  0.00  0.00    +0.040 A 
ATOM     15  C   UNL     1      -0.294  -1.484   5.122  0.00  0.00    +0.048 A 
ATOM     16 CL   UNL     1      -1.243  -2.715   4.349  0.00  0.00    -0.083 Cl
ATOM     17 CL   UNL     1      -0.385   0.601   8.528  0.00  0.00    -0.083 Cl
ENDBRANCH   4  10
BRANCH   1  19
ATOM     18  C   UNL     1      -0.019   1.526   0.010  0.00  0.00    +0.026 C 
ATOM     19  C   UNL     1       0.002  -0.004   0.002  0.00  0.00    +0.065 C 
BRANCH  19  20
ATOM     20  C   UNL     1       0.718  -0.497  -1.257  0.00  0.00    -0.063 C 
BRANCH  20  21
ATOM     21  N   UNL     1       0.844  -1.960  -1.207  0.00  0.00    +0.379 N 
ATOM     22  H   UNL     1       1.377  -2.224  -0.392  0.00  0.00    -0.090 HD
ATOM     23  H   UNL     1      -0.074  -2.375  -1.158  0.00  0.00    -0.090 HD
ATOM     24  H   UNL     1       1.316  -2.286  -2.037  0.00  0.00    -0.090 HD
ENDBRANCH  20  21
ENDBRANCH  19  20
ENDBRANCH   1  19
TORSDOF 4
