REMARK  Name = ZINC03843921
REMARK  7 active torsions:
REMARK  status: ('A' for Active; 'I' for Inactive)
REMARK    1  A    between atoms: C_1  and  C_2
REMARK    2  A    between atoms: C_18  and  C_29
REMARK    3  A    between atoms: C_19  and  O_28
REMARK    4  A    between atoms: C_22  and  C_23
REMARK    5  A    between atoms: C_22  and  O_27
REMARK    6  A    between atoms: C_23  and  C_25
REMARK    7  A    between atoms: C_25  and  O_26
REMARK                            x       y       z     vdW  Elec       q    Type
REMARK                         _______ _______ _______ _____ _____    ______ ____
ROOT
ATOM      1  C   UNL     1      -1.933  -0.701  -1.086  0.00  0.00    +0.012 C 
ATOM      2  C   UNL     1      -1.856   0.827  -1.126  0.00  0.00    -0.025 C 
ATOM      3  C   UNL     1      -2.674   1.343  -2.309  0.00  0.00    +0.015 C 
ATOM      4  C   UNL     1      -2.670   2.875  -2.305  0.00  0.00    +0.075 C 
ATOM      5  C   UNL     1      -1.234   3.349  -2.287  0.00  0.00    +0.134 C 
ATOM      6  O   UNL     1      -0.837   4.156  -3.093  0.00  0.00    -0.297 OA
ATOM      7  C   UNL     1      -0.307   2.785  -1.233  0.00  0.00    +0.078 C 
ATOM      8  C   UNL     1      -0.394   1.255  -1.271  0.00  0.00    +0.002 C 
ATOM      9  C   UNL     1       0.409   0.683  -0.097  0.00  0.00    +0.005 C 
ATOM     10  C   UNL     1      -0.148   1.244   1.213  0.00  0.00    +0.007 C 
ATOM     11  C   UNL     1      -1.619   0.843   1.361  0.00  0.00    +0.025 C 
ATOM     12  C   UNL     1      -2.425   1.382   0.181  0.00  0.00    +0.001 C 
ATOM     13  C   UNL     1      -3.879   0.918   0.328  0.00  0.00    +0.005 C 
ATOM     14  C   UNL     1      -4.457   1.530   1.603  0.00  0.00    +0.013 C 
ATOM     15  C   UNL     1      -3.664   1.110   2.819  0.00  0.00    +0.033 C 
ATOM     16  C   UNL     1      -2.158   1.395   2.684  0.00  0.00    +0.078 C 
ATOM     17  C   UNL     1      -1.566   0.496   3.811  0.00  0.00    +0.039 C 
ATOM     18  C   UNL     1      -2.413  -0.793   3.738  0.00  0.00    +0.046 C 
ATOM     19  C   UNL     1      -3.758  -0.397   3.095  0.00  0.00    +0.134 C 
ATOM     20  C   UNL     1      -4.201   1.852   4.045  0.00  0.00    +0.017 C 
ENDROOT
BRANCH  19  21
ATOM     21  C   UNL     1      -3.959  -1.149   1.805  0.00  0.00    +0.190 C 
ATOM     22  O   UNL     1      -3.007  -1.602   1.216  0.00  0.00    -0.292 OA
BRANCH  21  23
ATOM     23  C   UNL     1      -5.348  -1.337   1.250  0.00  0.00    +0.233 C 
BRANCH  23  24
ATOM     24  O   UNL     1      -5.277  -2.076   0.029  0.00  0.00    -0.387 OA
ATOM     25  H   UNL     1      -6.136  -2.235  -0.385  0.00  0.00    +0.210 HD
ENDBRANCH  23  24
ENDBRANCH  21  23
ENDBRANCH  19  21
BRANCH  19  26
ATOM     26  O   UNL     1      -4.834  -0.666   3.996  0.00  0.00    -0.380 OA
ATOM     27  H   UNL     1      -4.943  -1.603   4.209  0.00  0.00    +0.211 HD
ENDBRANCH  19  26
BRANCH  16  28
ATOM     28  O   UNL     1      -1.849   2.777   2.870  0.00  0.00    -0.388 OA
ATOM     29  H   UNL     1      -0.907   2.984   2.790  0.00  0.00    +0.210 HD
ENDBRANCH  16  28
TORSDOF 5
