REMARK  Name = ZINC50014655
REMARK  4 active torsions:
REMARK  status: ('A' for Active; 'I' for Inactive)
REMARK    1  A    between atoms: C_1  and  N_2
REMARK    2  A    between atoms: N_2  and  C_3
REMARK    3  A    between atoms: C_8  and  N_9
REMARK    4  A    between atoms: C_10  and  C_12
REMARK                            x       y       z     vdW  Elec       q    Type
REMARK                         _______ _______ _______ _____ _____    ______ ____
ROOT
ATOM      1  C   UNL     1      -0.018   1.461   0.010  0.00  0.00    +0.138 C 
ATOM      2  N   UNL     1       0.002  -0.004   0.002  0.00  0.00    -0.269 N 
ATOM      3  C   UNL     1       0.000  -0.672  -1.169  0.00  0.00    +0.256 C 
ATOM      4  O   UNL     1       0.017  -1.887  -1.175  0.00  0.00    -0.269 OA
ENDROOT
BRANCH   3   5
ATOM      5  C   UNL     1      -0.022   0.073  -2.442  0.00  0.00    +0.107 A 
ATOM      6  C   UNL     1       1.177   0.439  -3.064  0.00  0.00    +0.138 A 
ATOM      7  C   UNL     1       1.147   1.137  -4.257  0.00  0.00    +0.039 A 
ATOM      8  C   UNL     1      -0.064   1.473  -4.836  0.00  0.00    +0.006 A 
ATOM      9  C   UNL     1      -1.254   1.114  -4.228  0.00  0.00    +0.039 A 
ATOM     10  C   UNL     1      -1.242   0.411  -3.038  0.00  0.00    +0.138 A 
ATOM     11  F   UNL     1      -2.405   0.057  -2.449  0.00  0.00    -0.205 F 
ATOM     12  F   UNL     1       2.360   0.113  -2.500  0.00  0.00    -0.205 F 
ENDBRANCH   3   5
BRANCH   2  13
ATOM     13  C   UNL     1       0.023  -0.711   1.211  0.00  0.00    +0.057 A 
ATOM     14  C   UNL     1      -1.166  -1.083   1.820  0.00  0.00    +0.025 A 
ATOM     15  C   UNL     1      -1.143  -1.781   3.013  0.00  0.00    +0.002 A 
ATOM     16  C   UNL     1       0.064  -2.109   3.604  0.00  0.00    +0.002 A 
ATOM     17  C   UNL     1       1.254  -1.742   3.004  0.00  0.00    +0.024 A 
ATOM     18  C   UNL     1       1.240  -1.048   1.804  0.00  0.00    +0.046 A 
BRANCH  18  19
ATOM     19  N   UNL     1       2.444  -0.680   1.192  0.00  0.00    -0.357 N 
ATOM     20  H   UNL     1       2.432  -0.191   0.355  0.00  0.00    +0.142 HD
ATOM     21  H   UNL     1       3.289  -0.915   1.605  0.00  0.00    +0.142 HD
ENDBRANCH  18  19
ENDBRANCH   2  13
TORSDOF 3
