REMARK  Name = ZINC63572595
REMARK  2 active torsions:
REMARK  status: ('A' for Active; 'I' for Inactive)
REMARK    1  A    between atoms: C_6  and  C_7
REMARK    2  A    between atoms: N_25  and  C_26
REMARK                            x       y       z     vdW  Elec       q    Type
REMARK                         _______ _______ _______ _____ _____    ______ ____
ROOT
ATOM      1  C   UNL     1      -1.301  -0.763  -0.004  0.00  0.00    +0.134 C 
ATOM      2  C   UNL     1      -1.520  -1.354   1.393  0.00  0.00    +0.131 C 
ATOM      3  C   UNL     1      -2.661  -2.355   1.267  0.00  0.00    -0.035 C 
ATOM      4  C   UNL     1      -3.585  -1.984   2.146  0.00  0.00    +0.001 A 
ATOM      5  C   UNL     1      -4.868  -2.590   2.533  0.00  0.00    +0.030 A 
ATOM      6  C   UNL     1      -5.585  -1.926   3.479  0.00  0.00    +0.042 A 
ATOM      7  C   UNL     1      -5.157  -0.732   4.071  0.00  0.00    +0.022 A 
ATOM      8  C   UNL     1      -3.989  -0.107   3.777  0.00  0.00    +0.027 A 
ATOM      9  C   UNL     1      -3.147  -0.713   2.800  0.00  0.00    +0.043 A 
ATOM     10  N   UNL     1      -1.962  -0.338   2.350  0.00  0.00    -0.375 N 
ATOM     11 CL   UNL     1      -7.109  -2.591   3.977  0.00  0.00    -0.084 Cl
ATOM     12  C   UNL     1      -2.658  -3.464   0.243  0.00  0.00    +0.052 C 
ATOM     13  C   UNL     1      -2.343  -2.811  -1.115  0.00  0.00    +0.114 C 
ATOM     14  N   UNL     1      -1.222  -1.879  -0.960  0.00  0.00    -0.276 N 
ATOM     15  C   UNL     1      -0.107  -2.046  -1.699  0.00  0.00    +0.303 C 
ATOM     16  O   UNL     1       0.867  -1.347  -1.498  0.00  0.00    -0.253 OA
ATOM     17  N   UNL     1      -0.073  -2.989  -2.662  0.00  0.00    -0.294 N 
ATOM     18  H   UNL     1      -0.872  -3.496  -2.873  0.00  0.00    +0.151 HD
ATOM     19  H   UNL     1      -1.471   0.461   2.597  0.00  0.00    +0.160 HD
ENDROOT
BRANCH  17  20
ATOM     20  C   UNL     1       1.173  -3.249  -3.388  0.00  0.00    +0.037 C 
ATOM     21  C   UNL     1       1.621  -1.973  -4.104  0.00  0.00    +0.029 C 
ATOM     22  C   UNL     1       2.921  -2.244  -4.863  0.00  0.00    -0.008 C 
ATOM     23  C   UNL     1       2.690  -3.352  -5.892  0.00  0.00    +0.007 C 
ATOM     24  C   UNL     1       2.242  -4.628  -5.176  0.00  0.00    -0.008 C 
ATOM     25  C   UNL     1       0.941  -4.357  -4.418  0.00  0.00    +0.029 C 
ATOM     26  C   UNL     1       3.326  -5.067  -4.190  0.00  0.00    +0.007 C 
ATOM     27  C   UNL     1       3.557  -3.959  -3.160  0.00  0.00    -0.008 C 
ATOM     28  C   UNL     1       4.005  -2.683  -3.876  0.00  0.00    +0.007 C 
ATOM     29  C   UNL     1       2.257  -3.688  -2.402  0.00  0.00    +0.029 C 
ENDBRANCH  17  20
BRANCH   1  35
ATOM     30  C   UNL     1       0.161   1.029  -0.961  0.00  0.00    +0.008 A 
ATOM     31  C   UNL     1       1.339   1.750  -0.986  0.00  0.00    +0.038 A 
ATOM     32  C   UNL     1       2.344   1.465  -0.077  0.00  0.00    +0.123 A 
ATOM     33  C   UNL     1       2.166   0.457   0.856  0.00  0.00    +0.038 A 
ATOM     34  C   UNL     1       0.987  -0.263   0.878  0.00  0.00    +0.008 A 
ATOM     35  C   UNL     1      -0.015   0.023  -0.030  0.00  0.00    -0.025 A 
ATOM     36  F   UNL     1       3.497   2.169  -0.100  0.00  0.00    -0.205 F 
ENDBRANCH   1  35
TORSDOF 2
