REMARK  Name = ZINC09970457
REMARK  12 active torsions:
REMARK  status: ('A' for Active; 'I' for Inactive)
REMARK    1  A    between atoms: C_1  and  C_2
REMARK    2  A    between atoms: C_2  and  C_18
REMARK    3  A    between atoms: C_3  and  C_16
REMARK    4  A    between atoms: C_3  and  O_17
REMARK    5  A    between atoms: C_4  and  C_14
REMARK    6  A    between atoms: C_4  and  O_15
REMARK    7  A    between atoms: C_5  and  C_11
REMARK    8  A    between atoms: C_5  and  O_12
REMARK    9  A    between atoms: C_6  and  C_8
REMARK   10  A    between atoms: C_6  and  C_9
REMARK   11  A    between atoms: C_9  and  O_10
REMARK   12  A    between atoms: O_12  and  C_13
REMARK                            x       y       z     vdW  Elec       q    Type
REMARK                         _______ _______ _______ _____ _____    ______ ____
ROOT
ATOM      1  C   UNL     1      -0.928  -0.062  -0.109  0.00  0.00    +0.044 C 
ATOM      2  C   UNL     1       0.425   0.593  -0.486  0.00  0.00    +0.096 C 
ATOM      3  C   UNL     1       1.505  -0.122   0.314  0.00  0.00    +0.122 C 
ATOM      4  C   UNL     1       2.786   0.680   0.479  0.00  0.00    +0.125 C 
ATOM      5  C   UNL     1       2.534   2.133   0.847  0.00  0.00    +0.128 C 
ATOM      6  C   UNL     1       1.431   2.796   0.035  0.00  0.00    +0.122 C 
ATOM      7  O   UNL     1       0.325   1.964  -0.201  0.00  0.00    -0.360 OA
ATOM      8  C   UNL     1       1.997   3.353  -1.278  0.00  0.00    +0.047 C 
ATOM      9  C   UNL     1       3.838   2.928   0.650  0.00  0.00    +0.048 C 
ATOM     10  C   UNL     1       3.674   0.568  -0.762  0.00  0.00    +0.047 C 
ATOM     11  C   UNL     1       1.839  -1.451  -0.387  0.00  0.00    +0.047 C 
ATOM     12  C   UNL     1       0.625   0.350  -1.987  0.00  0.00    +0.044 C 
ENDROOT
BRANCH   5  13
ATOM     13  O   UNL     1       2.186   2.206   2.241  0.00  0.00    -0.371 OA
ATOM     14  C   UNL     1       3.253   1.861   3.126  0.00  0.00    +0.195 C 
ENDBRANCH   5  13
BRANCH   4  15
ATOM     15  O   UNL     1       3.526   0.083   1.573  0.00  0.00    -0.383 OA
ATOM     16  H   UNL     1       3.762  -0.844   1.429  0.00  0.00    +0.210 HD
ENDBRANCH   4  15
BRANCH   3  17
ATOM     17  O   UNL     1       0.981  -0.436   1.616  0.00  0.00    -0.383 OA
ATOM     18  H   UNL     1       0.202  -1.008   1.599  0.00  0.00    +0.210 HD
ENDBRANCH   3  17
BRANCH   6  19
ATOM     19  C   UNL     1       0.933   4.015   0.853  0.00  0.00    +0.193 C 
BRANCH  19  20
ATOM     20  O   UNL     1      -0.036   4.736   0.090  0.00  0.00    -0.392 OA
ATOM     21  H   UNL     1      -0.392   5.514   0.541  0.00  0.00    +0.210 HD
ENDBRANCH  19  20
ENDBRANCH   6  19
TORSDOF 5
