REMARK  Name = ZINC33704800
REMARK  4 active torsions:
REMARK  status: ('A' for Active; 'I' for Inactive)
REMARK    1  A    between atoms: C_1  and  C_2
REMARK    2  A    between atoms: C_15  and  O_27
REMARK    3  A    between atoms: C_18  and  C_26
REMARK    4  A    between atoms: C_22  and  O_25
REMARK                            x       y       z     vdW  Elec       q    Type
REMARK                         _______ _______ _______ _____ _____    ______ ____
ROOT
ATOM      1  C   UNL     1      -4.213   2.833   4.795  0.00  0.00    +0.016 C 
ATOM      2  C   UNL     1      -4.350   1.997   3.521  0.00  0.00    -0.005 C 
ATOM      3  C   UNL     1      -4.776   0.573   3.858  0.00  0.00    +0.019 C 
ATOM      4  C   UNL     1      -6.168   0.563   4.492  0.00  0.00    +0.080 C 
ATOM      5  C   UNL     1      -7.137   1.286   3.591  0.00  0.00    +0.156 C 
ATOM      6  O   UNL     1      -8.321   1.020   3.638  0.00  0.00    -0.293 OA
ATOM      7  C   UNL     1      -6.654   2.304   2.663  0.00  0.00    +0.046 C 
ATOM      8  C   UNL     1      -5.371   2.645   2.615  0.00  0.00    -0.060 C 
ATOM      9  C   UNL     1      -4.911   3.707   1.643  0.00  0.00    +0.032 C 
ATOM     10  C   UNL     1      -3.875   3.107   0.690  0.00  0.00    +0.008 C 
ATOM     11  C   UNL     1      -3.315   1.821   1.277  0.00  0.00    -0.001 C 
ATOM     12  C   UNL     1      -3.011   1.984   2.768  0.00  0.00    +0.031 C 
ATOM     13  C   UNL     1      -2.107   0.862   3.256  0.00  0.00    +0.119 C 
ATOM     14  C   UNL     1      -0.730   0.893   2.579  0.00  0.00    +0.038 C 
ATOM     15  C   UNL     1      -0.793   1.597   1.245  0.00  0.00    -0.024 C 
ATOM     16  C   UNL     1      -2.127   1.285   0.537  0.00  0.00    +0.001 C 
ATOM     17  C   UNL     1      -1.889   1.810  -0.881  0.00  0.00    +0.035 C 
ATOM     18  C   UNL     1      -0.384   1.546  -1.140  0.00  0.00    +0.115 C 
ATOM     19  C   UNL     1       0.201   1.026   0.201  0.00  0.00    +0.038 C 
ATOM     20  C   UNL     1      -0.524   3.096   1.387  0.00  0.00    +0.011 C 
ENDROOT
BRANCH  18  21
ATOM     21  O   UNL     1      -0.230   0.555  -2.158  0.00  0.00    -0.392 OA
ATOM     22  H   UNL     1       0.776   0.241  -2.473  0.00  0.00    +0.210 HD
ENDBRANCH  18  21
BRANCH  13  23
ATOM     23  O   UNL     1      -1.909   0.969   4.671  0.00  0.00    -0.391 OA
ATOM     24  H   UNL     1      -1.278   0.235   5.195  0.00  0.00    +0.210 HD
ENDBRANCH  13  23
TORSDOF 2
