REMARK  Name = ZINC44412955
REMARK  4 active torsions:
REMARK  status: ('A' for Active; 'I' for Inactive)
REMARK    1  A    between atoms: C_1  and  C_2
REMARK    2  A    between atoms: C_6  and  C_17
REMARK    3  A    between atoms: N_9  and  C_10
REMARK    4  A    between atoms: C_15  and  N_16
REMARK                            x       y       z     vdW  Elec       q    Type
REMARK                         _______ _______ _______ _____ _____    ______ ____
ROOT
ATOM      1  C   UNL     1      -0.019   1.526   0.010  0.00  0.00    +0.028 C 
ATOM      2  C   UNL     1       0.002  -0.004   0.002  0.00  0.00    +0.070 C 
ATOM      3  C   UNL     1      -1.434  -0.537   0.020  0.00  0.00    +0.023 C 
ATOM      4  C   UNL     1      -2.101  -0.151   1.343  0.00  0.00    +0.016 C 
ATOM      5  C   UNL     1      -1.335  -0.786   2.506  0.00  0.00    +0.092 C 
ATOM      6  C   UNL     1       0.102  -0.256   2.516  0.00  0.00    +0.118 C 
ATOM      7  N   UNL     1       0.706  -0.494   1.195  0.00  0.00    -0.325 N 
ENDROOT
BRANCH   7   8
ATOM      8  C   UNL     1       1.924  -1.174   1.075  0.00  0.00    +0.051 A 
ATOM      9  C   UNL     1       3.119  -0.471   1.101  0.00  0.00    +0.025 A 
ATOM     10  C   UNL     1       4.321  -1.145   0.983  0.00  0.00    +0.002 A 
ATOM     11  C   UNL     1       4.335  -2.520   0.840  0.00  0.00    +0.002 A 
ATOM     12  C   UNL     1       3.148  -3.229   0.813  0.00  0.00    +0.024 A 
ATOM     13  C   UNL     1       1.939  -2.562   0.936  0.00  0.00    +0.046 A 
BRANCH  13  14
ATOM     14  N   UNL     1       0.736  -3.278   0.914  0.00  0.00    -0.357 N 
ATOM     15  H   UNL     1      -0.109  -2.810   0.997  0.00  0.00    +0.142 HD
ATOM     16  H   UNL     1       0.748  -4.244   0.817  0.00  0.00    +0.142 HD
ENDBRANCH  13  14
ENDBRANCH   7   8
BRANCH   5  17
ATOM     17  C   UNL     1      -2.011  -0.433   3.805  0.00  0.00    +0.215 C 
ATOM     18  O   UNL     1      -1.405   0.180   4.658  0.00  0.00    -0.276 OA
ATOM     19  N   UNL     1      -3.291  -0.798   4.020  0.00  0.00    -0.329 N 
ATOM     20  H   UNL     1      -3.776  -1.288   3.338  0.00  0.00    +0.145 HD
ATOM     21  H   UNL     1      -3.726  -0.571   4.856  0.00  0.00    +0.145 HD
ENDBRANCH   5  17
TORSDOF 3
