REMARK  Name = ZINC39855988
REMARK  7 active torsions:
REMARK  status: ('A' for Active; 'I' for Inactive)
REMARK    1  A    between atoms: C_1  and  C_2
REMARK    2  A    between atoms: C_6  and  C_7
REMARK    3  A    between atoms: N_9  and  C_10
REMARK    4  A    between atoms: N_9  and  C_11
REMARK    5  A    between atoms: C_18  and  C_26
REMARK    6  A    between atoms: C_18  and  C_27
REMARK    7  A    between atoms: N_21  and  N_22
REMARK                            x       y       z     vdW  Elec       q    Type
REMARK                         _______ _______ _______ _____ _____    ______ ____
ROOT
ATOM      1  C   UNL     1       0.447   1.417  -0.021  0.00  0.00    +0.048 C 
ATOM      2  C   UNL     1       0.570  -0.084   0.028  0.00  0.00    +0.009 A 
ATOM      3  C   UNL     1       0.837  -0.941  -1.046  0.00  0.00    +0.043 A 
ATOM      4  C   UNL     1       0.860  -2.225  -0.555  0.00  0.00    +0.116 A 
ATOM      5  O   UNL     1       0.624  -2.168   0.754  0.00  0.00    -0.454 OA
ATOM      6  C   UNL     1       0.449  -0.882   1.132  0.00  0.00    +0.193 A 
ATOM      7  C   UNL     1       1.115  -3.431  -1.422  0.00  0.00    +0.081 C 
ATOM      8  C   UNL     1       0.823  -3.078  -2.883  0.00  0.00    -0.023 C 
ATOM      9  C   UNL     1       1.593  -1.820  -3.299  0.00  0.00    +0.064 C 
ATOM     10  C   UNL     1       1.071  -0.649  -2.479  0.00  0.00    +0.073 C 
ATOM     11  N   UNL     1       0.848   0.519  -2.996  0.00  0.00    -0.175 NA
ATOM     12  C   UNL     1      -0.677  -2.830  -3.051  0.00  0.00    +0.011 C 
ATOM     13  C   UNL     1       1.244  -4.245  -3.778  0.00  0.00    +0.011 C 
ENDROOT
BRANCH  11  14
ATOM     14  N   UNL     1       1.087   0.738  -4.359  0.00  0.00    -0.248 N 
ATOM     15  C   UNL     1       0.851   1.971  -4.905  0.00  0.00    +0.187 C 
ATOM     16  N   UNL     1       1.079   2.180  -6.202  0.00  0.00    -0.370 N 
ATOM     17  N   UNL     1       0.394   2.963  -4.141  0.00  0.00    -0.370 N 
ATOM     18  H   UNL     1       1.419   0.017  -4.915  0.00  0.00    +0.192 HD
ATOM     19  H   UNL     1       0.911   3.054  -6.589  0.00  0.00    +0.159 HD
ATOM     20  H   UNL     1       0.228   2.811  -3.197  0.00  0.00    +0.159 HD
ATOM     21  H   UNL     1       0.227   3.836  -4.528  0.00  0.00    +0.159 HD
ATOM     22  H   UNL     1       1.411   1.459  -6.758  0.00  0.00    +0.159 HD
ENDBRANCH  11  14
BRANCH   6  23
ATOM     23  C   UNL     1       0.172  -0.419   2.497  0.00  0.00    +0.286 C 
ATOM     24  O   UNL     1       0.140   0.772   2.741  0.00  0.00    -0.266 OA
ATOM     25  N   UNL     1      -0.048  -1.315   3.480  0.00  0.00    -0.268 N 
ATOM     26  C   UNL     1       0.056  -2.749   3.201  0.00  0.00    +0.138 C 
BRANCH  25  27
ATOM     27  C   UNL     1      -0.374  -0.875   4.766  0.00  0.00    +0.036 A 
ATOM     28  C   UNL     1      -0.309   0.478   5.076  0.00  0.00    +0.023 A 
ATOM     29  C   UNL     1      -0.632   0.909   6.348  0.00  0.00    +0.002 A 
ATOM     30  C   UNL     1      -1.019  -0.004   7.312  0.00  0.00    +0.000 A 
ATOM     31  C   UNL     1      -1.084  -1.351   7.007  0.00  0.00    +0.002 A 
ATOM     32  C   UNL     1      -0.768  -1.788   5.735  0.00  0.00    +0.023 A 
ENDBRANCH  25  27
ENDBRANCH   6  23
TORSDOF 3
