REMARK  Name = ZINC62951186
REMARK  7 active torsions:
REMARK  status: ('A' for Active; 'I' for Inactive)
REMARK    1  A    between atoms: C_1  and  C_2
REMARK    2  A    between atoms: C_2  and  C_3
REMARK    3  A    between atoms: C_3  and  C_21
REMARK    4  A    between atoms: N_6  and  C_9
REMARK    5  A    between atoms: C_9  and  C_10
REMARK    6  A    between atoms: N_12  and  C_13
REMARK    7  A    between atoms: C_18  and  N_19
REMARK                            x       y       z     vdW  Elec       q    Type
REMARK                         _______ _______ _______ _____ _____    ______ ____
ROOT
ATOM      1  C   UNL     1       3.790  -4.033  -3.421  0.00  0.00    +0.201 C 
ATOM      2  O   UNL     1       3.273  -4.601  -2.482  0.00  0.00    -0.278 OA
ATOM      3  N   UNL     1       4.457  -4.742  -4.354  0.00  0.00    -0.286 N 
ATOM      4  H   UNL     1       4.801  -4.299  -5.145  0.00  0.00    +0.155 HD
ENDROOT
BRANCH   3   5
ATOM      5  C   UNL     1       4.654  -6.119  -4.180  0.00  0.00    +0.054 A 
ATOM      6  C   UNL     1       4.650  -6.666  -2.906  0.00  0.00    +0.026 A 
ATOM      7  C   UNL     1       4.844  -8.024  -2.736  0.00  0.00    +0.022 A 
ATOM      8  C   UNL     1       5.043  -8.841  -3.835  0.00  0.00    +0.043 A 
ATOM      9  C   UNL     1       5.048  -8.304  -5.109  0.00  0.00    +0.044 A 
ATOM     10  C   UNL     1       4.848  -6.943  -5.288  0.00  0.00    +0.047 A 
ATOM     11 CL   UNL     1       5.287 -10.546  -3.613  0.00  0.00    -0.083 Cl
BRANCH  10  12
ATOM     12  N   UNL     1       4.846  -6.397  -6.576  0.00  0.00    -0.356 N 
ATOM     13  H   UNL     1       4.711  -5.445  -6.699  0.00  0.00    +0.142 HD
ATOM     14  H   UNL     1       4.982  -6.971  -7.346  0.00  0.00    +0.142 HD
ENDBRANCH  10  12
ENDBRANCH   3   5
BRANCH   1  15
ATOM     15  C   UNL     1       3.686  -2.535  -3.545  0.00  0.00    +0.019 C 
BRANCH  15  19
ATOM     16  C   UNL     1       0.741  -0.485  -1.246  0.00  0.00    -0.036 C 
ATOM     17  C   UNL     1       2.184   0.026  -1.249  0.00  0.00    -0.012 C 
ATOM     18  C   UNL     1       2.917  -0.535  -2.470  0.00  0.00    -0.078 C 
ATOM     19  N   UNL     1       2.916  -2.002  -2.413  0.00  0.00    +0.385 N 
ATOM     20  C   UNL     1       1.538  -2.502  -2.482  0.00  0.00    -0.078 C 
ATOM     21  C   UNL     1       0.752  -2.017  -1.262  0.00  0.00    -0.012 C 
ATOM     22  C   UNL     1       0.010   0.034  -2.486  0.00  0.00    +0.011 C 
ATOM     23  H   UNL     1       3.339  -2.305  -1.549  0.00  0.00    -0.081 HD
BRANCH  16  25
ATOM     24  C   UNL     1       0.015   1.538   0.028  0.00  0.00    +0.004 C 
ATOM     25  C   UNL     1       0.026   0.008   0.013  0.00  0.00    +0.003 C 
ENDBRANCH  16  25
ENDBRANCH  15  19
ENDBRANCH   1  15
TORSDOF 5
