REMARK  Name = ZINC40365581
REMARK  6 active torsions:
REMARK  status: ('A' for Active; 'I' for Inactive)
REMARK    1  A    between atoms: C_1  and  C_2
REMARK    2  A    between atoms: C_2  and  C_3
REMARK    3  A    between atoms: C_3  and  C_4
REMARK    4  A    between atoms: C_3  and  C_5
REMARK    5  A    between atoms: C_3  and  N_8
REMARK    6  A    between atoms: C_5  and  N_7
REMARK                            x       y       z     vdW  Elec       q    Type
REMARK                         _______ _______ _______ _____ _____    ______ ____
ROOT
ATOM      1  N   UNL     1       2.157   0.091  -1.389  0.00  0.00    -0.230 N 
ATOM      2  C   UNL     1       2.703   0.763  -0.369  0.00  0.00    +0.224 C 
ATOM      3  O   UNL     1       2.159   1.007   0.686  0.00  0.00    -0.275 OA
ATOM      4  C   UNL     1       4.115   1.162  -0.744  0.00  0.00    +0.112 C 
ATOM      5  C   UNL     1       4.202   0.782  -2.239  0.00  0.00    +0.056 C 
ATOM      6  C   UNL     1       2.940   0.004  -2.480  0.00  0.00    +0.229 C 
ATOM      7  O   UNL     1       2.632  -0.617  -3.472  0.00  0.00    -0.275 OA
ATOM      8  C   UNL     1       4.351   1.996  -3.087  0.00  0.00    +0.016 C 
ATOM      9  C   UNL     1       3.850   1.920  -4.528  0.00  0.00    +0.001 C 
ATOM     10  C   UNL     1       4.243   0.653  -5.300  0.00  0.00    +0.000 C 
ATOM     11  C   UNL     1       5.596   0.126  -4.907  0.00  0.00    +0.000 C 
ATOM     12  C   UNL     1       5.436  -0.825  -3.707  0.00  0.00    +0.001 C 
ATOM     13  C   UNL     1       5.431  -0.134  -2.428  0.00  0.00    +0.016 C 
ENDROOT
BRANCH   1  14
ATOM     14  C   UNL     1       0.821  -0.506  -1.328  0.00  0.00    +0.086 C 
ATOM     15  C   UNL     1       0.131  -0.079  -0.032  0.00  0.00    +0.039 C 
BRANCH  14  17
ATOM     16  C   UNL     1      -0.021   1.497  -2.561  0.00  0.00    +0.006 C 
ATOM     17  C   UNL     1      -0.004  -0.032  -2.526  0.00  0.00    +0.029 C 
ENDBRANCH  14  17
BRANCH  14  18
ATOM     18  C   UNL     1       0.941  -2.008  -1.363  0.00  0.00    +0.070 C 
ATOM     19  S   UNL     1       2.383  -2.693  -1.454  0.00  0.00    -0.038 S 
BRANCH  18  20
ATOM     20  N   UNL     1      -0.168  -2.773  -1.317  0.00  0.00    -0.354 N 
ATOM     21  H   UNL     1      -1.042  -2.357  -1.262  0.00  0.00    +0.143 HD
ATOM     22  H   UNL     1      -0.091  -3.740  -1.339  0.00  0.00    +0.143 HD
ENDBRANCH  18  20
ENDBRANCH  14  18
ENDBRANCH   1  14
TORSDOF 4
