REMARK  Name = ZINC40266781
REMARK  3 active torsions:
REMARK  status: ('A' for Active; 'I' for Inactive)
REMARK    1  A    between atoms: C_1  and  C_2
REMARK    2  A    between atoms: N_9  and  C_12
REMARK    3  A    between atoms: C_12  and  C_13
REMARK                            x       y       z     vdW  Elec       q    Type
REMARK                         _______ _______ _______ _____ _____    ______ ____
ROOT
ATOM      1  C   UNL     1       0.065   1.531   0.210  0.00  0.00    +0.051 C 
ATOM      2  C   UNL     1       0.064   0.026   0.144  0.00  0.00    -0.011 A 
ATOM      3  C   UNL     1      -0.989  -0.804   0.099  0.00  0.00    +0.024 A 
ATOM      4  C   UNL     1      -0.759  -2.239   0.037  0.00  0.00    +0.046 A 
ATOM      5  C   UNL     1      -1.708  -3.309  -0.018  0.00  0.00    +0.131 A 
ATOM      6  N   UNL     1      -1.292  -4.561  -0.072  0.00  0.00    -0.178 NA
ATOM      7  C   UNL     1      -0.001  -4.887  -0.078  0.00  0.00    +0.351 A 
ATOM      8  O   UNL     1       0.325  -6.061  -0.129  0.00  0.00    -0.244 OA
ATOM      9  N   UNL     1       0.952  -3.931  -0.028  0.00  0.00    -0.282 N 
ATOM     10  C   UNL     1       0.588  -2.622   0.029  0.00  0.00    +0.095 A 
ATOM     11  S   UNL     1       1.461  -1.081   0.097  0.00  0.00    -0.075 S 
ATOM     12  N   UNL     1      -3.054  -3.034  -0.015  0.00  0.00    -0.342 N 
ATOM     13  H   UNL     1      -3.361  -2.114   0.025  0.00  0.00    +0.144 HD
ATOM     14  H   UNL     1      -3.698  -3.759  -0.052  0.00  0.00    +0.144 HD
ENDROOT
BRANCH   9  15
ATOM     15  C   UNL     1       2.369  -4.302  -0.035  0.00  0.00    +0.164 C 
BRANCH  15  16
ATOM     16  C   UNL     1       2.893  -4.311   1.378  0.00  0.00    -0.009 A 
ATOM     17  C   UNL     1       3.507  -3.186   1.895  0.00  0.00    +0.008 A 
ATOM     18  C   UNL     1       3.987  -3.193   3.190  0.00  0.00    +0.020 A 
ATOM     19  C   UNL     1       3.854  -4.327   3.971  0.00  0.00    +0.042 A 
ATOM     20  C   UNL     1       3.239  -5.454   3.455  0.00  0.00    +0.040 A 
ATOM     21  C   UNL     1       2.754  -5.444   2.160  0.00  0.00    +0.047 A 
ATOM     22 CL   UNL     1       1.977  -6.856   1.513  0.00  0.00    -0.083 Cl
ATOM     23 CL   UNL     1       4.458  -4.337   5.599  0.00  0.00    -0.083 Cl
ENDBRANCH  15  16
ENDBRANCH   9  15
TORSDOF 2
