REMARK  Name = ZINC67643124
REMARK  8 active torsions:
REMARK  status: ('A' for Active; 'I' for Inactive)
REMARK    1  A    between atoms: C_1  and  C_2
REMARK    2  A    between atoms: C_4  and  C_10
REMARK    3  A    between atoms: C_5  and  C_8
REMARK    4  A    between atoms: C_8  and  O_9
REMARK    5  A    between atoms: C_10  and  N_11
REMARK    6  A    between atoms: C_17  and  C_19
REMARK    7  A    between atoms: C_19  and  C_20
REMARK    8  A    between atoms: N_22  and  C_23
REMARK                            x       y       z     vdW  Elec       q    Type
REMARK                         _______ _______ _______ _____ _____    ______ ____
ROOT
ATOM      1  N   UNL     1      -4.548   3.917  -1.676  0.00  0.00    -0.285 NA
ATOM      2  C   UNL     1      -4.203   4.971  -2.643  0.00  0.00    +0.104 C 
ATOM      3  C   UNL     1      -4.315   6.330  -1.950  0.00  0.00    +0.119 C 
ATOM      4  N   UNL     1      -5.604   6.441  -1.271  0.00  0.00    -0.313 N 
ATOM      5  C   UNL     1      -6.364   5.380  -0.978  0.00  0.00    +0.231 C 
ATOM      6  O   UNL     1      -7.406   5.559  -0.384  0.00  0.00    -0.274 OA
ATOM      7  C   UNL     1      -5.980   3.977  -1.351  0.00  0.00    +0.152 C 
ATOM      8  H   UNL     1      -5.922   7.322  -1.022  0.00  0.00    +0.149 HD
ENDROOT
BRANCH   1   9
ATOM      9  C   UNL     1      -4.180   2.591  -2.188  0.00  0.00    +0.124 C 
BRANCH   9  13
ATOM     10  C   UNL     1       0.213   1.712   0.084  0.00  0.00    +0.067 C 
ATOM     11  C   UNL     1      -0.579   2.049  -1.153  0.00  0.00    +0.060 A 
ATOM     12  C   UNL     1      -1.960   2.154  -1.077  0.00  0.00    +0.202 A 
ATOM     13  C   UNL     1      -2.678   2.466  -2.226  0.00  0.00    +0.022 A 
ATOM     14  C   UNL     1      -1.980   2.659  -3.407  0.00  0.00    +0.002 A 
ATOM     15  C   UNL     1      -0.603   2.537  -3.404  0.00  0.00    +0.089 A 
ATOM     16  N   UNL     1       0.049   2.245  -2.296  0.00  0.00    -0.361 N 
ATOM     17  O   UNL     1      -2.602   1.956   0.105  0.00  0.00    -0.286 OA
ATOM     18  H   UNL     1       1.015   2.169  -2.323  0.00  0.00    +0.165 HD
BRANCH  14  19
ATOM     19  C   UNL     1      -2.713   2.998  -4.680  0.00  0.00    +0.193 C 
BRANCH  19  20
ATOM     20  O   UNL     1      -1.789   3.023  -5.769  0.00  0.00    -0.390 OA
ATOM     21  H   UNL     1      -2.192   3.235  -6.622  0.00  0.00    +0.210 HD
ENDBRANCH  19  20
ENDBRANCH  14  19
ENDBRANCH   9  13
ENDBRANCH   1   9
BRANCH   7  22
ATOM     22  C   UNL     1      -6.274   3.040  -0.178  0.00  0.00    +0.124 C 
BRANCH  22  23
ATOM     23  C   UNL     1      -5.408   3.418   0.996  0.00  0.00    +0.215 C 
ATOM     24  O   UNL     1      -4.688   4.392   0.929  0.00  0.00    -0.276 OA
ATOM     25  N   UNL     1      -5.433   2.674   2.119  0.00  0.00    -0.318 N 
ATOM     26  C   UNL     1      -4.591   3.042   3.260  0.00  0.00    +0.128 C 
ATOM     27  H   UNL     1      -6.009   1.895   2.173  0.00  0.00    +0.148 HD
ENDBRANCH  22  23
ENDBRANCH   7  22
TORSDOF 6
