REMARK  Name = ZINC27533529
REMARK  6 active torsions:
REMARK  status: ('A' for Active; 'I' for Inactive)
REMARK    1  A    between atoms: C_1  and  C_2
REMARK    2  A    between atoms: C_2  and  C_10
REMARK    3  A    between atoms: C_3  and  C_4
REMARK    4  A    between atoms: N_14  and  C_18
REMARK    5  A    between atoms: C_18  and  C_19
REMARK    6  A    between atoms: C_19  and  S_20
REMARK                            x       y       z     vdW  Elec       q    Type
REMARK                         _______ _______ _______ _____ _____    ______ ____
ROOT
ATOM      1  C   UNL     1       5.926   4.519  -2.097  0.00  0.00    +0.023 C 
ATOM      2  C   UNL     1       4.959   3.951  -1.319  0.00  0.00    +0.077 C 
ATOM      3  C   UNL     1       3.707   3.281  -1.716  0.00  0.00    +0.258 C 
ATOM      4  O   UNL     1       3.389   3.160  -2.885  0.00  0.00    -0.269 OA
ATOM      5  N   UNL     1       2.947   2.817  -0.739  0.00  0.00    -0.254 N 
ATOM      6  C   UNL     1       3.300   2.957   0.556  0.00  0.00    +0.121 C 
ATOM      7  S   UNL     1       2.456   2.436   1.951  0.00  0.00    -0.027 S 
ATOM      8  S   UNL     1       4.863   3.816   0.461  0.00  0.00    -0.061 S 
ENDROOT
BRANCH   1  10
ATOM      9  C   UNL     1       6.777   3.974  -4.411  0.00  0.00    +0.044 C 
ATOM     10  C   UNL     1       5.754   4.591  -3.494  0.00  0.00    -0.049 C 
ATOM     11  C   UNL     1       4.670   5.216  -4.011  0.00  0.00    +0.011 C 
BRANCH  11  12
ATOM     12  C   UNL     1       4.389   5.128  -5.452  0.00  0.00    -0.025 A 
ATOM     13  C   UNL     1       3.867   6.232  -6.135  0.00  0.00    +0.008 A 
ATOM     14  C   UNL     1       3.611   6.144  -7.487  0.00  0.00    +0.001 A 
ATOM     15  C   UNL     1       3.860   4.963  -8.166  0.00  0.00    +0.000 A 
ATOM     16  C   UNL     1       4.371   3.865  -7.496  0.00  0.00    +0.001 A 
ATOM     17  C   UNL     1       4.637   3.939  -6.146  0.00  0.00    +0.008 A 
ENDBRANCH  11  12
ENDBRANCH   1  10
BRANCH   5  18
ATOM     18  C   UNL     1       1.690   2.140  -1.068  0.00  0.00    +0.140 C 
BRANCH  18  19
ATOM     19  C   UNL     1       1.948   0.642  -1.242  0.00  0.00    +0.220 C 
BRANCH  19  20
ATOM     20  S   UNL     1       0.392  -0.196  -1.651  0.00  0.00    +0.112 S 
ATOM     21  O   UNL     1      -0.052   0.198  -2.942  0.00  0.00    -0.145 OA
ATOM     22  O   UNL     1      -0.492  -0.157  -0.538  0.00  0.00    -0.145 OA
ATOM     23  O   UNL     1       0.765  -1.664  -1.798  0.00  0.00    -0.048 OA
ENDBRANCH  19  20
ENDBRANCH  18  19
ENDBRANCH   5  18
TORSDOF 5
