REMARK  Name = ZINC02236284
REMARK  3 active torsions:
REMARK  status: ('A' for Active; 'I' for Inactive)
REMARK    1  A    between atoms: C_6  and  N_7
REMARK    2  A    between atoms: C_8  and  C_10
REMARK    3  A    between atoms: C_11  and  N_28
REMARK                            x       y       z     vdW  Elec       q    Type
REMARK                         _______ _______ _______ _____ _____    ______ ____
ROOT
ATOM      1  C   UNL     1      -1.418   7.385   0.857  0.00  0.00    +0.097 A 
ATOM      2  C   UNL     1      -1.385   6.075   1.287  0.00  0.00    +0.054 A 
ATOM      3  C   UNL     1      -1.434   5.020   0.289  0.00  0.00    +0.031 A 
ATOM      4  C   UNL     1      -1.412   3.611   0.494  0.00  0.00    -0.030 A 
ATOM      5  C   UNL     1      -1.472   2.782  -0.576  0.00  0.00    -0.005 A 
ATOM      6  C   UNL     1      -1.547   3.319  -1.872  0.00  0.00    +0.103 A 
ATOM      7  C   UNL     1      -1.512   5.463  -1.049  0.00  0.00    +0.089 A 
ATOM      8  S   UNL     1      -1.517   7.233  -0.916  0.00  0.00    -0.064 S 
ATOM      9  N   UNL     1      -1.605   2.465  -2.964  0.00  0.00    -0.312 N 
ATOM     10  C   UNL     1      -0.384   2.567  -3.776  0.00  0.00    +0.134 C 
ATOM     11  C   UNL     1      -0.463   1.568  -4.934  0.00  0.00    +0.178 C 
ATOM     12  O   UNL     1      -1.645   1.825  -5.698  0.00  0.00    -0.377 OA
ATOM     13  C   UNL     1      -2.853   1.734  -4.938  0.00  0.00    +0.178 C 
ATOM     14  C   UNL     1      -2.797   2.734  -3.780  0.00  0.00    +0.134 C 
ATOM     15  C   UNL     1      -1.462   1.281  -0.441  0.00  0.00    +0.039 C 
ATOM     16  C   UNL     1      -0.945   0.870   0.936  0.00  0.00    +0.005 C 
ATOM     17  C   UNL     1      -1.726   1.650   2.000  0.00  0.00    +0.005 C 
ATOM     18  C   UNL     1      -1.318   3.120   1.913  0.00  0.00    +0.036 C 
ATOM     19  N   UNL     1      -1.569   4.653  -2.134  0.00  0.00    -0.337 N 
ATOM     20  H   UNL     1      -1.624   5.023  -3.090  0.00  0.00    +0.168 HD
ENDROOT
BRANCH   1  22
ATOM     21  N   UNL     1      -1.424   9.771   1.034  0.00  0.00    -0.281 N 
ATOM     22  C   UNL     1      -1.382   8.566   1.636  0.00  0.00    +0.257 C 
ATOM     23  O   UNL     1      -1.314   8.493   2.850  0.00  0.00    -0.269 OA
ATOM     24  H   UNL     1      -1.554   9.830   0.075  0.00  0.00    +0.155 HD
BRANCH  21  30
ATOM     25  C   UNL     1      -1.950  12.096   1.422  0.00  0.00    +0.025 A 
ATOM     26  C   UNL     1      -1.812  13.245   2.177  0.00  0.00    +0.023 A 
ATOM     27  C   UNL     1      -0.999  13.245   3.296  0.00  0.00    +0.059 A 
ATOM     28  C   UNL     1      -0.326  12.093   3.666  0.00  0.00    +0.061 A 
ATOM     29  C   UNL     1      -0.465  10.940   2.918  0.00  0.00    +0.044 A 
ATOM     30  C   UNL     1      -1.281  10.937   1.794  0.00  0.00    +0.035 A 
ATOM     31 CL   UNL     1       0.694  12.097   5.071  0.00  0.00    -0.082 Cl
ATOM     32 CL   UNL     1      -0.823  14.693   4.238  0.00  0.00    -0.082 Cl
ENDBRANCH  21  30
ENDBRANCH   1  22
BRANCH   2  33
ATOM     33  N   UNL     1      -1.306   5.772   2.639  0.00  0.00    -0.356 N 
ATOM     34  H   UNL     1      -0.883   4.949   2.928  0.00  0.00    +0.142 HD
ATOM     35  H   UNL     1      -1.673   6.385   3.296  0.00  0.00    +0.142 HD
ENDBRANCH   2  33
TORSDOF 3
