REMARK  Name = ZINC12504388
REMARK  8 active torsions:
REMARK  status: ('A' for Active; 'I' for Inactive)
REMARK    1  A    between atoms: C_1  and  C_2
REMARK    2  A    between atoms: C_1  and  O_20
REMARK    3  A    between atoms: C_2  and  C_4
REMARK    4  A    between atoms: C_2  and  O_19
REMARK    5  A    between atoms: C_6  and  O_18
REMARK    6  A    between atoms: C_8  and  O_17
REMARK    7  A    between atoms: C_10  and  O_16
REMARK    8  A    between atoms: C_12  and  O_15
REMARK                            x       y       z     vdW  Elec       q    Type
REMARK                         _______ _______ _______ _____ _____    ______ ____
ROOT
ATOM      1  C   UNL     1      -0.013   1.086   0.008  0.00  0.00    +0.183 C 
ATOM      2  C   UNL     1      -0.752   1.593  -1.233  0.00  0.00    +0.177 C 
ATOM      3  C   UNL     1       0.005   1.145  -2.487  0.00  0.00    +0.179 C 
ATOM      4  C   UNL     1       1.444   1.665  -2.414  0.00  0.00    +0.201 C 
ATOM      5  C   UNL     1       2.098   1.155  -1.128  0.00  0.00    +0.279 C 
ATOM      6  O   UNL     1       1.328   1.581  -0.002  0.00  0.00    -0.340 OA
ENDROOT
BRANCH   5   7
ATOM      7  O   UNL     1       2.154  -0.272  -1.155  0.00  0.00    -0.365 OA
ATOM      8  H   UNL     1       2.557  -0.665  -0.369  0.00  0.00    +0.213 HD
ENDBRANCH   5   7
BRANCH   4   9
ATOM      9  O   UNL     1       2.180   1.193  -3.545  0.00  0.00    -0.384 OA
ATOM     10  H   UNL     1       3.103   1.480  -3.561  0.00  0.00    +0.210 HD
ENDBRANCH   4   9
BRANCH   3  11
ATOM     11  O   UNL     1       0.015  -0.282  -2.555  0.00  0.00    -0.386 OA
ATOM     12  H   UNL     1       0.485  -0.636  -3.323  0.00  0.00    +0.210 HD
ENDBRANCH   3  11
BRANCH   2  13
ATOM     13  O   UNL     1      -0.818   3.020  -1.199  0.00  0.00    -0.386 OA
ATOM     14  H   UNL     1      -1.274   3.411  -1.957  0.00  0.00    +0.210 HD
ENDBRANCH   2  13
BRANCH   1  15
ATOM     15  C   UNL     1      -0.729   1.579   1.266  0.00  0.00    +0.171 C 
BRANCH  15  16
ATOM     16  O   UNL     1      -0.852   3.002   1.218  0.00  0.00    -0.387 OA
ATOM     17  H   UNL     1      -0.006   3.468   1.170  0.00  0.00    +0.210 HD
ENDBRANCH  15  16
BRANCH  15  18
ATOM     18  C   UNL     1       0.078   1.179   2.503  0.00  0.00    +0.189 C 
BRANCH  18  19
ATOM     19  O   UNL     1      -0.647   1.537   3.681  0.00  0.00    -0.392 OA
ATOM     20  H   UNL     1      -0.194   1.312   4.505  0.00  0.00    +0.210 HD
ENDBRANCH  18  19
ENDBRANCH  15  18
ENDBRANCH   1  15
TORSDOF 8
