REMARK  Name = ZINC42612241
REMARK  7 active torsions:
REMARK  status: ('A' for Active; 'I' for Inactive)
REMARK    1  A    between atoms: C_1  and  C_2
REMARK    2  A    between atoms: C_2  and  C_3
REMARK    3  A    between atoms: C_2  and  N_4
REMARK    4  A    between atoms: C_5  and  C_7
REMARK    5  A    between atoms: C_7  and  N_8
REMARK    6  A    between atoms: N_8  and  C_9
REMARK    7  A    between atoms: C_17  and  C_19
REMARK                            x       y       z     vdW  Elec       q    Type
REMARK                         _______ _______ _______ _____ _____    ______ ____
ROOT
ATOM      1  N   UNL     1      -3.636  -3.346  -0.973  0.00  0.00    -0.280 N 
ATOM      2  C   UNL     1      -2.704  -4.204  -0.237  0.00  0.00    +0.134 C 
ATOM      3  C   UNL     1      -4.085  -3.724  -2.186  0.00  0.00    +0.306 C 
ATOM      4  O   UNL     1      -4.549  -2.897  -2.947  0.00  0.00    -0.252 OA
ATOM      5  N   UNL     1      -4.020  -5.019  -2.555  0.00  0.00    -0.272 N 
ATOM      6  C   UNL     1      -4.061  -6.088  -1.548  0.00  0.00    +0.110 C 
ATOM      7  C   UNL     1      -2.849  -7.002  -1.750  0.00  0.00    +0.019 C 
ATOM      8  C   UNL     1      -2.826  -7.502  -3.196  0.00  0.00    +0.004 C 
ATOM      9  C   UNL     1      -2.696  -6.310  -4.147  0.00  0.00    +0.034 C 
ATOM     10  C   UNL     1      -3.912  -5.388  -3.974  0.00  0.00    +0.190 C 
ENDROOT
BRANCH  10  11
ATOM     11  C   UNL     1      -3.730  -4.146  -4.807  0.00  0.00    +0.376 C 
ATOM     12  O   UNL     1      -2.994  -3.254  -4.419  0.00  0.00    -0.244 OA
ATOM     13  O   UNL     1      -4.319  -4.032  -5.868  0.00  0.00    -0.244 OA
ENDBRANCH  10  11
BRANCH   1  14
ATOM     14  C   UNL     1      -4.080  -2.078  -0.390  0.00  0.00    +0.204 C 
BRANCH  14  16
ATOM     15  N   UNL     1      -3.347   0.285  -0.382  0.00  0.00    -0.312 N 
ATOM     16  C   UNL     1      -3.136  -0.978  -0.803  0.00  0.00    +0.231 C 
ATOM     17  O   UNL     1      -2.186  -1.229  -1.514  0.00  0.00    -0.274 OA
ATOM     18  H   UNL     1      -4.107   0.486   0.187  0.00  0.00    +0.149 HD
BRANCH  15  20
ATOM     19  C   UNL     1      -3.161   2.698  -0.739  0.00  0.00    +0.027 C 
ATOM     20  C   UNL     1      -2.430   1.355  -0.784  0.00  0.00    +0.067 C 
ATOM     21  C   UNL     1      -1.238   1.391   0.175  0.00  0.00    +0.027 C 
ENDBRANCH  15  20
ENDBRANCH  14  16
ENDBRANCH   1  14
TORSDOF 4
