REMARK  Name = ZINC39272180
REMARK  3 active torsions:
REMARK  status: ('A' for Active; 'I' for Inactive)
REMARK    1  A    between atoms: C_6  and  N_7
REMARK    2  A    between atoms: N_7  and  C_8
REMARK    3  A    between atoms: C_16  and  N_18
REMARK                            x       y       z     vdW  Elec       q    Type
REMARK                         _______ _______ _______ _____ _____    ______ ____
ROOT
ATOM      1  C   UNL     1      -1.180  -2.180  -0.109  0.00  0.00    +0.245 C 
ATOM      2  C   UNL     1      -2.168  -2.746   0.881  0.00  0.00    +0.127 C 
ATOM      3  N   UNL     1      -2.354  -2.709   2.161  0.00  0.00    -0.233 NA
ATOM      4  C   UNL     1      -3.444  -3.436   2.475  0.00  0.00    +0.224 C 
ATOM      5  N   UNL     1      -3.994  -3.963   1.410  0.00  0.00    -0.217 NA
ATOM      6  C   UNL     1      -3.264  -3.590   0.326  0.00  0.00    +0.160 C 
ATOM      7  N   UNL     1      -3.316  -3.796  -0.959  0.00  0.00    -0.310 N 
ATOM      8  C   UNL     1      -2.427  -3.285  -1.838  0.00  0.00    +0.209 C 
ATOM      9  N   UNL     1      -1.421  -2.532  -1.522  0.00  0.00    -0.224 NA
ATOM     10  H   UNL     1      -4.035  -4.347  -1.305  0.00  0.00    +0.170 HD
ENDROOT
BRANCH   1  11
ATOM     11  N   UNL     1      -1.198  -0.720   0.010  0.00  0.00    -0.318 N 
ATOM     12  H   UNL     1      -2.042  -0.243   0.002  0.00  0.00    +0.148 HD
BRANCH  11  18
ATOM     13  C   UNL     1       1.215  -0.672  -0.022  0.00  0.00    +0.024 A 
ATOM     14  C   UNL     1       2.400   0.027   0.101  0.00  0.00    +0.023 A 
ATOM     15  C   UNL     1       2.380   1.381   0.382  0.00  0.00    +0.059 A 
ATOM     16  C   UNL     1       1.171   2.040   0.539  0.00  0.00    +0.061 A 
ATOM     17  C   UNL     1      -0.017   1.345   0.416  0.00  0.00    +0.044 A 
ATOM     18  C   UNL     1       0.002  -0.015   0.135  0.00  0.00    +0.030 A 
ATOM     19 CL   UNL     1       1.149   3.740   0.892  0.00  0.00    -0.082 Cl
ATOM     20 CL   UNL     1       3.871   2.257   0.538  0.00  0.00    -0.082 Cl
ENDBRANCH  11  18
ENDBRANCH   1  11
BRANCH   8  21
ATOM     21  N   UNL     1      -2.606  -3.587  -3.174  0.00  0.00    -0.234 NA
ATOM     22  H   UNL     1      -1.988  -3.240  -3.837  0.00  0.00    +0.173 HD
ENDBRANCH   8  21
TORSDOF 3
