REMARK  Name = ZINC52298716
REMARK  5 active torsions:
REMARK  status: ('A' for Active; 'I' for Inactive)
REMARK    1  A    between atoms: C_1  and  C_2
REMARK    2  A    between atoms: C_5  and  N_7
REMARK    3  A    between atoms: C_8  and  C_12
REMARK    4  A    between atoms: C_15  and  N_19
REMARK    5  A    between atoms: C_17  and  N_18
REMARK                            x       y       z     vdW  Elec       q    Type
REMARK                         _______ _______ _______ _____ _____    ______ ____
ROOT
ATOM      1  C   UNL     1      -0.150  -0.521   4.180  0.00  0.00    +0.041 A 
ATOM      2  C   UNL     1      -1.360  -0.730   3.517  0.00  0.00    +0.015 A 
ATOM      3  C   UNL     1      -2.369  -1.437   4.132  0.00  0.00    +0.023 A 
ATOM      4  C   UNL     1      -2.188  -1.945   5.415  0.00  0.00    +0.026 A 
ATOM      5  C   UNL     1      -0.988  -1.742   6.084  0.00  0.00    +0.046 A 
ATOM      6  C   UNL     1       0.036  -1.037   5.471  0.00  0.00    +0.037 A 
ENDROOT
BRANCH   1   8
ATOM      7  N   UNL     1       1.392   0.059   2.250  0.00  0.00    -0.222 N 
ATOM      8  C   UNL     1       0.934   0.236   3.521  0.00  0.00    +0.184 A 
ATOM      9  N   UNL     1       1.643   1.213   4.051  0.00  0.00    -0.108 NA
ATOM     10  N   UNL     1       2.504   1.653   3.206  0.00  0.00    -0.023 NA
ATOM     11  N   UNL     1       2.421   1.005   2.096  0.00  0.00    -0.043 NA
BRANCH   7  15
ATOM     12  C   UNL     1       0.109   1.155  -0.125  0.00  0.00    +0.010 C 
ATOM     13  C   UNL     1       0.240  -0.364   0.003  0.00  0.00    +0.013 C 
ATOM     14  C   UNL     1       1.646  -0.962  -0.085  0.00  0.00    +0.032 C 
ATOM     15  C   UNL     1       0.918  -0.911   1.261  0.00  0.00    +0.114 C 
ENDBRANCH   7  15
ENDBRANCH   1   8
BRANCH   6  16
ATOM     16  N   UNL     1       1.243  -0.837   6.136  0.00  0.00    -0.357 N 
ATOM     17  H   UNL     1       1.932  -0.284   5.735  0.00  0.00    +0.142 HD
ATOM     18  H   UNL     1       1.394  -1.249   7.001  0.00  0.00    +0.142 HD
ENDBRANCH   6  16
BRANCH   4  19
ATOM     19  N   UNL     1      -3.214  -2.659   6.032  0.00  0.00    -0.358 N 
ATOM     20  H   UNL     1      -4.053  -2.801   5.567  0.00  0.00    +0.142 HD
ATOM     21  H   UNL     1      -3.089  -3.013   6.926  0.00  0.00    +0.142 HD
ENDBRANCH   4  19
TORSDOF 4
