REMARK  Name = ZINC38614016
REMARK  5 active torsions:
REMARK  status: ('A' for Active; 'I' for Inactive)
REMARK    1  A    between atoms: C_1  and  O_2
REMARK    2  A    between atoms: O_2  and  C_3
REMARK    3  A    between atoms: C_3  and  C_5
REMARK    4  A    between atoms: C_7  and  N_16
REMARK    5  A    between atoms: C_17  and  C_19
REMARK                            x       y       z     vdW  Elec       q    Type
REMARK                         _______ _______ _______ _____ _____    ______ ____
ROOT
ATOM      1  C   UNL     1       2.666  -3.444  -1.196  0.00  0.00    +0.234 C 
ATOM      2  C   UNL     1       1.690  -2.668  -0.339  0.00  0.00    +0.053 C 
ATOM      3  C   UNL     1       0.748  -2.155  -1.213  0.00  0.00    +0.019 A 
ATOM      4  C   UNL     1      -0.402  -1.352  -1.015  0.00  0.00    +0.031 A 
ATOM      5  C   UNL     1      -1.159  -0.989  -2.080  0.00  0.00    +0.042 A 
ATOM      6  C   UNL     1      -0.835  -1.388  -3.380  0.00  0.00    +0.022 A 
ATOM      7  C   UNL     1       0.250  -2.156  -3.643  0.00  0.00    +0.027 A 
ATOM      8  C   UNL     1       1.093  -2.576  -2.582  0.00  0.00    +0.045 A 
ATOM      9  N   UNL     1       2.188  -3.312  -2.575  0.00  0.00    -0.367 N 
ATOM     10 CL   UNL     1      -2.567  -0.006  -1.822  0.00  0.00    -0.084 Cl
ATOM     11  H   UNL     1       2.608  -3.703  -3.357  0.00  0.00    +0.161 HD
ENDROOT
BRANCH   2  12
ATOM     12  N   UNL     1       1.731  -2.508   1.014  0.00  0.00    -0.286 N 
ATOM     13  C   UNL     1       2.806  -2.927   1.710  0.00  0.00    +0.223 C 
ATOM     14  O   UNL     1       3.781  -3.348   1.125  0.00  0.00    -0.275 OA
ATOM     15  H   UNL     1       0.985  -2.093   1.476  0.00  0.00    +0.155 HD
BRANCH  13  16
ATOM     16  C   UNL     1       2.797  -2.871   3.216  0.00  0.00    +0.049 C 
ATOM     17  C   UNL     1       1.652  -3.733   3.752  0.00  0.00    +0.019 C 
ATOM     18  C   UNL     1       1.642  -3.676   5.280  0.00  0.00    -0.008 C 
ATOM     19  C   UNL     1       2.973  -4.205   5.819  0.00  0.00    +0.007 C 
ATOM     20  C   UNL     1       4.119  -3.343   5.283  0.00  0.00    -0.008 C 
ATOM     21  C   UNL     1       4.128  -3.400   3.754  0.00  0.00    +0.019 C 
ATOM     22  C   UNL     1       3.924  -1.896   5.739  0.00  0.00    +0.021 C 
ATOM     23  C   UNL     1       2.593  -1.367   5.201  0.00  0.00    +0.028 C 
ATOM     24  C   UNL     1       1.448  -2.228   5.736  0.00  0.00    +0.021 C 
ATOM     25  C   UNL     1       2.602  -1.423   3.672  0.00  0.00    +0.034 C 
ATOM     26 BR   UNL     1       2.342   0.493   5.786  0.00  0.00    -0.084 Br
ENDBRANCH  13  16
ENDBRANCH   2  12
BRANCH   1  27
ATOM     27  C   UNL     1       2.676  -4.894  -0.786  0.00  0.00    +0.335 C 
ATOM     28  O   UNL     1       1.954  -5.685  -1.345  0.00  0.00    -0.248 OA
BRANCH  27  30
ATOM     29  C   UNL     1       3.446  -6.696   0.535  0.00  0.00    +0.280 C 
ATOM     30  O   UNL     1       3.489  -5.308   0.199  0.00  0.00    -0.466 OA
ENDBRANCH  27  30
ENDBRANCH   1  27
TORSDOF 4
