REMARK  Name = ZINC38740762
REMARK  8 active torsions:
REMARK  status: ('A' for Active; 'I' for Inactive)
REMARK    1  A    between atoms: C_1  and  C_2
REMARK    2  A    between atoms: C_2  and  C_4
REMARK    3  A    between atoms: C_2  and  N_18
REMARK    4  A    between atoms: C_4  and  C_5
REMARK    5  A    between atoms: C_4  and  C_11
REMARK    6  A    between atoms: C_4  and  O_17
REMARK    7  A    between atoms: C_19  and  C_21
REMARK    8  A    between atoms: C_27  and  C_29
REMARK                            x       y       z     vdW  Elec       q    Type
REMARK                         _______ _______ _______ _____ _____    ______ ____
ROOT
ATOM      1  N   UNL     1      -0.027   0.700   2.100  0.00  0.00    -0.309 N 
ATOM      2  C   UNL     1       0.049  -0.624   2.342  0.00  0.00    +0.217 C 
ATOM      3  O   UNL     1      -0.482  -1.410   1.587  0.00  0.00    -0.275 OA
ATOM      4  H   UNL     1       0.397   1.329   2.704  0.00  0.00    +0.149 HD
ENDROOT
BRANCH   2   5
ATOM      5  C   UNL     1       0.793  -1.126   3.552  0.00  0.00    +0.091 C 
ATOM      6  C   UNL     1       1.256  -2.565   3.311  0.00  0.00    +0.040 C 
ATOM      7  C   UNL     1       0.077  -3.493   3.308  0.00  0.00    -0.030 C 
ATOM      8  C   UNL     1      -1.085  -3.191   3.790  0.00  0.00    -0.030 C 
ATOM      9  C   UNL     1      -1.420  -1.866   4.410  0.00  0.00    +0.040 C 
ATOM     10  C   UNL     1      -0.135  -1.109   4.773  0.00  0.00    +0.091 C 
BRANCH  10  11
ATOM     11  C   UNL     1      -0.463   0.315   5.140  0.00  0.00    +0.220 C 
ATOM     12  O   UNL     1      -1.479   0.831   4.723  0.00  0.00    -0.275 OA
ATOM     13  N   UNL     1       0.372   1.016   5.933  0.00  0.00    -0.298 N 
ATOM     14  C   UNL     1       1.663   0.449   6.346  0.00  0.00    +0.126 C 
ATOM     15  C   UNL     1       2.777   1.424   5.946  0.00  0.00    +0.125 C 
ATOM     16  N   UNL     1       2.413   2.770   6.412  0.00  0.00    -0.314 N 
ATOM     17  C   UNL     1       1.122   3.337   5.998  0.00  0.00    +0.125 C 
ATOM     18  C   UNL     1       0.010   2.364   6.393  0.00  0.00    +0.126 C 
ATOM     19  C   UNL     1       3.274   3.493   7.229  0.00  0.00    +0.099 A 
ATOM     20  C   UNL     1       4.434   2.894   7.709  0.00  0.00    +0.042 A 
ATOM     21  C   UNL     1       5.282   3.625   8.521  0.00  0.00    +0.005 A 
ATOM     22  C   UNL     1       4.940   4.936   8.827  0.00  0.00    +0.018 A 
ATOM     23  C   UNL     1       3.773   5.467   8.316  0.00  0.00    +0.084 A 
ATOM     24  N   UNL     1       2.986   4.747   7.539  0.00  0.00    -0.350 N 
ATOM     25  H   UNL     1       2.173   5.146   7.189  0.00  0.00    +0.166 HD
ENDBRANCH  10  11
ENDBRANCH   2   5
BRANCH   1  27
ATOM     26  C   UNL     1      -2.239   1.313   1.256  0.00  0.00    +0.031 C 
ATOM     27  C   UNL     1      -0.751   1.189   0.924  0.00  0.00    +0.110 C 
BRANCH  27  28
ATOM     28  C   UNL     1      -0.202   2.559   0.520  0.00  0.00    +0.134 C 
BRANCH  28  29
ATOM     29  C   UNL     1       1.264   2.437   0.193  0.00  0.00    -0.010 A 
ATOM     30  C   UNL     1       1.760   1.255  -0.323  0.00  0.00    +0.007 A 
ATOM     31  C   UNL     1       3.105   1.143  -0.623  0.00  0.00    +0.000 A 
ATOM     32  C   UNL     1       3.953   2.213  -0.407  0.00  0.00    +0.000 A 
ATOM     33  C   UNL     1       3.456   3.395   0.108  0.00  0.00    +0.000 A 
ATOM     34  C   UNL     1       2.111   3.509   0.405  0.00  0.00    +0.007 A 
ENDBRANCH  28  29
BRANCH  28  35
ATOM     35  C   UNL     1      -0.947   3.062  -0.689  0.00  0.00    -0.010 A 
ATOM     36  C   UNL     1      -1.468   2.165  -1.603  0.00  0.00    +0.007 A 
ATOM     37  C   UNL     1      -2.151   2.626  -2.712  0.00  0.00    +0.000 A 
ATOM     38  C   UNL     1      -2.313   3.985  -2.909  0.00  0.00    +0.000 A 
ATOM     39  C   UNL     1      -1.793   4.882  -1.995  0.00  0.00    +0.000 A 
ATOM     40  C   UNL     1      -1.114   4.421  -0.883  0.00  0.00    +0.007 A 
ENDBRANCH  28  35
BRANCH  28  41
ATOM     41  O   UNL     1      -0.374   3.478   1.601  0.00  0.00    -0.377 OA
ATOM     42  H   UNL     1       0.079   3.217   2.415  0.00  0.00    +0.211 HD
ENDBRANCH  28  41
ENDBRANCH  27  28
ENDBRANCH   1  27
TORSDOF 7
