REMARK  Name = ZINC42139260
REMARK  4 active torsions:
REMARK  status: ('A' for Active; 'I' for Inactive)
REMARK    1  A    between atoms: C_1  and  C_2
REMARK    2  A    between atoms: C_2  and  C_3
REMARK    3  A    between atoms: C_11  and  C_17
REMARK    4  A    between atoms: C_13  and  N_16
REMARK                            x       y       z     vdW  Elec       q    Type
REMARK                         _______ _______ _______ _____ _____    ______ ____
ROOT
ATOM      1  C   UNL     1       0.735  -0.497  -1.218  0.00  0.00    +0.006 C 
ATOM      2  C   UNL     1      -0.085  -0.094  -2.446  0.00  0.00    +0.006 C 
ATOM      3  C   UNL     1       0.634  -0.556  -3.716  0.00  0.00    +0.019 C 
ATOM      4  C   UNL     1       0.761  -2.083  -3.699  0.00  0.00    +0.106 C 
ATOM      5  N   UNL     1       1.420  -2.489  -2.450  0.00  0.00    -0.314 N 
ATOM      6  C   UNL     1       0.864  -2.023  -1.173  0.00  0.00    +0.110 C 
ATOM      7  C   UNL     1       2.546  -3.296  -2.477  0.00  0.00    +0.134 A 
ATOM      8  C   UNL     1       2.410  -4.688  -2.343  0.00  0.00    +0.078 A 
ATOM      9  C   UNL     1       3.559  -5.485  -2.373  0.00  0.00    +0.040 A 
ATOM     10  C   UNL     1       4.790  -4.861  -2.533  0.00  0.00    +0.044 A 
ATOM     11  C   UNL     1       4.841  -3.478  -2.659  0.00  0.00    +0.135 A 
ATOM     12  N   UNL     1       3.742  -2.750  -2.634  0.00  0.00    -0.238 NA
ENDROOT
BRANCH   8  13
ATOM     13  C   UNL     1       1.078  -5.298  -2.174  0.00  0.00    +0.245 C 
ATOM     14  O   UNL     1       0.079  -4.608  -2.252  0.00  0.00    -0.270 OA
ATOM     15  N   UNL     1       0.968  -6.619  -1.933  0.00  0.00    -0.325 N 
ATOM     16  H   UNL     1       1.764  -7.169  -1.871  0.00  0.00    +0.145 HD
ATOM     17  H   UNL     1       0.092  -7.020  -1.822  0.00  0.00    +0.145 HD
ENDBRANCH   8  13
BRANCH  10  18
ATOM     18  N   UNL     1       5.968  -5.618  -2.568  0.00  0.00    -0.357 N 
ATOM     19  H   UNL     1       5.927  -6.583  -2.480  0.00  0.00    +0.142 HD
ATOM     20  H   UNL     1       6.824  -5.177  -2.681  0.00  0.00    +0.142 HD
ENDBRANCH  10  18
BRANCH   1  22
ATOM     21  C   UNL     1       0.013   1.524   0.061  0.00  0.00    +0.004 C 
ATOM     22  C   UNL     1       0.032  -0.006   0.049  0.00  0.00    +0.002 C 
ENDBRANCH   1  22
TORSDOF 3
