REMARK  Name = ZINC22575147
REMARK  7 active torsions:
REMARK  status: ('A' for Active; 'I' for Inactive)
REMARK    1  A    between atoms: C_1  and  C_2
REMARK    2  A    between atoms: C_2  and  C_3
REMARK    3  A    between atoms: C_2  and  C_4
REMARK    4  A    between atoms: C_4  and  C_6
REMARK    5  A    between atoms: C_4  and  S_12
REMARK    6  A    between atoms: S_12  and  C_13
REMARK    7  A    between atoms: N_22  and  C_23
REMARK                            x       y       z     vdW  Elec       q    Type
REMARK                         _______ _______ _______ _____ _____    ______ ____
ROOT
ATOM      1  C   UNL     1       0.104  -1.057   3.991  0.00  0.00    +0.143 C 
ENDROOT
BRANCH   1   2
ATOM      2  C   UNL     1      -0.169  -0.555   5.385  0.00  0.00    +0.234 C 
ATOM      3  O   UNL     1      -0.008   0.617   5.650  0.00  0.00    -0.274 OA
ATOM      4  N   UNL     1      -0.592  -1.409   6.338  0.00  0.00    -0.239 N 
ATOM      5  C   UNL     1      -0.836  -0.960   7.585  0.00  0.00    +0.303 C 
ATOM      6  O   UNL     1      -0.675   0.215   7.851  0.00  0.00    -0.253 OA
ATOM      7  N   UNL     1      -1.260  -1.814   8.538  0.00  0.00    -0.313 N 
ATOM      8  H   UNL     1      -0.738  -2.473   6.098  0.00  0.00    +0.159 HD
ATOM      9  H   UNL     1      -1.459  -1.448   9.556  0.00  0.00    +0.146 HD
ATOM     10  H   UNL     1      -1.405  -2.878   8.298  0.00  0.00    +0.146 HD
ENDBRANCH   1   2
BRANCH   1  12
ATOM     11  C   UNL     1       1.518  -2.879   4.954  0.00  0.00    +0.009 C 
ATOM     12  C   UNL     1       1.480  -1.725   3.950  0.00  0.00    +0.005 C 
ATOM     13  C   UNL     1       1.744  -2.264   2.542  0.00  0.00    +0.009 C 
ENDBRANCH   1  12
BRANCH   1  14
ATOM     14  S   UNL     1       0.073   0.333   2.832  0.00  0.00    -0.075 S 
BRANCH  14  15
ATOM     15  C   UNL     1      -1.638   0.747   2.897  0.00  0.00    +0.173 A 
ATOM     16  N   UNL     1      -2.463  -0.007   3.593  0.00  0.00    -0.216 NA
ATOM     17  C   UNL     1      -3.758   0.280   3.660  0.00  0.00    +0.116 A 
ATOM     18  C   UNL     1      -4.311   1.393   2.999  0.00  0.00    +0.072 A 
ATOM     19  C   UNL     1      -5.742   1.563   3.178  0.00  0.00    +0.023 A 
ATOM     20  C   UNL     1      -6.417   0.682   3.932  0.00  0.00    +0.048 A 
ATOM     21  S   UNL     1      -5.156  -0.459   4.465  0.00  0.00    -0.077 S 
ATOM     22  C   UNL     1      -3.389   2.196   2.256  0.00  0.00    +0.263 A 
ATOM     23  O   UNL     1      -3.777   3.183   1.654  0.00  0.00    -0.267 OA
ATOM     24  N   UNL     1      -2.091   1.846   2.225  0.00  0.00    -0.290 N 
ATOM     25  C   UNL     1      -1.144   2.662   1.462  0.00  0.00    +0.154 C 
ENDBRANCH  14  15
ENDBRANCH   1  14
TORSDOF 4
