REMARK  Name = ZINC15049767
REMARK  6 active torsions:
REMARK  status: ('A' for Active; 'I' for Inactive)
REMARK    1  A    between atoms: C_3  and  O_27
REMARK    2  A    between atoms: C_6  and  N_7
REMARK    3  A    between atoms: C_8  and  C_10
REMARK    4  A    between atoms: C_10  and  N_11
REMARK    5  A    between atoms: C_15  and  C_16
REMARK    6  A    between atoms: C_21  and  O_22
REMARK                            x       y       z     vdW  Elec       q    Type
REMARK                         _______ _______ _______ _____ _____    ______ ____
ROOT
ATOM      1  N   UNL     1      -0.647   3.448  -0.228  0.00  0.00    -0.219 N 
ATOM      2  C   UNL     1      -0.691   4.186  -1.325  0.00  0.00    +0.261 C 
ATOM      3  O   UNL     1      -0.848   3.689  -2.424  0.00  0.00    -0.269 OA
ATOM      4  C   UNL     1      -0.539   5.644  -1.147  0.00  0.00    +0.080 C 
ATOM      5  C   UNL     1      -0.543   6.634  -2.076  0.00  0.00    +0.032 C 
ATOM      6  S   UNL     1      -0.349   5.747   0.627  0.00  0.00    -0.026 S 
ATOM      7  C   UNL     1      -0.478   4.003   0.989  0.00  0.00    +0.286 C 
ATOM      8  O   UNL     1      -0.424   3.450   2.071  0.00  0.00    -0.262 OA
ENDROOT
BRANCH   5   9
ATOM      9  C   UNL     1      -0.164   8.000  -1.695  0.00  0.00    +0.019 A 
ATOM     10  C   UNL     1       0.558   8.228  -0.517  0.00  0.00    +0.026 A 
ATOM     11  C   UNL     1       0.911   9.513  -0.166  0.00  0.00    +0.019 A 
ATOM     12  C   UNL     1       0.553  10.582  -0.973  0.00  0.00    +0.019 A 
ATOM     13  C   UNL     1      -0.160  10.371  -2.138  0.00  0.00    +0.047 A 
ATOM     14  C   UNL     1      -0.518   9.086  -2.512  0.00  0.00    +0.124 A 
ATOM     15 BR   UNL     1       1.886   9.821   1.425  0.00  0.00    -0.050 Br
BRANCH  14  16
ATOM     16  O   UNL     1      -1.213   8.878  -3.659  0.00  0.00    -0.506 OA
ATOM     17  H   UNL     1      -2.173   8.904  -3.547  0.00  0.00    +0.292 HD
ENDBRANCH  14  16
ENDBRANCH   5   9
BRANCH   1  18
ATOM     18  C   UNL     1      -0.792   1.994  -0.338  0.00  0.00    +0.213 C 
BRANCH  18  20
ATOM     19  N   UNL     1       0.679   0.029  -0.643  0.00  0.00    -0.284 N 
ATOM     20  C   UNL     1       0.566   1.367  -0.519  0.00  0.00    +0.235 C 
ATOM     21  O   UNL     1       1.557   2.065  -0.558  0.00  0.00    -0.274 OA
ATOM     22  H   UNL     1      -0.103  -0.535  -0.539  0.00  0.00    +0.155 HD
BRANCH  19  28
ATOM     23  C   UNL     1       2.006  -1.668  -1.736  0.00  0.00    +0.027 A 
ATOM     24  C   UNL     1       3.236  -2.231  -2.015  0.00  0.00    +0.047 A 
ATOM     25  C   UNL     1       4.390  -1.681  -1.474  0.00  0.00    +0.117 A 
ATOM     26  C   UNL     1       4.309  -0.563  -0.657  0.00  0.00    +0.047 A 
ATOM     27  C   UNL     1       3.080   0.004  -0.381  0.00  0.00    +0.027 A 
ATOM     28  C   UNL     1       1.926  -0.545  -0.922  0.00  0.00    +0.034 A 
BRANCH  25  29
ATOM     29  O   UNL     1       5.600  -2.239  -1.745  0.00  0.00    -0.507 OA
ATOM     30  H   UNL     1       5.867  -2.924  -1.116  0.00  0.00    +0.292 HD
ENDBRANCH  25  29
ENDBRANCH  19  28
ENDBRANCH  18  20
ENDBRANCH   1  18
TORSDOF 6
