REMARK  Name = ZINC40466450
REMARK  8 active torsions:
REMARK  status: ('A' for Active; 'I' for Inactive)
REMARK    1  A    between atoms: C_1  and  C_2
REMARK    2  A    between atoms: C_16  and  C_40
REMARK    3  A    between atoms: C_21  and  C_22
REMARK    4  A    between atoms: C_21  and  O_39
REMARK    5  A    between atoms: C_22  and  C_24
REMARK    6  A    between atoms: C_24  and  N_25
REMARK    7  A    between atoms: N_28  and  C_31
REMARK    8  A    between atoms: C_31  and  C_32
REMARK                            x       y       z     vdW  Elec       q    Type
REMARK                         _______ _______ _______ _____ _____    ______ ____
ROOT
ATOM      1  C   UNL     1       0.357   1.867   0.042  0.00  0.00    +0.020 C 
ATOM      2  C   UNL     1       0.216   0.344   0.045  0.00  0.00    +0.011 C 
ATOM      3  C   UNL     1      -1.260   0.001  -0.042  0.00  0.00    +0.023 C 
ATOM      4  C   UNL     1      -1.953   0.204   1.307  0.00  0.00    +0.080 C 
ATOM      5  C   UNL     1      -1.253  -0.681   2.318  0.00  0.00    +0.156 C 
ATOM      6  O   UNL     1      -1.878  -1.388   3.080  0.00  0.00    -0.293 OA
ATOM      7  C   UNL     1       0.213  -0.645   2.334  0.00  0.00    +0.046 C 
ATOM      8  C   UNL     1       0.886  -0.189   1.276  0.00  0.00    -0.056 C 
ATOM      9  C   UNL     1       2.402  -0.188   1.324  0.00  0.00    +0.032 C 
ATOM     10  C   UNL     1       2.929  -0.924   0.091  0.00  0.00    +0.012 C 
ATOM     11  C   UNL     1       2.433  -0.229  -1.181  0.00  0.00    +0.020 C 
ATOM     12  C   UNL     1       0.923  -0.203  -1.183  0.00  0.00    -0.060 C 
ATOM     13  C   UNL     1       0.183  -0.620  -2.172  0.00  0.00    -0.026 C 
ATOM     14  C   UNL     1       0.741  -1.150  -3.473  0.00  0.00    +0.037 C 
ATOM     15  C   UNL     1       2.122  -0.531  -3.632  0.00  0.00    +0.010 C 
ATOM     16  C   UNL     1       2.934  -0.980  -2.393  0.00  0.00    +0.006 C 
ATOM     17  C   UNL     1       4.368  -0.656  -2.829  0.00  0.00    +0.008 C 
ATOM     18  C   UNL     1       4.393  -1.105  -4.314  0.00  0.00    +0.043 C 
ATOM     19  C   UNL     1       2.943  -1.061  -4.806  0.00  0.00    +0.131 C 
ATOM     20  C   UNL     1       2.015   0.994  -3.703  0.00  0.00    +0.015 C 
ENDROOT
BRANCH  19  21
ATOM     21  C   UNL     1       2.810  -0.140  -5.992  0.00  0.00    +0.179 C 
ATOM     22  O   UNL     1       3.606   0.753  -6.155  0.00  0.00    -0.293 OA
BRANCH  21  23
ATOM     23  C   UNL     1       1.685  -0.335  -6.975  0.00  0.00    +0.161 C 
BRANCH  23  24
ATOM     24  N   UNL     1       1.776   0.682  -8.031  0.00  0.00    -0.299 NA
ATOM     25  C   UNL     1       1.532   2.027  -7.490  0.00  0.00    +0.066 C 
ATOM     26  C   UNL     1       1.694   3.060  -8.608  0.00  0.00    -0.063 C 
ATOM     27  N   UNL     1       0.742   2.767  -9.687  0.00  0.00    +0.385 N 
ATOM     28  C   UNL     1       1.013   1.431 -10.233  0.00  0.00    -0.063 C 
ATOM     29  C   UNL     1       0.845   0.385  -9.130  0.00  0.00    +0.066 C 
ATOM     30  H   UNL     1      -0.199   2.797  -9.322  0.00  0.00    -0.081 HD
BRANCH  27  31
ATOM     31  C   UNL     1       0.885   3.770 -10.751  0.00  0.00    -0.021 C 
BRANCH  31  32
ATOM     32  C   UNL     1      -0.173   3.544 -11.800  0.00  0.00    +0.046 A 
ATOM     33  C   UNL     1      -1.463   4.004 -11.584  0.00  0.00    +0.196 A 
ATOM     34  C   UNL     1      -2.430   3.789 -12.561  0.00  0.00    +0.054 A 
ATOM     35  C   UNL     1      -2.061   3.120 -13.717  0.00  0.00    +0.021 A 
ATOM     36  C   UNL     1      -0.754   2.691 -13.860  0.00  0.00    +0.083 A 
ATOM     37  N   UNL     1       0.139   2.915 -12.916  0.00  0.00    -0.363 N 
ATOM     38  O   UNL     1      -1.779   4.656 -10.434  0.00  0.00    -0.286 OA
ATOM     39  H   UNL     1       1.050   2.607 -13.046  0.00  0.00    +0.165 HD
ENDBRANCH  31  32
ENDBRANCH  27  31
ENDBRANCH  23  24
ENDBRANCH  21  23
ENDBRANCH  19  21
BRANCH  19  40
ATOM     40  O   UNL     1       2.516  -2.380  -5.153  0.00  0.00    -0.380 OA
ATOM     41  H   UNL     1       3.002  -2.768  -5.893  0.00  0.00    +0.211 HD
ENDBRANCH  19  40
TORSDOF 6
