REMARK  Name = ZINC49024260
REMARK  5 active torsions:
REMARK  status: ('A' for Active; 'I' for Inactive)
REMARK    1  A    between atoms: C_3  and  C_6
REMARK    2  A    between atoms: C_6  and  N_7
REMARK    3  A    between atoms: N_7  and  C_18
REMARK    4  A    between atoms: C_10  and  C_14
REMARK    5  A    between atoms: N_15  and  O_16
REMARK                            x       y       z     vdW  Elec       q    Type
REMARK                         _______ _______ _______ _____ _____    ______ ____
ROOT
ATOM      1  N   UNL     1       4.154   2.147   1.048  0.00  0.00    -0.309 N 
ATOM      2  C   UNL     1       4.972   1.120   1.504  0.00  0.00    +0.100 A 
ATOM      3  C   UNL     1       5.668   1.273   2.697  0.00  0.00    +0.053 A 
ATOM      4  C   UNL     1       6.484   0.232   3.141  0.00  0.00    +0.022 A 
ATOM      5  C   UNL     1       6.564  -0.927   2.360  0.00  0.00    +0.029 A 
ATOM      6  C   UNL     1       5.841  -0.999   1.188  0.00  0.00    +0.085 A 
ATOM      7  N   UNL     1       5.074   0.003   0.800  0.00  0.00    -0.350 N 
ATOM      8  H   UNL     1       4.574  -0.080  -0.027  0.00  0.00    +0.166 HD
ENDROOT
BRANCH   4   9
ATOM      9  C   UNL     1       7.245   0.350   4.407  0.00  0.00    +0.163 C 
ATOM     10  N   UNL     1       7.603  -0.720   5.052  0.00  0.00    -0.072 NA
ATOM     11  N   UNL     1       7.576   1.601   4.902  0.00  0.00    -0.340 N 
ATOM     12  H   UNL     1       7.309   2.399   4.420  0.00  0.00    +0.144 HD
ATOM     13  H   UNL     1       8.075   1.678   5.730  0.00  0.00    +0.144 HD
BRANCH  10  14
ATOM     14  O   UNL     1       7.157  -1.991   4.617  0.00  0.00    -0.408 OA
ATOM     15  H   UNL     1       7.475  -2.726   5.160  0.00  0.00    +0.328 HD
ENDBRANCH  10  14
ENDBRANCH   4   9
BRANCH   1  16
ATOM     16  C   UNL     1       3.933   3.333   1.880  0.00  0.00    +0.075 C 
ATOM     17  C   UNL     1       2.966   4.395   1.355  0.00  0.00    +0.024 C 
ATOM     18  C   UNL     1       4.471   4.669   1.364  0.00  0.00    +0.024 C 
ENDBRANCH   1  16
BRANCH   1  19
ATOM     19  C   UNL     1       3.513   2.046  -0.266  0.00  0.00    +0.149 C 
BRANCH  19  22
ATOM     20  C   UNL     1      -0.154   1.131   0.211  0.00  0.00    +0.008 A 
ATOM     21  C   UNL     1       0.958   1.946   0.111  0.00  0.00    +0.013 A 
ATOM     22  C   UNL     1       2.168   1.381  -0.118  0.00  0.00    +0.007 A 
ATOM     23  S   UNL     1       1.757  -0.354  -0.201  0.00  0.00    -0.100 S 
ATOM     24  C   UNL     1      -0.001  -0.209   0.076  0.00  0.00    +0.045 A 
ENDBRANCH  19  22
ENDBRANCH   1  19
TORSDOF 5
