REMARK  Name = ZINC39158971
REMARK  5 active torsions:
REMARK  status: ('A' for Active; 'I' for Inactive)
REMARK    1  A    between atoms: C_6  and  S_10
REMARK    2  A    between atoms: S_10  and  C_11
REMARK    3  A    between atoms: C_11  and  C_12
REMARK    4  A    between atoms: N_17  and  C_18
REMARK    5  A    between atoms: C_22  and  C_24
REMARK                            x       y       z     vdW  Elec       q    Type
REMARK                         _______ _______ _______ _____ _____    ______ ____
ROOT
ATOM      1  C   UNL     1      -6.427  -4.358   0.013  0.00  0.00    +0.153 C 
ATOM      2  N   UNL     1      -6.125  -5.221   1.182  0.00  0.00    -0.328 NA
ATOM      3  N   UNL     1      -6.233  -6.578   0.619  0.00  0.00    +0.410 N 
ATOM      4  N   UNL     1      -5.704  -6.409  -0.742  0.00  0.00    -0.266 NA
ATOM      5  N   UNL     1      -6.163  -5.186  -1.175  0.00  0.00    -0.263 N 
ATOM      6  H   UNL     1      -5.194  -5.047   1.529  0.00  0.00    +0.106 HD
ATOM      7  H   UNL     1      -5.668  -7.229   1.143  0.00  0.00    -0.031 HD
ATOM      8  H   UNL     1      -4.695  -6.439  -0.743  0.00  0.00    +0.125 HD
ATOM      9  H   UNL     1      -7.196  -6.878   0.592  0.00  0.00    -0.031 HD
ENDROOT
BRANCH   5  10
ATOM     10  C   UNL     1      -6.345  -4.798  -2.505  0.00  0.00    +0.045 A 
ATOM     11  C   UNL     1      -6.811  -3.524  -2.801  0.00  0.00    +0.024 A 
ATOM     12  C   UNL     1      -6.990  -3.143  -4.116  0.00  0.00    +0.002 A 
ATOM     13  C   UNL     1      -6.705  -4.030  -5.138  0.00  0.00    +0.012 A 
ATOM     14  C   UNL     1      -6.241  -5.300  -4.848  0.00  0.00    +0.057 A 
ATOM     15  C   UNL     1      -6.055  -5.684  -3.534  0.00  0.00    +0.036 A 
BRANCH  14  16
ATOM     16  C   UNL     1      -5.934  -6.263  -5.965  0.00  0.00    +0.417 C 
ATOM     17  F   UNL     1      -6.194  -5.649  -7.195  0.00  0.00    -0.166 F 
ATOM     18  F   UNL     1      -4.585  -6.632  -5.904  0.00  0.00    -0.166 F 
ATOM     19  F   UNL     1      -6.735  -7.402  -5.833  0.00  0.00    -0.166 F 
ENDBRANCH  14  16
ENDBRANCH   5  10
BRANCH   1  20
ATOM     20  C   UNL     1      -5.516  -3.129   0.015  0.00  0.00    +0.115 C 
BRANCH  20  21
ATOM     21  S   UNL     1      -3.782  -3.663   0.003  0.00  0.00    -0.085 S 
BRANCH  21  27
ATOM     22  C   UNL     1      -0.017   1.375   0.010  0.00  0.00    +0.002 A 
ATOM     23  C   UNL     1      -1.222   2.062   0.019  0.00  0.00    +0.002 A 
ATOM     24  C   UNL     1      -2.416   1.377   0.021  0.00  0.00    +0.030 A 
ATOM     25  C   UNL     1      -2.414  -0.021   0.014  0.00  0.00    +0.090 A 
ATOM     26  N   UNL     1      -3.401  -0.955   0.014  0.00  0.00    -0.222 NA
ATOM     27  C   UNL     1      -2.872  -2.154   0.005  0.00  0.00    +0.167 A 
ATOM     28  N   UNL     1      -1.509  -2.059  -0.001  0.00  0.00    -0.333 N 
ATOM     29  C   UNL     1      -1.191  -0.711   0.004  0.00  0.00    +0.067 A 
ATOM     30  C   UNL     1       0.002  -0.004   0.002  0.00  0.00    +0.028 A 
ATOM     31  H   UNL     1      -0.880  -2.798  -0.009  0.00  0.00    +0.168 HD
ENDBRANCH  21  27
ENDBRANCH  20  21
ENDBRANCH   1  20
TORSDOF 5
