REMARK  Name = ZINC41641215
REMARK  4 active torsions:
REMARK  status: ('A' for Active; 'I' for Inactive)
REMARK    1  A    between atoms: C_1  and  C_2
REMARK    2  A    between atoms: C_2  and  C_4
REMARK    3  A    between atoms: C_2  and  N_12
REMARK    4  A    between atoms: N_12  and  C_13
REMARK                            x       y       z     vdW  Elec       q    Type
REMARK                         _______ _______ _______ _____ _____    ______ ____
ROOT
ATOM      1  N   UNL     1      -1.373  -0.492  -0.130  0.00  0.00    -0.337 N 
ATOM      2  H   UNL     1      -1.897  -0.687   0.663  0.00  0.00    +0.147 HD
ENDROOT
BRANCH   1   3
ATOM      3  C   UNL     1      -1.931  -0.676  -1.399  0.00  0.00    +0.030 A 
ATOM      4  C   UNL     1      -1.177  -0.401  -2.535  0.00  0.00    +0.025 A 
ATOM      5  C   UNL     1      -1.722  -0.582  -3.791  0.00  0.00    +0.029 A 
ATOM      6  C   UNL     1      -3.025  -1.038  -3.921  0.00  0.00    +0.067 A 
ATOM      7  C   UNL     1      -3.785  -1.314  -2.782  0.00  0.00    +0.069 A 
ATOM      8  C   UNL     1      -3.233  -1.137  -1.523  0.00  0.00    +0.050 A 
ATOM      9  N   UNL     1      -5.032  -1.748  -3.226  0.00  0.00    -0.306 N 
ATOM     10  H   UNL     1      -5.774  -2.014  -2.660  0.00  0.00    +0.170 HD
ATOM     11  C   UNL     1      -5.032  -1.737  -4.572  0.00  0.00    +0.325 A 
ATOM     12  O   UNL     1      -5.971  -2.061  -5.275  0.00  0.00    -0.247 OA
ATOM     13  N   UNL     1      -3.837  -1.313  -5.022  0.00  0.00    -0.306 N 
ATOM     14  H   UNL     1      -3.582  -1.216  -5.953  0.00  0.00    +0.170 HD
ENDBRANCH   1   3
BRANCH   1  16
ATOM     15  C   UNL     1       0.009   1.525  -0.052  0.00  0.00    +0.033 C 
ATOM     16  C   UNL     1       0.002  -0.004   0.002  0.00  0.00    +0.099 C 
BRANCH  16  17
ATOM     17  C   UNL     1       0.573  -0.463   1.319  0.00  0.00    -0.014 A 
ATOM     18  C   UNL     1      -0.267  -0.706   2.389  0.00  0.00    +0.007 A 
ATOM     19  C   UNL     1       0.257  -1.127   3.597  0.00  0.00    +0.015 A 
ATOM     20  C   UNL     1       1.622  -1.305   3.736  0.00  0.00    +0.019 A 
ATOM     21  C   UNL     1       2.462  -1.061   2.665  0.00  0.00    +0.031 A 
ATOM     22  C   UNL     1       1.938  -0.645   1.455  0.00  0.00    +0.024 A 
ATOM     23 BR   UNL     1       3.086  -0.319  -0.012  0.00  0.00    -0.050 Br
ATOM     24 BR   UNL     1       2.338  -1.880   5.389  0.00  0.00    -0.050 Br
ENDBRANCH  16  17
ENDBRANCH   1  16
TORSDOF 3
