REMARK  Name = ZINC45313414
REMARK  3 active torsions:
REMARK  status: ('A' for Active; 'I' for Inactive)
REMARK    1  A    between atoms: C_1  and  N_2
REMARK    2  A    between atoms: N_5  and  C_6
REMARK    3  A    between atoms: C_6  and  C_7
REMARK                            x       y       z     vdW  Elec       q    Type
REMARK                         _______ _______ _______ _____ _____    ______ ____
ROOT
ATOM      1  C   UNL     1      -0.018   1.461   0.010  0.00  0.00    +0.129 C 
ATOM      2  N   UNL     1       0.002  -0.004   0.002  0.00  0.00    -0.302 N 
ATOM      3  C   UNL     1       0.585  -0.664  -1.018  0.00  0.00    +0.300 C 
ATOM      4  O   UNL     1       1.095  -0.045  -1.931  0.00  0.00    -0.253 OA
ATOM      5  N   UNL     1       0.603  -2.012  -1.025  0.00  0.00    -0.295 N 
ATOM      6  H   UNL     1      -0.404  -0.499   0.731  0.00  0.00    +0.150 HD
ATOM      7  H   UNL     1       0.197  -2.507  -0.297  0.00  0.00    +0.151 HD
ENDROOT
BRANCH   5   8
ATOM      8  C   UNL     1       1.237  -2.730  -2.134  0.00  0.00    +0.148 C 
BRANCH   8   9
ATOM      9  C   UNL     1       1.122  -4.215  -1.903  0.00  0.00    +0.008 A 
ATOM     10  C   UNL     1       0.142  -5.066  -2.294  0.00  0.00    +0.014 A 
ATOM     11  C   UNL     1       0.247  -6.405  -1.965  0.00  0.00    +0.023 A 
ATOM     12  C   UNL     1       1.327  -6.826  -1.261  0.00  0.00    +0.055 A 
ATOM     13  S   UNL     1       2.244  -5.309  -1.048  0.00  0.00    -0.085 S 
ATOM     14 BR   UNL     1       1.753  -8.570  -0.666  0.00  0.00    -0.043 Br
ENDBRANCH   8   9
ENDBRANCH   5   8
TORSDOF 2
