REMARK  Name = ZINC19476671
REMARK  4 active torsions:
REMARK  status: ('A' for Active; 'I' for Inactive)
REMARK    1  A    between atoms: C_9  and  C_12
REMARK    2  A    between atoms: C_19  and  C_21
REMARK    3  A    between atoms: C_21  and  C_22
REMARK    4  A    between atoms: C_22  and  O_23
REMARK                            x       y       z     vdW  Elec       q    Type
REMARK                         _______ _______ _______ _____ _____    ______ ____
ROOT
ATOM      1  C   UNL     1      -0.319   3.751  -0.170  0.00  0.00    +0.258 C 
ATOM      2  O   UNL     1       0.206   3.165   0.753  0.00  0.00    -0.271 OA
ATOM      3  N   UNL     1      -0.784   3.059  -1.230  0.00  0.00    -0.295 N 
ATOM      4  C   UNL     1      -1.318   3.760  -2.406  0.00  0.00    +0.108 C 
ATOM      5  C   UNL     1      -0.590   3.252  -3.654  0.00  0.00    +0.019 C 
ATOM      6  C   UNL     1      -0.708   1.727  -3.724  0.00  0.00    +0.003 C 
ATOM      7  C   UNL     1      -0.045   1.106  -2.492  0.00  0.00    +0.022 C 
ATOM      8  C   UNL     1      -0.766   1.590  -1.230  0.00  0.00    +0.078 C 
ENDROOT
BRANCH   1  17
ATOM      9  C   UNL     1      -0.416   9.724   2.034  0.00  0.00    +0.002 A 
ATOM     10  C   UNL     1       0.681   9.042   2.526  0.00  0.00    +0.004 A 
ATOM     11  C   UNL     1       0.887   7.717   2.188  0.00  0.00    +0.047 A 
ATOM     12  C   UNL     1      -0.008   7.066   1.353  0.00  0.00    +0.142 A 
ATOM     13  C   UNL     1      -1.110   7.756   0.857  0.00  0.00    +0.070 A 
ATOM     14  C   UNL     1      -1.313   9.084   1.200  0.00  0.00    +0.026 A 
ATOM     15  N   UNL     1      -2.017   7.103   0.007  0.00  0.00    -0.337 N 
ATOM     16  C   UNL     1      -1.939   5.634  -0.078  0.00  0.00    +0.155 C 
ATOM     17  C   UNL     1      -0.453   5.251  -0.133  0.00  0.00    +0.276 C 
ATOM     18  O   UNL     1       0.198   5.761   1.033  0.00  0.00    -0.476 OA
ATOM     19  H   UNL     1      -2.767   7.649  -0.583  0.00  0.00    +0.146 HD
ENDBRANCH   1  17
BRANCH   8  20
ATOM     20  C   UNL     1      -0.025   1.085   0.009  0.00  0.00    +0.050 C 
BRANCH  20  21
ATOM     21  C   UNL     1      -0.048  -0.445   0.029  0.00  0.00    +0.157 C 
BRANCH  21  22
ATOM     22  O   UNL     1       0.536  -0.914   1.246  0.00  0.00    -0.395 OA
ATOM     23  H   UNL     1       0.609  -1.994   1.441  0.00  0.00    +0.209 HD
ENDBRANCH  21  22
ENDBRANCH  20  21
ENDBRANCH   8  20
TORSDOF 4
