REMARK  Name = ZINC34754668
REMARK  8 active torsions:
REMARK  status: ('A' for Active; 'I' for Inactive)
REMARK    1  A    between atoms: C_1  and  C_2
REMARK    2  A    between atoms: C_1  and  C_4
REMARK    3  A    between atoms: N_6  and  C_7
REMARK    4  A    between atoms: C_9  and  O_22
REMARK    5  A    between atoms: C_11  and  O_21
REMARK    6  A    between atoms: C_13  and  C_19
REMARK    7  A    between atoms: C_16  and  O_18
REMARK    8  A    between atoms: C_19  and  O_20
REMARK                            x       y       z     vdW  Elec       q    Type
REMARK                         _______ _______ _______ _____ _____    ______ ____
ROOT
ATOM      1  C   UNL     1       2.999   3.825  -0.006  0.00  0.00    +0.160 C 
ATOM      2  C   UNL     1       3.031   5.228   0.609  0.00  0.00    +0.171 C 
ATOM      3  C   UNL     1       4.458   5.778   0.521  0.00  0.00    +0.176 C 
ATOM      4  C   UNL     1       4.910   5.774  -0.941  0.00  0.00    +0.178 C 
ATOM      5  O   UNL     1       4.826   4.445  -1.461  0.00  0.00    -0.341 OA
ATOM      6  C   UNL     1       3.507   3.894  -1.448  0.00  0.00    +0.270 C 
ENDROOT
BRANCH   1   9
ATOM      7  C   UNL     1       1.396   1.989  -0.001  0.00  0.00    +0.227 C 
ATOM      8  O   UNL     1       2.328   1.214  -0.014  0.00  0.00    -0.275 OA
ATOM      9  N   UNL     1       1.624   3.318   0.004  0.00  0.00    -0.304 N 
ATOM     10  H   UNL     1       0.878   3.938   0.015  0.00  0.00    +0.149 HD
BRANCH   7  11
ATOM     11  C   UNL     1      -0.018   1.468   0.010  0.00  0.00    +0.214 C 
BRANCH  11  12
ATOM     12  C   UNL     1       0.002  -0.004   0.002  0.00  0.00    +0.072 C 
ATOM     13  N   UNL     1       0.018  -1.140  -0.004  0.00  0.00    -0.196 NA
ENDBRANCH  11  12
ENDBRANCH   7  11
ENDBRANCH   1   9
BRANCH   6  14
ATOM     14  O   UNL     1       2.638   4.725  -2.220  0.00  0.00    -0.365 OA
ATOM     15  H   UNL     1       2.900   4.815  -3.147  0.00  0.00    +0.213 HD
ENDBRANCH   6  14
BRANCH   3  16
ATOM     16  O   UNL     1       5.335   4.957   1.296  0.00  0.00    -0.387 OA
ATOM     17  H   UNL     1       6.257   5.248   1.286  0.00  0.00    +0.210 HD
ENDBRANCH   3  16
BRANCH   2  18
ATOM     18  O   UNL     1       2.626   5.159   1.977  0.00  0.00    -0.387 OA
ATOM     19  H   UNL     1       2.624   6.014   2.430  0.00  0.00    +0.210 HD
ENDBRANCH   2  18
BRANCH   4  20
ATOM     20  C   UNL     1       6.356   6.266  -1.030  0.00  0.00    +0.190 C 
BRANCH  20  21
ATOM     21  O   UNL     1       6.739   6.373  -2.403  0.00  0.00    -0.392 OA
ATOM     22  H   UNL     1       7.646   6.681  -2.535  0.00  0.00    +0.210 HD
ENDBRANCH  20  21
ENDBRANCH   4  20
TORSDOF 8
