REMARK  Name = ZINC16525684
REMARK  4 active torsions:
REMARK  status: ('A' for Active; 'I' for Inactive)
REMARK    1  A    between atoms: C_8  and  C_12
REMARK    2  A    between atoms: C_15  and  S_17
REMARK    3  A    between atoms: S_17  and  C_18
REMARK    4  A    between atoms: C_18  and  C_19
REMARK                            x       y       z     vdW  Elec       q    Type
REMARK                         _______ _______ _______ _____ _____    ______ ____
ROOT
ATOM      1  C   UNL     1      -2.487   1.035   0.020  0.00  0.00    +0.086 A 
ATOM      2  C   UNL     1      -3.669   1.724   0.029  0.00  0.00    +0.076 A 
ATOM      3  S   UNL     1      -4.842   0.374   0.027  0.00  0.00    -0.069 S 
ATOM      4  C   UNL     1      -3.652  -0.959   0.014  0.00  0.00    +0.136 A 
ATOM      5  N   UNL     1      -2.510  -0.296   0.007  0.00  0.00    -0.233 NA
ENDROOT
BRANCH   1  13
ATOM      6  C   UNL     1       3.626   1.922  -0.022  0.00  0.00    +0.001 A 
ATOM      7  C   UNL     1       3.579   3.308  -0.014  0.00  0.00    +0.004 A 
ATOM      8  C   UNL     1       2.370   3.971   0.000  0.00  0.00    +0.047 A 
ATOM      9  C   UNL     1       1.183   3.249   0.008  0.00  0.00    +0.139 A 
ATOM     10  C   UNL     1       1.234   1.844   0.000  0.00  0.00    +0.018 A 
ATOM     11  C   UNL     1       2.472   1.190  -0.014  0.00  0.00    +0.011 A 
ATOM     12  C   UNL     1      -0.013   1.076   0.008  0.00  0.00    +0.028 A 
ATOM     13  C   UNL     1      -1.197   1.762   0.017  0.00  0.00    +0.086 A 
ATOM     14  C   UNL     1      -1.169   3.228   0.030  0.00  0.00    +0.347 A 
ATOM     15  O   UNL     1      -2.215   3.849   0.043  0.00  0.00    -0.244 OA
ATOM     16  O   UNL     1      -0.004   3.893   0.022  0.00  0.00    -0.422 OA
ENDBRANCH   1  13
BRANCH   4  17
ATOM     17  S   UNL     1      -3.930  -2.699   0.005  0.00  0.00    -0.092 S 
BRANCH  17  18
ATOM     18  C   UNL     1      -5.740  -2.729   0.013  0.00  0.00    +0.137 C 
BRANCH  18  19
ATOM     19  C   UNL     1      -6.219  -4.158   0.007  0.00  0.00    +0.116 A 
ATOM     20  C   UNL     1      -7.657  -4.446   0.018  0.00  0.00    +0.271 A 
ATOM     21  O   UNL     1      -8.468  -3.538   0.032  0.00  0.00    -0.266 OA
ATOM     22  N   UNL     1      -8.071  -5.732   0.008  0.00  0.00    -0.319 N 
ATOM     23  H   UNL     1      -9.018  -5.945   0.011  0.00  0.00    +0.169 HD
ATOM     24  C   UNL     1      -7.126  -6.739  -0.003  0.00  0.00    +0.068 A 
ATOM     25  C   UNL     1      -7.521  -8.073  -0.008  0.00  0.00    +0.028 A 
ATOM     26  C   UNL     1      -6.569  -9.069  -0.018  0.00  0.00    +0.002 A 
ATOM     27  C   UNL     1      -5.217  -8.752  -0.024  0.00  0.00    +0.002 A 
ATOM     28  C   UNL     1      -4.807  -7.451  -0.018  0.00  0.00    +0.030 A 
ATOM     29  C   UNL     1      -5.756  -6.417  -0.008  0.00  0.00    +0.088 A 
ATOM     30  N   UNL     1      -5.354  -5.132  -0.003  0.00  0.00    -0.244 NA
ENDBRANCH  18  19
ENDBRANCH  17  18
ENDBRANCH   4  17
TORSDOF 4
