REMARK  Name = ZINC16742631
REMARK  5 active torsions:
REMARK  status: ('A' for Active; 'I' for Inactive)
REMARK    1  A    between atoms: C_1  and  C_2
REMARK    2  A    between atoms: C_2  and  C_3
REMARK    3  A    between atoms: C_6  and  N_9
REMARK    4  A    between atoms: C_10  and  N_24
REMARK    5  A    between atoms: C_11  and  C_15
REMARK                            x       y       z     vdW  Elec       q    Type
REMARK                         _______ _______ _______ _____ _____    ______ ____
ROOT
ATOM      1  N   UNL     1       4.302   4.755  -0.015  0.00  0.00    -0.285 N 
ATOM      2  C   UNL     1       3.851   3.478  -0.011  0.00  0.00    +0.119 A 
ATOM      3  C   UNL     1       2.498   3.279  -0.005  0.00  0.00    +0.085 A 
ATOM      4  S   UNL     1       1.889   4.957   0.010  0.00  0.00    -0.058 S 
ATOM      5  C   UNL     1       3.418   5.776  -0.001  0.00  0.00    +0.132 A 
ATOM      6  S   UNL     1       3.729   7.460   0.006  0.00  0.00    -0.024 S 
ENDROOT
BRANCH   3   7
ATOM      7  C   UNL     1       1.748   2.022  -0.004  0.00  0.00    +0.119 A 
ATOM      8  N   UNL     1       2.206   0.783  -0.015  0.00  0.00    -0.238 NA
ATOM      9  C   UNL     1       1.387  -0.289  -0.013  0.00  0.00    +0.079 A 
ATOM     10  C   UNL     1       1.744  -1.658  -0.023  0.00  0.00    +0.029 A 
ATOM     11  C   UNL     1       0.780  -2.632  -0.019  0.00  0.00    +0.002 A 
ATOM     12  C   UNL     1      -0.571  -2.316  -0.005  0.00  0.00    +0.001 A 
ATOM     13  C   UNL     1      -0.956  -0.987   0.006  0.00  0.00    +0.017 A 
ATOM     14  C   UNL     1       0.002  -0.004   0.002  0.00  0.00    +0.040 A 
ATOM     15  S   UNL     1      -0.022   1.772   0.012  0.00  0.00    -0.067 S 
ENDBRANCH   3   7
BRANCH   1  19
ATOM     16  C   UNL     1       8.398   5.528  -0.052  0.00  0.00    -0.047 A 
ATOM     17  C   UNL     1       7.637   5.893   1.044  0.00  0.00    +0.005 A 
ATOM     18  C   UNL     1       6.279   5.638   1.059  0.00  0.00    +0.026 A 
ATOM     19  C   UNL     1       5.679   5.015  -0.027  0.00  0.00    +0.049 A 
ATOM     20  C   UNL     1       6.447   4.646  -1.124  0.00  0.00    +0.026 A 
ATOM     21  C   UNL     1       7.803   4.908  -1.135  0.00  0.00    +0.005 A 
BRANCH  16  23
ATOM     22  C   UNL     1      10.628   4.615   0.531  0.00  0.00    +0.009 C 
ATOM     23  C   UNL     1       9.879   5.808  -0.065  0.00  0.00    +0.032 C 
ENDBRANCH  16  23
ENDBRANCH   1  19
BRANCH   2  24
ATOM     24  N   UNL     1       4.731   2.408  -0.018  0.00  0.00    -0.343 N 
ATOM     25  H   UNL     1       4.390   1.500  -0.018  0.00  0.00    +0.144 HD
ATOM     26  H   UNL     1       5.687   2.567  -0.022  0.00  0.00    +0.144 HD
ENDBRANCH   2  24
TORSDOF 4
