REMARK  Name = ZINC03500129
REMARK  7 active torsions:
REMARK  status: ('A' for Active; 'I' for Inactive)
REMARK    1  A    between atoms: C_1  and  C_2
REMARK    2  A    between atoms: C_5  and  C_8
REMARK    3  A    between atoms: C_11  and  S_14
REMARK    4  A    between atoms: N_12  and  N_13
REMARK    5  A    between atoms: S_14  and  C_15
REMARK    6  A    between atoms: C_15  and  C_16
REMARK    7  A    between atoms: N_18  and  C_19
REMARK                            x       y       z     vdW  Elec       q    Type
REMARK                         _______ _______ _______ _____ _____    ______ ____
ROOT
ATOM      1  C   UNL     1       0.780   1.246  -4.207  0.00  0.00    +0.182 A 
ATOM      2  N   UNL     1       1.501   0.372  -3.544  0.00  0.00    -0.127 NA
ATOM      3  N   UNL     1       1.114   0.322  -2.320  0.00  0.00    -0.121 NA
ATOM      4  C   UNL     1       0.115   1.155  -2.128  0.00  0.00    +0.209 A 
ATOM      5  N   UNL     1      -0.130   1.774  -3.320  0.00  0.00    -0.224 N 
ENDROOT
BRANCH   1  10
ATOM      6  C   UNL     1       1.322   2.613  -9.771  0.00  0.00    +0.044 C 
ATOM      7  C   UNL     1       1.180   2.255  -8.313  0.00  0.00    -0.050 A 
ATOM      8  C   UNL     1       0.481   3.093  -7.463  0.00  0.00    +0.004 A 
ATOM      9  C   UNL     1       0.348   2.772  -6.128  0.00  0.00    +0.012 A 
ATOM     10  C   UNL     1       0.919   1.597  -5.636  0.00  0.00    +0.021 A 
ATOM     11  C   UNL     1       1.627   0.758  -6.498  0.00  0.00    +0.012 A 
ATOM     12  C   UNL     1       1.749   1.089  -7.832  0.00  0.00    +0.004 A 
ENDBRANCH   1  10
BRANCH   5  13
ATOM     13  N   UNL     1      -1.080   2.721  -3.578  0.00  0.00    -0.295 N 
ATOM     14  H   UNL     1      -0.693   3.650  -3.509  0.00  0.00    +0.163 HD
ATOM     15  H   UNL     1      -1.503   2.571  -4.482  0.00  0.00    +0.163 HD
ENDBRANCH   5  13
BRANCH   4  16
ATOM     16  S   UNL     1      -0.742   1.427  -0.613  0.00  0.00    -0.075 S 
BRANCH  16  17
ATOM     17  C   UNL     1       0.141   0.268   0.461  0.00  0.00    +0.173 C 
BRANCH  17  18
ATOM     18  C   UNL     1      -0.438   0.330   1.851  0.00  0.00    +0.227 C 
ATOM     19  O   UNL     1      -1.357   1.083   2.092  0.00  0.00    -0.275 OA
ATOM     20  N   UNL     1       0.066  -0.452   2.826  0.00  0.00    -0.285 N 
ATOM     21  H   UNL     1       0.850  -0.998   2.654  0.00  0.00    +0.155 HD
BRANCH  20  22
ATOM     22  C   UNL     1      -0.540  -0.476   4.087  0.00  0.00    +0.035 A 
ATOM     23  C   UNL     1       0.231  -0.664   5.227  0.00  0.00    +0.025 A 
ATOM     24  C   UNL     1      -0.368  -0.681   6.471  0.00  0.00    +0.023 A 
ATOM     25  C   UNL     1      -1.739  -0.524   6.582  0.00  0.00    +0.059 A 
ATOM     26  C   UNL     1      -2.512  -0.343   5.447  0.00  0.00    +0.061 A 
ATOM     27  C   UNL     1      -1.915  -0.319   4.201  0.00  0.00    +0.044 A 
ATOM     28 CL   UNL     1      -4.230  -0.146   5.591  0.00  0.00    -0.082 Cl
ATOM     29 CL   UNL     1      -2.490  -0.554   8.147  0.00  0.00    -0.082 Cl
ENDBRANCH  20  22
ENDBRANCH  17  18
ENDBRANCH  16  17
ENDBRANCH   4  16
TORSDOF 6
