REMARK  Name = ZINC37216983
REMARK  8 active torsions:
REMARK  status: ('A' for Active; 'I' for Inactive)
REMARK    1  A    between atoms: C_1  and  C_2
REMARK    2  A    between atoms: C_2  and  C_4
REMARK    3  A    between atoms: C_2  and  N_11
REMARK    4  A    between atoms: N_11  and  C_12
REMARK    5  A    between atoms: C_12  and  C_13
REMARK    6  A    between atoms: C_13  and  N_19
REMARK    7  A    between atoms: N_19  and  C_20
REMARK    8  A    between atoms: N_19  and  C_21
REMARK                            x       y       z     vdW  Elec       q    Type
REMARK                         _______ _______ _______ _____ _____    ______ ____
ROOT
ATOM      1  N   UNL     1      -2.162   1.308  -1.484  0.00  0.00    +0.383 N 
ATOM      2  H   UNL     1      -2.640   1.722  -0.697  0.00  0.00    -0.085 HD
ATOM      3  H   UNL     1      -2.665   1.519  -2.332  0.00  0.00    -0.085 HD
ENDROOT
BRANCH   1   5
ATOM      4  C   UNL     1      -0.119   1.320  -2.834  0.00  0.00    -0.009 C 
ATOM      5  C   UNL     1      -0.801   1.853  -1.573  0.00  0.00    -0.044 C 
BRANCH   5   6
ATOM      6  C   UNL     1      -0.865   3.357  -1.633  0.00  0.00    -0.062 A 
ATOM      7  C   UNL     1      -1.850   3.977  -2.379  0.00  0.00    +0.003 A 
ATOM      8  C   UNL     1      -1.910   5.357  -2.435  0.00  0.00    +0.014 A 
ATOM      9  C   UNL     1      -0.983   6.117  -1.745  0.00  0.00    +0.013 A 
ATOM     10  C   UNL     1       0.002   5.497  -0.999  0.00  0.00    +0.014 A 
ATOM     11  C   UNL     1       0.058   4.117  -0.939  0.00  0.00    +0.003 A 
ATOM     12  I   UNL     1      -1.072   8.209  -1.830  0.00  0.00    -0.044 I 
ENDBRANCH   5   6
ENDBRANCH   1   5
BRANCH   1  13
ATOM     13  C   UNL     1      -2.095  -0.149  -1.304  0.00  0.00    -0.094 C 
BRANCH  13  14
ATOM     14  C   UNL     1      -3.506  -0.701  -1.086  0.00  0.00    -0.082 C 
ATOM     15  C   UNL     1      -3.425  -2.195  -0.769  0.00  0.00    -0.014 C 
ATOM     16  C   UNL     1      -2.764  -2.930  -1.937  0.00  0.00    -0.001 C 
ATOM     17  C   UNL     1      -3.595  -2.723  -3.205  0.00  0.00    -0.000 C 
ATOM     18  C   UNL     1      -3.675  -1.228  -3.523  0.00  0.00    -0.001 C 
ATOM     19  C   UNL     1      -4.336  -0.493  -2.355  0.00  0.00    -0.014 C 
BRANCH  14  20
ATOM     20  N   UNL     1      -4.140   0.005   0.035  0.00  0.00    +0.379 N 
ATOM     21  C   UNL     1      -5.485  -0.542   0.259  0.00  0.00    -0.096 C 
ATOM     22  C   UNL     1      -3.330  -0.175   1.248  0.00  0.00    -0.096 C 
ATOM     23  H   UNL     1      -4.208   0.988  -0.181  0.00  0.00    -0.082 HD
ENDBRANCH  14  20
ENDBRANCH  13  14
ENDBRANCH   1  13
TORSDOF 5
