REMARK  Name = ZINC36916307
REMARK  5 active torsions:
REMARK  status: ('A' for Active; 'I' for Inactive)
REMARK    1  A    between atoms: C_1  and  C_2
REMARK    2  A    between atoms: C_2  and  C_3
REMARK    3  A    between atoms: C_4  and  C_10
REMARK    4  A    between atoms: N_6  and  C_9
REMARK    5  A    between atoms: C_7  and  N_8
REMARK                            x       y       z     vdW  Elec       q    Type
REMARK                         _______ _______ _______ _____ _____    ______ ____
ROOT
ATOM      1  C   UNL     1      -1.485  -0.365   0.033  0.00  0.00    +0.019 A 
ATOM      2  C   UNL     1      -2.147  -0.907   1.151  0.00  0.00    +0.099 A 
ATOM      3  N   UNL     1      -3.268  -1.456   0.737  0.00  0.00    -0.169 NA
ATOM      4  N   UNL     1      -3.357  -1.284  -0.650  0.00  0.00    -0.253 N 
ATOM      5  C   UNL     1      -2.254  -0.607  -1.062  0.00  0.00    +0.118 A 
ATOM      6  C   UNL     1      -4.451  -1.749  -1.507  0.00  0.00    +0.174 C 
ENDROOT
BRANCH   2   7
ATOM      7  C   UNL     1      -1.664  -0.865   2.554  0.00  0.00    +0.022 A 
ATOM      8  C   UNL     1      -0.355  -1.236   2.854  0.00  0.00    +0.026 A 
ATOM      9  C   UNL     1       0.089  -1.195   4.161  0.00  0.00    +0.019 A 
ATOM     10  C   UNL     1      -0.763  -0.786   5.172  0.00  0.00    +0.017 A 
ATOM     11  C   UNL     1      -2.063  -0.417   4.880  0.00  0.00    +0.022 A 
ATOM     12  C   UNL     1      -2.516  -0.448   3.575  0.00  0.00    +0.050 A 
ATOM     13 CL   UNL     1      -4.147   0.023   3.209  0.00  0.00    -0.083 Cl
ATOM     14 BR   UNL     1       1.866  -1.698   4.570  0.00  0.00    -0.050 Br
ENDBRANCH   2   7
BRANCH   5  15
ATOM     15  N   UNL     1      -1.962  -0.229  -2.370  0.00  0.00    -0.343 N 
ATOM     16  H   UNL     1      -1.143   0.253  -2.564  0.00  0.00    +0.144 HD
ATOM     17  H   UNL     1      -2.578  -0.449  -3.087  0.00  0.00    +0.144 HD
ENDBRANCH   5  15
BRANCH   1  19
ATOM     18  C   UNL     1      -0.399   1.847   0.306  0.00  0.00    +0.009 C 
ATOM     19  C   UNL     1      -0.163   0.358   0.048  0.00  0.00    +0.037 C 
ENDBRANCH   1  19
TORSDOF 3
