REMARK  Name = ZINC32069412
REMARK  8 active torsions:
REMARK  status: ('A' for Active; 'I' for Inactive)
REMARK    1  A    between atoms: C_4  and  N_20
REMARK    2  A    between atoms: C_6  and  C_7
REMARK    3  A    between atoms: C_7  and  C_9
REMARK    4  A    between atoms: C_7  and  N_11
REMARK    5  A    between atoms: C_9  and  N_10
REMARK    6  A    between atoms: N_14  and  C_17
REMARK    7  A    between atoms: C_17  and  C_18
REMARK    8  A    between atoms: C_18  and  O_19
REMARK                            x       y       z     vdW  Elec       q    Type
REMARK                         _______ _______ _______ _____ _____    ______ ____
ROOT
ATOM      1  C   UNL     1       3.951   2.287  -0.285  0.00  0.00    +0.070 C 
ENDROOT
BRANCH   1   7
ATOM      2  C   UNL     1       3.091  -0.043  -0.591  0.00  0.00    +0.009 A 
ATOM      3  C   UNL     1       2.063  -0.966  -0.603  0.00  0.00    +0.053 A 
ATOM      4  C   UNL     1       0.766  -0.563  -0.320  0.00  0.00    +0.209 A 
ATOM      5  C   UNL     1       0.505   0.768  -0.025  0.00  0.00    +0.173 A 
ATOM      6  C   UNL     1       1.536   1.687  -0.013  0.00  0.00    +0.041 A 
ATOM      7  C   UNL     1       2.828   1.282  -0.296  0.00  0.00    -0.030 A 
ATOM      8  O   UNL     1      -0.246  -1.469  -0.332  0.00  0.00    -0.285 OA
BRANCH   5   9
ATOM      9  N   UNL     1      -0.878   1.203   0.272  0.00  0.00    +0.060 N 
ATOM     10  O   UNL     1      -1.107   2.371   0.531  0.00  0.00    -0.126 OA
ATOM     11  O   UNL     1      -1.788   0.393   0.257  0.00  0.00    -0.126 OA
ENDBRANCH   5   9
ENDBRANCH   1   7
BRANCH   1  12
ATOM     12  N   UNL     1       5.142   1.684   0.328  0.00  0.00    -0.295 NA
ATOM     13  C   UNL     1       4.845   1.188   1.679  0.00  0.00    +0.100 C 
ATOM     14  C   UNL     1       6.086   0.497   2.250  0.00  0.00    +0.100 C 
ATOM     15  N   UNL     1       7.205   1.450   2.276  0.00  0.00    -0.298 NA
ATOM     16  C   UNL     1       7.502   1.946   0.924  0.00  0.00    +0.100 C 
ATOM     17  C   UNL     1       6.261   2.636   0.353  0.00  0.00    +0.100 C 
BRANCH  15  18
ATOM     18  C   UNL     1       8.396   0.846   2.888  0.00  0.00    +0.112 C 
BRANCH  18  19
ATOM     19  C   UNL     1       8.644  -0.532   2.271  0.00  0.00    +0.171 C 
BRANCH  19  20
ATOM     20  O   UNL     1       8.997  -0.382   0.895  0.00  0.00    -0.394 OA
ATOM     21  H   UNL     1       9.213  -1.269   0.282  0.00  0.00    +0.209 HD
ENDBRANCH  19  20
ENDBRANCH  18  19
ENDBRANCH  15  18
ENDBRANCH   1  12
BRANCH   1  22
ATOM     22  C   UNL     1       4.273   2.709  -1.720  0.00  0.00    -0.063 C 
BRANCH  22  23
ATOM     23  N   UNL     1       3.115   3.404  -2.297  0.00  0.00    +0.379 N 
ATOM     24  H   UNL     1       3.347   3.707  -3.329  0.00  0.00    -0.090 HD
ATOM     25  H   UNL     1       2.886   4.296  -1.696  0.00  0.00    -0.090 HD
ATOM     26  H   UNL     1       2.246   2.730  -2.300  0.00  0.00    -0.090 HD
ENDBRANCH  22  23
ENDBRANCH   1  22
TORSDOF 8
