REMARK  Name = ZINC39533727
REMARK  8 active torsions:
REMARK  status: ('A' for Active; 'I' for Inactive)
REMARK    1  A    between atoms: C_1  and  S_2
REMARK    2  A    between atoms: S_2  and  N_3
REMARK    3  A    between atoms: N_3  and  C_4
REMARK    4  A    between atoms: C_4  and  C_5
REMARK    5  A    between atoms: C_5  and  C_7
REMARK    6  A    between atoms: C_5  and  N_19
REMARK    7  A    between atoms: C_10  and  C_13
REMARK    8  A    between atoms: C_23  and  O_26
REMARK                            x       y       z     vdW  Elec       q    Type
REMARK                         _______ _______ _______ _____ _____    ______ ____
ROOT
ATOM      1  C   UNL     1       1.407  -2.079  -3.102  0.00  0.00    +0.101 C 
ENDROOT
BRANCH   1   2
ATOM      2  N   UNL     1       0.506  -1.353  -4.007  0.00  0.00    -0.295 NA
ATOM      3  C   UNL     1       0.778  -1.696  -5.410  0.00  0.00    +0.066 C 
ATOM      4  C   UNL     1      -0.219  -0.966  -6.313  0.00  0.00    -0.063 C 
ATOM      5  N   UNL     1      -0.090   0.484  -6.112  0.00  0.00    +0.398 N 
ATOM      6  C   UNL     1      -0.388   0.814  -4.712  0.00  0.00    +0.073 C 
ATOM      7  C   UNL     1       0.606   0.099  -3.796  0.00  0.00    +0.096 C 
ATOM      8  H   UNL     1       0.852   0.771  -6.332  0.00  0.00    -0.082 HD
ATOM      9  H   UNL     1      -0.738   0.966  -6.717  0.00  0.00    -0.082 HD
BRANCH   6  10
ATOM     10  O   UNL     1      -0.280   2.227  -4.523  0.00  0.00    -0.409 OA
ATOM     11  H   UNL     1      -0.882   2.745  -5.073  0.00  0.00    +0.207 HD
ENDBRANCH   6  10
ENDBRANCH   1   2
BRANCH   1  12
ATOM     12  C   UNL     1       1.234  -3.562  -3.307  0.00  0.00    -0.029 A 
ATOM     13  C   UNL     1      -0.029  -4.088  -3.510  0.00  0.00    +0.006 A 
ATOM     14  C   UNL     1      -0.193  -5.445  -3.698  0.00  0.00    +0.009 A 
ATOM     15  C   UNL     1       0.917  -6.287  -3.682  0.00  0.00    -0.018 A 
ATOM     16  C   UNL     1       2.188  -5.753  -3.478  0.00  0.00    +0.009 A 
ATOM     17  C   UNL     1       2.341  -4.393  -3.296  0.00  0.00    +0.006 A 
BRANCH  15  18
ATOM     18  C   UNL     1       0.748  -7.747  -3.883  0.00  0.00    -0.018 A 
ATOM     19  C   UNL     1      -0.522  -8.281  -4.093  0.00  0.00    +0.008 A 
ATOM     20  C   UNL     1      -0.675  -9.640  -4.280  0.00  0.00    +0.001 A 
ATOM     21  C   UNL     1       0.430 -10.472  -4.258  0.00  0.00    +0.000 A 
ATOM     22  C   UNL     1       1.693  -9.947  -4.050  0.00  0.00    +0.001 A 
ATOM     23  C   UNL     1       1.858  -8.589  -3.868  0.00  0.00    +0.008 A 
ENDBRANCH  15  18
ENDBRANCH   1  12
BRANCH   1  24
ATOM     24  C   UNL     1       1.072  -1.722  -1.653  0.00  0.00    +0.117 C 
BRANCH  24  25
ATOM     25  N   UNL     1       2.022  -2.389  -0.752  0.00  0.00    -0.262 NA
ATOM     26  H   UNL     1       2.958  -2.360  -1.128  0.00  0.00    +0.135 HD
BRANCH  25  28
ATOM     27  C   UNL     1       3.192  -2.632   1.802  0.00  0.00    +0.102 C 
ATOM     28  S   UNL     1       1.966  -1.681   0.863  0.00  0.00    -0.084 S 
ENDBRANCH  25  28
ENDBRANCH  24  25
ENDBRANCH   1  24
TORSDOF 7
