REMARK  Name = ZINC01394593
REMARK  4 active torsions:
REMARK  status: ('A' for Active; 'I' for Inactive)
REMARK    1  A    between atoms: C_1  and  S_2
REMARK    2  A    between atoms: S_2  and  N_5
REMARK    3  A    between atoms: N_5  and  N_6
REMARK    4  A    between atoms: C_7  and  C_9
REMARK                            x       y       z     vdW  Elec       q    Type
REMARK                         _______ _______ _______ _____ _____    ______ ____
ROOT
ATOM      1  C   UNL     1       4.495  -0.429  -2.100  0.00  0.00    +0.264 C 
ATOM      2  C   UNL     1       5.107   0.120  -0.789  0.00  0.00    +0.093 C 
ATOM      3  C   UNL     1       5.792  -1.111  -0.227  0.00  0.00    +0.006 A 
ATOM      4  C   UNL     1       6.296  -1.402   1.048  0.00  0.00    -0.011 A 
ATOM      5  C   UNL     1       6.226  -0.466   2.095  0.00  0.00    +0.009 A 
ATOM      6  C   UNL     1       6.727  -0.785   3.319  0.00  0.00    +0.001 A 
ATOM      7  C   UNL     1       7.311  -2.029   3.554  0.00  0.00    +0.001 A 
ATOM      8  C   UNL     1       7.395  -2.961   2.565  0.00  0.00    +0.008 A 
ATOM      9  C   UNL     1       6.888  -2.667   1.288  0.00  0.00    -0.017 A 
ATOM     10  C   UNL     1       6.954  -3.601   0.240  0.00  0.00    +0.012 A 
ATOM     11  C   UNL     1       6.460  -3.284  -0.983  0.00  0.00    +0.046 A 
ATOM     12  C   UNL     1       5.874  -2.031  -1.235  0.00  0.00    +0.126 A 
ATOM     13  O   UNL     1       5.351  -1.545  -2.401  0.00  0.00    -0.479 OA
ENDROOT
BRANCH   1  15
ATOM     14  N   UNL     1       2.114   0.014  -1.600  0.00  0.00    -0.229 N 
ATOM     15  C   UNL     1       3.076  -0.887  -1.878  0.00  0.00    +0.269 C 
ATOM     16  O   UNL     1       2.801  -2.066  -1.950  0.00  0.00    -0.270 OA
ATOM     17  H   UNL     1       2.334   0.957  -1.543  0.00  0.00    +0.171 HD
BRANCH  14  18
ATOM     18  N   UNL     1       0.795  -0.411  -1.394  0.00  0.00    -0.113 NA
ATOM     19  H   UNL     1       0.346  -0.944  -2.069  0.00  0.00    +0.171 HD
BRANCH  18  21
ATOM     20  C   UNL     1      -0.022   1.810   0.012  0.00  0.00    +0.216 C 
ATOM     21  S   UNL     1       0.002  -0.004   0.002  0.00  0.00    +0.042 S 
ATOM     22  O   UNL     1       0.835  -0.488   1.046  0.00  0.00    -0.157 OA
ATOM     23  O   UNL     1      -1.315  -0.510  -0.168  0.00  0.00    -0.157 OA
ENDBRANCH  18  21
ENDBRANCH  14  18
ENDBRANCH   1  15
TORSDOF 3
