REMARK  Name = ZINC00062996
REMARK  4 active torsions:
REMARK  status: ('A' for Active; 'I' for Inactive)
REMARK    1  A    between atoms: C_1  and  C_2
REMARK    2  A    between atoms: C_9  and  C_17
REMARK    3  A    between atoms: C_11  and  C_15
REMARK    4  A    between atoms: C_12  and  N_14
REMARK                            x       y       z     vdW  Elec       q    Type
REMARK                         _______ _______ _______ _____ _____    ______ ____
ROOT
ATOM      1  C   UNL     1      -1.884   0.182  -0.207  0.00  0.00    +0.086 C 
ATOM      2  C   UNL     1      -0.753   1.176  -0.149  0.00  0.00    +0.110 A 
ATOM      3  C   UNL     1       0.509   0.718  -0.060  0.00  0.00    +0.088 A 
ATOM      4  C   UNL     1       1.581   1.638  -0.010  0.00  0.00    +0.144 A 
ATOM      5  C   UNL     1       1.289   2.985  -0.050  0.00  0.00    +0.092 A 
ATOM      6  C   UNL     1      -0.050   3.385  -0.138  0.00  0.00    +0.345 A 
ATOM      7  O   UNL     1      -0.320   4.574  -0.174  0.00  0.00    -0.245 OA
ATOM      8  O   UNL     1      -1.038   2.481  -0.183  0.00  0.00    -0.427 OA
ATOM      9  C   UNL     1       2.386   4.011   0.000  0.00  0.00    +0.105 C 
ATOM     10  C   UNL     1       3.663   3.379   0.481  0.00  0.00    +0.098 C 
ATOM     11  C   UNL     1       3.822   2.035   0.491  0.00  0.00    +0.199 C 
ATOM     12  O   UNL     1       2.853   1.200   0.076  0.00  0.00    -0.441 OA
ENDROOT
BRANCH   9  13
ATOM     13  C   UNL     1       2.599   4.582  -1.378  0.00  0.00    -0.027 A 
ATOM     14  C   UNL     1       2.862   3.756  -2.428  0.00  0.00    +0.005 A 
ATOM     15  C   UNL     1       3.061   4.266  -3.709  0.00  0.00    +0.001 A 
ATOM     16  C   UNL     1       2.998   5.604  -3.949  0.00  0.00    +0.008 A 
ATOM     17  C   UNL     1       2.730   6.488  -2.890  0.00  0.00    -0.018 A 
ATOM     18  C   UNL     1       2.522   5.969  -1.587  0.00  0.00    -0.014 A 
ATOM     19  C   UNL     1       2.259   6.854  -0.527  0.00  0.00    +0.009 A 
ATOM     20  C   UNL     1       2.197   8.192  -0.766  0.00  0.00    +0.001 A 
ATOM     21  C   UNL     1       2.397   8.702  -2.048  0.00  0.00    +0.001 A 
ATOM     22  C   UNL     1       2.658   7.876  -3.098  0.00  0.00    +0.008 A 
ENDBRANCH   9  13
BRANCH  11  23
ATOM     23  N   UNL     1       5.008   1.508   0.939  0.00  0.00    -0.328 N 
ATOM     24  H   UNL     1       5.137   0.546   0.953  0.00  0.00    +0.145 HD
ATOM     25  H   UNL     1       5.717   2.097   1.242  0.00  0.00    +0.145 HD
ENDBRANCH  11  23
BRANCH  10  26
ATOM     26  C   UNL     1       4.732   4.216   0.937  0.00  0.00    +0.101 C 
ATOM     27  N   UNL     1       5.580   4.880   1.299  0.00  0.00    -0.191 NA
ENDBRANCH  10  26
TORSDOF 3
