REMARK  Name = ZINC12723316
REMARK  5 active torsions:
REMARK  status: ('A' for Active; 'I' for Inactive)
REMARK    1  A    between atoms: N_12  and  C_13
REMARK    2  A    between atoms: C_13  and  C_14
REMARK    3  A    between atoms: C_14  and  O_16
REMARK    4  A    between atoms: O_16  and  C_17
REMARK    5  A    between atoms: C_17  and  C_18
REMARK                            x       y       z     vdW  Elec       q    Type
REMARK                         _______ _______ _______ _____ _____    ______ ____
ROOT
ATOM      1  C   UNL     1       1.741   2.699   6.261  0.00  0.00    +0.308 C 
ENDROOT
BRANCH   1   2
ATOM      2  C   UNL     1       1.113   2.306   4.949  0.00  0.00    +0.170 A 
ATOM      3  N   UNL     1       1.886   1.892   3.961  0.00  0.00    -0.214 NA
ATOM      4  C   UNL     1       1.396   1.533   2.785  0.00  0.00    +0.128 A 
ATOM      5  C   UNL     1      -0.010   1.594   2.575  0.00  0.00    +0.051 A 
ATOM      6  C   UNL     1      -0.771   1.244   1.367  0.00  0.00    -0.025 A 
ATOM      7  C   UNL     1      -2.105   1.407   1.426  0.00  0.00    -0.004 A 
ATOM      8  S   UNL     1      -2.433   1.997   3.067  0.00  0.00    -0.073 S 
ATOM      9  C   UNL     1      -0.768   2.045   3.672  0.00  0.00    +0.114 A 
ATOM     10  N   UNL     1      -0.197   2.383   4.812  0.00  0.00    -0.221 NA
ATOM     11  C   UNL     1      -3.107   1.150   0.343  0.00  0.00    +0.043 C 
ATOM     12  C   UNL     1      -2.857  -0.237  -0.263  0.00  0.00    +0.005 C 
ATOM     13  C   UNL     1      -1.872  -0.085  -1.417  0.00  0.00    +0.001 C 
ATOM     14  C   UNL     1      -0.888   1.045  -1.120  0.00  0.00    +0.005 C 
ATOM     15  C   UNL     1      -0.064   0.721   0.120  0.00  0.00    +0.037 C 
ATOM     16  N   UNL     1       2.239   1.105   1.775  0.00  0.00    -0.343 N 
ATOM     17  H   UNL     1       1.911   0.493   1.098  0.00  0.00    +0.144 HD
ATOM     18  H   UNL     1       3.157   1.416   1.745  0.00  0.00    +0.144 HD
ENDBRANCH   1   2
BRANCH   1  19
ATOM     19  O   UNL     1       1.820   1.536   7.127  0.00  0.00    -0.456 OA
BRANCH  19  20
ATOM     20  C   UNL     1       2.359   1.717   8.343  0.00  0.00    +0.325 C 
ATOM     21  O   UNL     1       2.752   2.811   8.673  0.00  0.00    -0.249 OA
BRANCH  20  22
ATOM     22  C   UNL     1       2.475   0.556   9.297  0.00  0.00    +0.224 C 
BRANCH  22  34
ATOM     23  C   UNL     1       4.929   2.018  14.470  0.00  0.00    +0.001 A 
ATOM     24  C   UNL     1       5.045   0.966  15.361  0.00  0.00    +0.002 A 
ATOM     25  C   UNL     1       4.598  -0.295  14.993  0.00  0.00    +0.030 A 
ATOM     26  C   UNL     1       4.050  -0.481  13.757  0.00  0.00    +0.123 A 
ATOM     27  C   UNL     1       3.925   0.562  12.830  0.00  0.00    +0.043 A 
ATOM     28  C   UNL     1       4.377   1.832  13.222  0.00  0.00    +0.013 A 
ATOM     29  C   UNL     1       3.301   0.117  11.574  0.00  0.00    +0.150 C 
ATOM     30  N   UNL     1       2.956  -1.124  11.445  0.00  0.00    -0.113 NA
ATOM     31  S   UNL     1       3.369  -1.867  12.887  0.00  0.00    +0.101 S 
ATOM     32  O   UNL     1       2.165  -2.240  13.542  0.00  0.00    -0.146 OA
ATOM     33  O   UNL     1       4.429  -2.774  12.618  0.00  0.00    -0.146 OA
ATOM     34  N   UNL     1       3.091   1.010  10.546  0.00  0.00    -0.317 N 
ATOM     35  H   UNL     1       3.352   1.938  10.649  0.00  0.00    +0.148 HD
ENDBRANCH  22  34
ENDBRANCH  20  22
ENDBRANCH  19  20
ENDBRANCH   1  19
TORSDOF 5
