REMARK  Name = ZINC39970530
REMARK  7 active torsions:
REMARK  status: ('A' for Active; 'I' for Inactive)
REMARK    1  A    between atoms: C_3  and  S_17
REMARK    2  A    between atoms: C_6  and  N_7
REMARK    3  A    between atoms: N_7  and  C_8
REMARK    4  A    between atoms: C_8  and  N_10
REMARK    5  A    between atoms: N_10  and  N_11
REMARK    6  A    between atoms: S_17  and  N_20
REMARK    7  A    between atoms: N_20  and  C_21
REMARK                            x       y       z     vdW  Elec       q    Type
REMARK                         _______ _______ _______ _____ _____    ______ ____
ROOT
ATOM      1  C   UNL     1      -0.017   1.369  -0.249  0.00  0.00    +0.025 A 
ATOM      2  C   UNL     1       1.166   2.082  -0.249  0.00  0.00    +0.031 A 
ATOM      3  C   UNL     1       2.363   1.439   0.007  0.00  0.00    +0.110 A 
ATOM      4  C   UNL     1       2.381   0.080   0.264  0.00  0.00    +0.031 A 
ATOM      5  C   UNL     1       1.201  -0.639   0.265  0.00  0.00    +0.025 A 
ATOM      6  C   UNL     1      -0.003   0.004   0.009  0.00  0.00    +0.033 A 
ENDROOT
BRANCH   3   7
ATOM      7  S   UNL     1       3.870   2.352   0.005  0.00  0.00    +0.092 S 
ATOM      8  O   UNL     1       4.909   1.422  -0.267  0.00  0.00    -0.148 OA
ATOM      9  O   UNL     1       3.647   3.502  -0.800  0.00  0.00    -0.148 OA
BRANCH   7  10
ATOM     10  N   UNL     1       4.114   2.897   1.550  0.00  0.00    -0.098 NA
BRANCH  10  11
ATOM     11  C   UNL     1       5.245   3.660   1.851  0.00  0.00    +0.076 A 
ATOM     12  C   UNL     1       6.163   3.968   0.854  0.00  0.00    +0.028 A 
ATOM     13  C   UNL     1       7.280   4.722   1.153  0.00  0.00    +0.023 A 
ATOM     14  C   UNL     1       7.487   5.171   2.446  0.00  0.00    +0.059 A 
ATOM     15  C   UNL     1       6.575   4.866   3.442  0.00  0.00    +0.061 A 
ATOM     16  C   UNL     1       5.451   4.117   3.146  0.00  0.00    +0.048 A 
ATOM     17 CL   UNL     1       6.838   5.431   5.062  0.00  0.00    -0.082 Cl
ATOM     18 CL   UNL     1       8.893   6.119   2.819  0.00  0.00    -0.082 Cl
ENDBRANCH  10  11
ENDBRANCH   7  10
ENDBRANCH   3   7
BRANCH   6  19
ATOM     19  N   UNL     1      -1.199  -0.721   0.010  0.00  0.00    -0.296 N 
ATOM     20  H   UNL     1      -1.358  -1.393   0.692  0.00  0.00    +0.154 HD
BRANCH  19  21
ATOM     21  C   UNL     1      -2.130  -0.487  -0.936  0.00  0.00    +0.149 C 
ATOM     22  S   UNL     1      -1.793   0.594  -2.220  0.00  0.00    -0.017 S 
BRANCH  21  23
ATOM     23  N   UNL     1      -3.327  -1.104  -0.871  0.00  0.00    -0.259 N 
ATOM     24  H   UNL     1      -3.997  -0.935  -1.551  0.00  0.00    +0.168 HD
BRANCH  23  25
ATOM     25  N   UNL     1      -3.596  -1.967   0.154  0.00  0.00    -0.228 NA
ATOM     26  C   UNL     1      -3.797  -3.332  -0.347  0.00  0.00    +0.105 C 
ATOM     27  C   UNL     1      -3.951  -4.293   0.834  0.00  0.00    +0.017 C 
ATOM     28  C   UNL     1      -5.147  -3.860   1.686  0.00  0.00    +0.003 C 
ATOM     29  C   UNL     1      -4.935  -2.418   2.155  0.00  0.00    +0.017 C 
ATOM     30  C   UNL     1      -4.753  -1.512   0.935  0.00  0.00    +0.105 C 
ENDBRANCH  23  25
ENDBRANCH  21  23
ENDBRANCH  19  21
ENDBRANCH   6  19
TORSDOF 7
