REMARK  Name = ZINC54136542
REMARK  7 active torsions:
REMARK  status: ('A' for Active; 'I' for Inactive)
REMARK    1  A    between atoms: C_8  and  S_9
REMARK    2  A    between atoms: S_9  and  N_12
REMARK    3  A    between atoms: N_12  and  C_13
REMARK    4  A    between atoms: C_13  and  C_14
REMARK    5  A    between atoms: C_14  and  C_15
REMARK    6  A    between atoms: C_15  and  C_16
REMARK    7  A    between atoms: N_17  and  O_18
REMARK                            x       y       z     vdW  Elec       q    Type
REMARK                         _______ _______ _______ _____ _____    ______ ____
ROOT
ATOM      1  N   UNL     1      -1.324  -2.353   0.078  0.00  0.00    -0.194 NA
ATOM      2  H   UNL     1      -1.709  -2.891  -0.631  0.00  0.00    +0.148 HD
ENDROOT
BRANCH   1   3
ATOM      3  S   UNL     1      -1.474  -0.704   0.040  0.00  0.00    +0.032 S 
ATOM      4  O   UNL     1      -1.979  -0.357   1.322  0.00  0.00    -0.158 OA
ATOM      5  O   UNL     1      -2.229  -0.435  -1.133  0.00  0.00    -0.158 OA
BRANCH   3  13
ATOM      6  C   UNL     1       0.198   1.439  -0.198  0.00  0.00    +0.050 C 
ATOM      7  C   UNL     1       1.623   1.986  -0.089  0.00  0.00    +0.168 C 
ATOM      8  S   UNL     1       2.580   1.428  -1.529  0.00  0.00    -0.031 S 
ATOM      9  O   UNL     1       3.955   1.696  -1.290  0.00  0.00    -0.174 OA
ATOM     10  O   UNL     1       1.968   1.941  -2.705  0.00  0.00    -0.174 OA
ATOM     11  C   UNL     1       2.324  -0.371  -1.479  0.00  0.00    +0.168 C 
ATOM     12  C   UNL     1       0.821  -0.656  -1.434  0.00  0.00    +0.050 C 
ATOM     13  C   UNL     1       0.221  -0.086  -0.152  0.00  0.00    +0.151 C 
ENDBRANCH   3  13
ENDBRANCH   1   3
BRANCH   1  14
ATOM     14  C   UNL     1      -0.610  -2.999   1.182  0.00  0.00    +0.106 C 
BRANCH  14  15
ATOM     15  C   UNL     1      -0.928  -4.495   1.188  0.00  0.00    +0.024 C 
BRANCH  15  16
ATOM     16  C   UNL     1      -0.182  -5.170   2.342  0.00  0.00    +0.076 C 
BRANCH  16  17
ATOM     17  C   UNL     1      -0.583  -6.620   2.419  0.00  0.00    +0.132 C 
ATOM     18  N   UNL     1       0.218  -7.536   1.986  0.00  0.00    -0.077 NA
ATOM     19  N   UNL     1      -1.805  -6.970   2.952  0.00  0.00    -0.344 N 
ATOM     20  H   UNL     1      -2.407  -6.282   3.277  0.00  0.00    +0.144 HD
ATOM     21  H   UNL     1      -2.063  -7.903   3.001  0.00  0.00    +0.144 HD
BRANCH  18  22
ATOM     22  O   UNL     1       1.517  -7.188   1.542  0.00  0.00    -0.408 OA
ATOM     23  H   UNL     1       2.043  -7.940   1.237  0.00  0.00    +0.328 HD
ENDBRANCH  18  22
ENDBRANCH  16  17
ENDBRANCH  15  16
ENDBRANCH  14  15
ENDBRANCH   1  14
TORSDOF 7
