REMARK  Name = ZINC48403302
REMARK  4 active torsions:
REMARK  status: ('A' for Active; 'I' for Inactive)
REMARK    1  A    between atoms: C_1  and  C_2
REMARK    2  A    between atoms: C_7  and  N_8
REMARK    3  A    between atoms: N_8  and  C_9
REMARK    4  A    between atoms: C_9  and  C_19
REMARK                            x       y       z     vdW  Elec       q    Type
REMARK                         _______ _______ _______ _____ _____    ______ ____
ROOT
ATOM      1  C   UNL     1      -0.012  -0.624   3.620  0.00  0.00    +0.022 C 
ATOM      2  C   UNL     1      -0.065   0.116   4.787  0.00  0.00    +0.116 C 
ATOM      3  C   UNL     1      -0.227   1.581   4.762  0.00  0.00    +0.256 C 
ATOM      4  O   UNL     1      -0.319   2.182   3.708  0.00  0.00    -0.270 OA
ATOM      5  N   UNL     1      -0.271   2.237   5.940  0.00  0.00    -0.263 N 
ATOM      6  C   UNL     1      -0.171   1.587   7.108  0.00  0.00    +0.143 C 
ATOM      7  S   UNL     1      -0.236   2.503   8.553  0.00  0.00    -0.018 S 
ATOM      8  N   UNL     1      -0.023   0.259   7.205  0.00  0.00    -0.263 N 
ATOM      9  C   UNL     1       0.032  -0.527   6.110  0.00  0.00    +0.256 C 
ATOM     10  O   UNL     1       0.161  -1.732   6.211  0.00  0.00    -0.270 OA
ATOM     11  C   UNL     1       0.022  -2.129   3.683  0.00  0.00    +0.061 C 
ATOM     12  H   UNL     1      -0.377   3.201   5.941  0.00  0.00    +0.157 HD
ATOM     13  H   UNL     1       0.043  -0.148   8.084  0.00  0.00    +0.157 HD
ENDROOT
BRANCH   1  14
ATOM     14  N   UNL     1       0.009   0.002   2.425  0.00  0.00    -0.317 N 
ATOM     15  H   UNL     1       0.733   0.610   2.208  0.00  0.00    +0.152 HD
BRANCH  14  22
ATOM     16  C   UNL     1       0.269   1.143  -0.169  0.00  0.00    +0.046 C 
ATOM     17  C   UNL     1      -0.927   0.312   0.221  0.00  0.00    -0.028 A 
ATOM     18  C   UNL     1      -1.936   0.081  -0.694  0.00  0.00    +0.020 A 
ATOM     19  C   UNL     1      -3.034  -0.681  -0.337  0.00  0.00    +0.018 A 
ATOM     20  C   UNL     1      -3.125  -1.215   0.937  0.00  0.00    +0.017 A 
ATOM     21  C   UNL     1      -2.119  -0.987   1.855  0.00  0.00    +0.024 A 
ATOM     22  C   UNL     1      -1.013  -0.226   1.498  0.00  0.00    +0.034 A 
ATOM     23 BR   UNL     1      -4.413  -0.995  -1.592  0.00  0.00    -0.050 Br
ENDBRANCH  14  22
ENDBRANCH   1  14
TORSDOF 2
