REMARK  Name = ZINC20006826
REMARK  4 active torsions:
REMARK  status: ('A' for Active; 'I' for Inactive)
REMARK    1  A    between atoms: C_4  and  C_8
REMARK    2  A    between atoms: C_8  and  C_10
REMARK    3  A    between atoms: C_8  and  N_20
REMARK    4  A    between atoms: C_12  and  N_17
REMARK                            x       y       z     vdW  Elec       q    Type
REMARK                         _______ _______ _______ _____ _____    ______ ____
ROOT
ATOM      1  C   UNL     1       0.002  -0.004   0.002  0.00  0.00    +0.115 C 
ENDROOT
BRANCH   1   5
ATOM      2  C   UNL     1      -0.640  -1.460   3.969  0.00  0.00    +0.018 A 
ATOM      3  C   UNL     1       0.614  -1.015   3.591  0.00  0.00    +0.040 A 
ATOM      4  C   UNL     1       0.824  -0.548   2.305  0.00  0.00    +0.128 A 
ATOM      5  C   UNL     1      -0.224  -0.517   1.401  0.00  0.00    +0.010 A 
ATOM      6  C   UNL     1      -1.476  -0.963   1.779  0.00  0.00    +0.023 A 
ATOM      7  C   UNL     1      -1.685  -1.434   3.063  0.00  0.00    +0.018 A 
ATOM      8 BR   UNL     1      -3.399  -2.042   3.580  0.00  0.00    -0.050 Br
ATOM      9  F   UNL     1       2.049  -0.117   1.935  0.00  0.00    -0.205 F 
ENDBRANCH   1   5
BRANCH   1  10
ATOM     10  C   UNL     1      -0.018   1.503   0.010  0.00  0.00    -0.023 A 
ATOM     11  C   UNL     1       1.170   2.210   0.003  0.00  0.00    +0.038 A 
ATOM     12  C   UNL     1       1.152   3.592   0.010  0.00  0.00    +0.128 A 
ATOM     13  C   UNL     1      -0.054   4.268   0.025  0.00  0.00    +0.052 A 
ATOM     14  C   UNL     1      -1.243   3.561   0.034  0.00  0.00    +0.043 A 
ATOM     15  C   UNL     1      -1.224   2.177   0.020  0.00  0.00    +0.025 A 
ATOM     16 CL   UNL     1      -2.758   4.409   0.053  0.00  0.00    -0.083 Cl
BRANCH  12  17
ATOM     17  N   UNL     1       2.424   4.349   0.001  0.00  0.00    +0.056 N 
ATOM     18  O   UNL     1       3.486   3.753  -0.012  0.00  0.00    -0.126 OA
ATOM     19  O   UNL     1       2.408   5.567   0.008  0.00  0.00    -0.126 OA
ENDBRANCH  12  17
ENDBRANCH   1  10
BRANCH   1  20
ATOM     20  N   UNL     1      -1.061  -0.503  -0.881  0.00  0.00    -0.320 NA
ATOM     21  H   UNL     1      -0.895  -0.129  -1.902  0.00  0.00    +0.119 HD
ATOM     22  H   UNL     1      -1.046  -1.603  -0.887  0.00  0.00    +0.119 HD
ENDBRANCH   1  20
TORSDOF 4
