REMARK  Name = ZINC40569290
REMARK  6 active torsions:
REMARK  status: ('A' for Active; 'I' for Inactive)
REMARK    1  A    between atoms: C_1  and  C_2
REMARK    2  A    between atoms: C_2  and  C_3
REMARK    3  A    between atoms: C_3  and  C_4
REMARK    4  A    between atoms: C_11  and  C_19
REMARK    5  A    between atoms: C_13  and  C_17
REMARK    6  A    between atoms: C_14  and  N_16
REMARK                            x       y       z     vdW  Elec       q    Type
REMARK                         _______ _______ _______ _____ _____    ______ ____
ROOT
ATOM      1  C   UNL     1       0.762  -2.018   1.233  0.00  0.00    +0.113 A 
ATOM      2  C   UNL     1       1.832  -2.661   0.729  0.00  0.00    +0.088 A 
ATOM      3  C   UNL     1       1.858  -4.075   0.718  0.00  0.00    +0.144 A 
ATOM      4  C   UNL     1       0.777  -4.761   1.230  0.00  0.00    +0.092 A 
ATOM      5  C   UNL     1      -0.308  -4.037   1.741  0.00  0.00    +0.345 A 
ATOM      6  O   UNL     1      -1.274  -4.626   2.198  0.00  0.00    -0.245 OA
ATOM      7  O   UNL     1      -0.282  -2.693   1.733  0.00  0.00    -0.427 OA
ATOM      8  C   UNL     1       0.756  -6.264   1.243  0.00  0.00    +0.105 C 
ATOM      9  C   UNL     1       1.807  -6.804   0.312  0.00  0.00    +0.098 C 
ATOM     10  C   UNL     1       2.813  -6.020  -0.141  0.00  0.00    +0.199 C 
ATOM     11  O   UNL     1       2.925  -4.728   0.214  0.00  0.00    -0.441 OA
ENDROOT
BRANCH   8  12
ATOM     12  C   UNL     1       1.031  -6.756   2.641  0.00  0.00    -0.033 A 
ATOM     13  C   UNL     1       2.219  -6.426   3.268  0.00  0.00    +0.006 A 
ATOM     14  C   UNL     1       2.472  -6.877   4.550  0.00  0.00    +0.022 A 
ATOM     15  C   UNL     1       1.538  -7.658   5.206  0.00  0.00    +0.059 A 
ATOM     16  C   UNL     1       0.348  -7.987   4.578  0.00  0.00    +0.060 A 
ATOM     17  C   UNL     1       0.094  -7.531   3.297  0.00  0.00    +0.026 A 
ATOM     18 CL   UNL     1      -0.825  -8.967   5.400  0.00  0.00    -0.082 Cl
ATOM     19 CL   UNL     1       1.856  -8.224   6.816  0.00  0.00    -0.082 Cl
ENDBRANCH   8  12
BRANCH  10  20
ATOM     20  N   UNL     1       3.748  -6.560  -0.989  0.00  0.00    -0.328 N 
ATOM     21  H   UNL     1       3.681  -7.491  -1.254  0.00  0.00    +0.145 HD
ATOM     22  H   UNL     1       4.475  -6.012  -1.322  0.00  0.00    +0.145 HD
ENDBRANCH  10  20
BRANCH   9  23
ATOM     23  C   UNL     1       1.741  -8.173  -0.103  0.00  0.00    +0.101 C 
ATOM     24  N   UNL     1       1.689  -9.259  -0.432  0.00  0.00    -0.191 NA
ENDBRANCH   9  23
BRANCH   1  25
ATOM     25  C   UNL     1       0.742  -0.511   1.242  0.00  0.00    +0.074 C 
BRANCH  25  27
ATOM     26  C   UNL     1      -0.019   1.526   0.010  0.00  0.00    +0.004 C 
ATOM     27  C   UNL     1       0.002  -0.004   0.002  0.00  0.00    +0.004 C 
ENDBRANCH  25  27
ENDBRANCH   1  25
TORSDOF 5
