REMARK  Name = ZINC67317603
REMARK  6 active torsions:
REMARK  status: ('A' for Active; 'I' for Inactive)
REMARK    1  A    between atoms: C_3  and  O_29
REMARK    2  A    between atoms: C_6  and  C_7
REMARK    3  A    between atoms: N_14  and  C_17
REMARK    4  A    between atoms: C_17  and  C_18
REMARK    5  A    between atoms: N_20  and  C_21
REMARK    6  A    between atoms: O_29  and  C_30
REMARK                            x       y       z     vdW  Elec       q    Type
REMARK                         _______ _______ _______ _____ _____    ______ ____
ROOT
ATOM      1  C   UNL     1      -1.300  -0.765  -0.031  0.00  0.00    +0.168 C 
ATOM      2  N   UNL     1      -2.477  -0.228  -0.017  0.00  0.00    -0.067 NA
ATOM      3  O   UNL     1      -3.487  -1.222  -0.001  0.00  0.00    -0.366 OA
ATOM      4  C   UNL     1      -2.810  -2.483  -0.006  0.00  0.00    +0.201 C 
ATOM      5  N   UNL     1      -1.382  -2.147  -0.031  0.00  0.00    -0.287 N 
ATOM      6  C   UNL     1      -3.185  -3.284  -1.251  0.00  0.00    +0.053 C 
ATOM      7  C   UNL     1      -2.485  -4.645  -1.205  0.00  0.00    -0.073 C 
ATOM      8  N   UNL     1      -2.896  -5.368   0.004  0.00  0.00    +0.386 N 
ATOM      9  C   UNL     1      -2.455  -4.638   1.198  0.00  0.00    -0.073 C 
ATOM     10  C   UNL     1      -3.153  -3.276   1.253  0.00  0.00    +0.053 C 
ATOM     11  H   UNL     1      -0.640  -2.772  -0.043  0.00  0.00    +0.151 HD
ATOM     12  H   UNL     1      -3.901  -5.456   0.017  0.00  0.00    -0.081 HD
ENDROOT
BRANCH   1  18
ATOM     13  C   UNL     1      -0.056   1.393  -0.048  0.00  0.00    +0.015 A 
ATOM     14  C   UNL     1       1.127   2.100  -0.065  0.00  0.00    +0.046 A 
ATOM     15  C   UNL     1       2.341   1.425  -0.085  0.00  0.00    +0.130 A 
ATOM     16  C   UNL     1       2.368   0.036  -0.086  0.00  0.00    +0.046 A 
ATOM     17  C   UNL     1       1.189  -0.677  -0.070  0.00  0.00    +0.015 A 
ATOM     18  C   UNL     1      -0.033  -0.003  -0.050  0.00  0.00    +0.018 A 
BRANCH  15  19
ATOM     19  O   UNL     1       3.505   2.125  -0.102  0.00  0.00    -0.406 OA
BRANCH  19  20
ATOM     20  C   UNL     1       4.717   1.369  -0.122  0.00  0.00    +0.575 C 
ATOM     21  F   UNL     1       4.745   0.563  -1.265  0.00  0.00    -0.133 F 
ATOM     22  F   UNL     1       5.811   2.241  -0.138  0.00  0.00    -0.133 F 
ATOM     23  F   UNL     1       4.781   0.562   1.019  0.00  0.00    -0.133 F 
ENDBRANCH  19  20
ENDBRANCH  15  19
ENDBRANCH   1  18
BRANCH   8  24
ATOM     24  C   UNL     1      -2.291  -6.707   0.001  0.00  0.00    +0.019 C 
BRANCH  24  25
ATOM     25  C   UNL     1      -2.808  -7.495   1.177  0.00  0.00    +0.201 C 
ATOM     26  O   UNL     1      -3.602  -6.990   1.943  0.00  0.00    -0.278 OA
ATOM     27  N   UNL     1      -2.388  -8.760   1.378  0.00  0.00    -0.286 N 
ATOM     28  H   UNL     1      -1.804  -9.185   0.731  0.00  0.00    +0.155 HD
BRANCH  27  29
ATOM     29  C   UNL     1      -2.794  -9.459   2.521  0.00  0.00    +0.055 A 
ATOM     30  C   UNL     1      -4.063  -9.255   3.046  0.00  0.00    +0.063 A 
ATOM     31  C   UNL     1      -4.461  -9.948   4.175  0.00  0.00    +0.125 A 
ATOM     32  C   UNL     1      -3.595 -10.844   4.781  0.00  0.00    +0.040 A 
ATOM     33  C   UNL     1      -2.331 -11.047   4.259  0.00  0.00    +0.024 A 
ATOM     34  C   UNL     1      -1.930 -10.362   3.128  0.00  0.00    +0.062 A 
ATOM     35 CL   UNL     1      -0.345 -10.624   2.470  0.00  0.00    -0.082 Cl
ATOM     36  F   UNL     1      -5.695  -9.751   4.688  0.00  0.00    -0.205 F 
ENDBRANCH  27  29
ENDBRANCH  24  25
ENDBRANCH   8  24
TORSDOF 6
