REMARK  Name = ZINC02924296
REMARK  6 active torsions:
REMARK  status: ('A' for Active; 'I' for Inactive)
REMARK    1  A    between atoms: C_13  and  C_14
REMARK    2  A    between atoms: C_14  and  O_15
REMARK    3  A    between atoms: O_15  and  C_16
REMARK    4  A    between atoms: N_18  and  N_19
REMARK    5  A    between atoms: C_20  and  C_22
REMARK    6  A    between atoms: C_22  and  N_23
REMARK                            x       y       z     vdW  Elec       q    Type
REMARK                         _______ _______ _______ _____ _____    ______ ____
ROOT
ATOM      1  C   UNL     1       4.416  -0.773   1.209  0.00  0.00    +0.246 C 
ENDROOT
BRANCH   1  14
ATOM      2  C   UNL     1      -0.017   1.375   0.010  0.00  0.00    +0.001 A 
ATOM      3  C   UNL     1       1.169   2.088   0.002  0.00  0.00    +0.000 A 
ATOM      4  C   UNL     1       2.380   1.420  -0.013  0.00  0.00    +0.005 A 
ATOM      5  C   UNL     1       2.408   0.042  -0.021  0.00  0.00    -0.029 A 
ATOM      6  C   UNL     1       1.221  -0.685  -0.013  0.00  0.00    -0.014 A 
ATOM      7  C   UNL     1       0.002  -0.004   0.002  0.00  0.00    +0.009 A 
ATOM      8  C   UNL     1       1.530  -2.136  -0.025  0.00  0.00    -0.014 A 
ATOM      9  C   UNL     1       0.694  -3.254  -0.023  0.00  0.00    +0.009 A 
ATOM     10  C   UNL     1       1.238  -4.521  -0.035  0.00  0.00    +0.001 A 
ATOM     11  C   UNL     1       2.611  -4.690  -0.050  0.00  0.00    +0.000 A 
ATOM     12  C   UNL     1       3.445  -3.587  -0.052  0.00  0.00    +0.005 A 
ATOM     13  C   UNL     1       2.910  -2.316  -0.040  0.00  0.00    -0.029 A 
ATOM     14  C   UNL     1       3.547  -0.948  -0.038  0.00  0.00    +0.088 C 
ENDBRANCH   1  14
BRANCH   1  15
ATOM     15  O   UNL     1       5.553  -1.635   1.122  0.00  0.00    -0.448 OA
BRANCH  15  16
ATOM     16  C   UNL     1       6.424  -1.603   2.148  0.00  0.00    +0.417 C 
ATOM     17  O   UNL     1       6.225  -0.862   3.091  0.00  0.00    -0.225 OA
ATOM     18  N   UNL     1       7.517  -2.391   2.129  0.00  0.00    -0.200 N 
ATOM     19  H   UNL     1       8.145  -2.367   2.868  0.00  0.00    +0.176 HD
BRANCH  18  20
ATOM     20  N   UNL     1       7.746  -3.244   1.042  0.00  0.00    -0.233 N 
ATOM     21  C   UNL     1       8.839  -4.033   1.023  0.00  0.00    +0.212 C 
ATOM     22  O   UNL     1       9.624  -4.003   1.946  0.00  0.00    -0.276 OA
ATOM     23  H   UNL     1       7.118  -3.268   0.303  0.00  0.00    +0.173 HD
BRANCH  21  24
ATOM     24  C   UNL     1       9.086  -4.951  -0.147  0.00  0.00    +0.012 C 
BRANCH  24  25
ATOM     25  N   UNL     1      10.332  -5.697   0.071  0.00  0.00    +0.384 N 
ATOM     26  H   UNL     1      10.497  -6.312  -0.712  0.00  0.00    -0.089 HD
ATOM     27  H   UNL     1      11.101  -5.050   0.159  0.00  0.00    -0.089 HD
ATOM     28  H   UNL     1      10.254  -6.243   0.916  0.00  0.00    -0.089 HD
ENDBRANCH  24  25
ENDBRANCH  21  24
ENDBRANCH  18  20
ENDBRANCH  15  16
ENDBRANCH   1  15
TORSDOF 6
