REMARK  Name = ZINC31157118
REMARK  13 active torsions:
REMARK  status: ('A' for Active; 'I' for Inactive)
REMARK    1  A    between atoms: C_1  and  C_2
REMARK    2  A    between atoms: C_2  and  O_4
REMARK    3  A    between atoms: O_4  and  C_5
REMARK    4  A    between atoms: C_10  and  C_31
REMARK    5  A    between atoms: C_10  and  C_32
REMARK    6  A    between atoms: C_13  and  O_30
REMARK    7  A    between atoms: C_15  and  C_29
REMARK    8  A    between atoms: C_18  and  O_28
REMARK    9  A    between atoms: C_20  and  C_25
REMARK   10  A    between atoms: C_20  and  C_26
REMARK   11  A    between atoms: C_22  and  O_24
REMARK   12  A    between atoms: C_32  and  O_34
REMARK   13  A    between atoms: O_34  and  C_35
REMARK                            x       y       z     vdW  Elec       q    Type
REMARK                         _______ _______ _______ _____ _____    ______ ____
ROOT
ATOM      1  C   UNL     1      -0.231  -1.683  -0.798  0.00  0.00    +0.205 C 
ATOM      2  C   UNL     1       1.188  -2.229  -0.660  0.00  0.00    +0.055 C 
ATOM      3  C   UNL     1       1.794  -2.252  -2.063  0.00  0.00    +0.022 C 
ATOM      4  C   UNL     1       3.303  -2.345  -2.055  0.00  0.00    +0.069 C 
ATOM      5  C   UNL     1       3.873  -2.540  -3.461  0.00  0.00    +0.020 C 
ATOM      6  C   UNL     1       3.147  -3.642  -4.223  0.00  0.00    +0.033 C 
ATOM      7  C   UNL     1       1.653  -3.307  -4.308  0.00  0.00    +0.125 C 
ATOM      8  C   UNL     1       1.065  -3.284  -2.900  0.00  0.00    +0.022 C 
ATOM      9  C   UNL     1      -0.426  -2.975  -2.928  0.00  0.00    -0.028 C 
ATOM     10  C   UNL     1      -0.972  -2.274  -1.973  0.00  0.00    +0.002 C 
ATOM     11  C   UNL     1      -2.470  -2.027  -1.943  0.00  0.00    +0.154 C 
ATOM     12  C   UNL     1      -3.202  -3.202  -2.580  0.00  0.00    +0.018 C 
ATOM     13  C   UNL     1      -2.710  -3.330  -4.020  0.00  0.00    +0.049 C 
ATOM     14  C   UNL     1      -1.207  -3.549  -4.079  0.00  0.00    +0.142 C 
ATOM     15  C   UNL     1      -2.925  -4.485  -1.796  0.00  0.00    +0.018 C 
ATOM     16  C   UNL     1       1.190  -4.688  -2.299  0.00  0.00    +0.019 C 
ATOM     17  C   UNL     1       3.825  -3.434  -1.118  0.00  0.00    +0.023 C 
ENDROOT
BRANCH  14  18
ATOM     18  O   UNL     1      -0.760  -2.962  -5.311  0.00  0.00    -0.387 OA
ATOM     19  H   UNL     1      -1.224  -3.289  -6.094  0.00  0.00    +0.210 HD
ENDBRANCH  14  18
BRANCH  12  20
ATOM     20  C   UNL     1      -4.688  -2.925  -2.572  0.00  0.00    -0.025 C 
ATOM     21  C   UNL     1      -5.351  -2.873  -3.701  0.00  0.00    +0.004 C 
ENDBRANCH  12  20
BRANCH  11  22
ATOM     22  O   UNL     1      -2.765  -0.835  -2.668  0.00  0.00    -0.387 OA
ATOM     23  H   UNL     1      -2.336  -0.043  -2.315  0.00  0.00    +0.210 HD
ENDBRANCH  11  22
BRANCH   7  24
ATOM     24  O   UNL     1       1.514  -2.015  -4.907  0.00  0.00    -0.391 OA
ATOM     25  H   UNL     1       1.881  -1.954  -5.800  0.00  0.00    +0.210 HD
ENDBRANCH   7  24
BRANCH   4  26
ATOM     26  C   UNL     1       3.853  -1.015  -1.546  0.00  0.00    +0.313 C 
ATOM     27  O   UNL     1       3.095  -0.126  -1.238  0.00  0.00    -0.250 OA
BRANCH  26  28
ATOM     28  O   UNL     1       5.179  -0.833  -1.441  0.00  0.00    -0.468 OA
ATOM     29  C   UNL     1       5.623   0.436  -0.958  0.00  0.00    +0.280 C 
ENDBRANCH  26  28
ENDBRANCH   4  26
BRANCH   1  30
ATOM     30  O   UNL     1      -0.168  -0.263  -0.945  0.00  0.00    -0.457 OA
BRANCH  30  32
ATOM     31  C   UNL     1      -0.097   1.970   0.104  0.00  0.00    +0.136 C 
ATOM     32  C   UNL     1      -0.162   0.467   0.181  0.00  0.00    +0.305 C 
ATOM     33  O   UNL     1      -0.209  -0.081   1.256  0.00  0.00    -0.251 OA
ENDBRANCH  30  32
ENDBRANCH   1  30
TORSDOF 8
