REMARK  Name = ZINC29728864
REMARK  6 active torsions:
REMARK  status: ('A' for Active; 'I' for Inactive)
REMARK    1  A    between atoms: C_1  and  C_2
REMARK    2  A    between atoms: C_2  and  C_4
REMARK    3  A    between atoms: C_2  and  N_7
REMARK    4  A    between atoms: N_10  and  C_11
REMARK    5  A    between atoms: N_14  and  S_17
REMARK    6  A    between atoms: S_17  and  C_20
REMARK                            x       y       z     vdW  Elec       q    Type
REMARK                         _______ _______ _______ _____ _____    ______ ____
ROOT
ATOM      1  N   UNL     1      -3.182   1.735  -2.103  0.00  0.00    -0.297 N 
ATOM      2  C   UNL     1      -4.416   1.250  -2.343  0.00  0.00    +0.300 C 
ATOM      3  O   UNL     1      -4.698   0.114  -2.013  0.00  0.00    -0.253 OA
ATOM      4  N   UNL     1      -5.339   2.024  -2.949  0.00  0.00    -0.296 N 
ATOM      5  H   UNL     1      -2.927   2.762  -2.402  0.00  0.00    +0.151 HD
ATOM      6  H   UNL     1      -5.084   3.051  -3.247  0.00  0.00    +0.151 HD
ENDROOT
BRANCH   4   7
ATOM      7  C   UNL     1      -6.680   1.496  -3.209  0.00  0.00    +0.077 C 
ATOM      8  C   UNL     1      -6.676   0.721  -4.529  0.00  0.00    +0.039 C 
ATOM      9  C   UNL     1      -8.072   0.142  -4.781  0.00  0.00    +0.111 C 
ATOM     10  N   UNL     1      -9.054   1.234  -4.726  0.00  0.00    -0.181 NA
ATOM     11  C   UNL     1      -9.082   2.099  -3.539  0.00  0.00    +0.111 C 
ATOM     12  C   UNL     1      -7.675   2.656  -3.300  0.00  0.00    +0.039 C 
BRANCH  10  13
ATOM     13  S   UNL     1     -10.108   1.485  -5.978  0.00  0.00    +0.029 S 
ATOM     14  O   UNL     1     -10.243   0.213  -6.598  0.00  0.00    -0.158 OA
ATOM     15  O   UNL     1     -11.229   2.125  -5.385  0.00  0.00    -0.158 OA
ATOM     16  C   UNL     1      -9.248   2.633  -7.088  0.00  0.00    +0.215 C 
ENDBRANCH  10  13
ENDBRANCH   4   7
BRANCH   1  18
ATOM     17  C   UNL     1      -1.476   0.025  -2.490  0.00  0.00    +0.028 C 
ATOM     18  C   UNL     1      -2.179   0.893  -1.445  0.00  0.00    +0.074 C 
BRANCH  18  19
ATOM     19  C   UNL     1      -1.150   1.781  -0.743  0.00  0.00    +0.009 C 
ATOM     20  C   UNL     1      -0.013   1.086   0.008  0.00  0.00    +0.005 C 
ATOM     21  C   UNL     1      -1.136   1.773   0.788  0.00  0.00    +0.005 C 
ENDBRANCH  18  19
ENDBRANCH   1  18
TORSDOF 4
