REMARK  Name = ZINC48871589
REMARK  7 active torsions:
REMARK  status: ('A' for Active; 'I' for Inactive)
REMARK    1  A    between atoms: C_1  and  C_2
REMARK    2  A    between atoms: C_2  and  C_4
REMARK    3  A    between atoms: C_2  and  N_15
REMARK    4  A    between atoms: N_6  and  C_7
REMARK    5  A    between atoms: N_15  and  C_16
REMARK    6  A    between atoms: N_15  and  C_17
REMARK    7  A    between atoms: C_17  and  C_18
REMARK                            x       y       z     vdW  Elec       q    Type
REMARK                         _______ _______ _______ _____ _____    ______ ____
ROOT
ATOM      1  C   UNL     1      -1.387  -0.281  -0.181  0.00  0.00    +0.203 C 
ATOM      2  O   UNL     1      -1.769  -0.756  -1.230  0.00  0.00    -0.277 OA
ATOM      3  N   UNL     1      -2.264  -0.062   0.819  0.00  0.00    -0.286 N 
ATOM      4  H   UNL     1      -1.974   0.385   1.629  0.00  0.00    +0.155 HD
ENDROOT
BRANCH   3   5
ATOM      5  C   UNL     1      -3.595  -0.480   0.687  0.00  0.00    +0.052 A 
ATOM      6  C   UNL     1      -4.211  -0.456  -0.557  0.00  0.00    +0.027 A 
ATOM      7  C   UNL     1      -5.524  -0.868  -0.685  0.00  0.00    +0.040 A 
ATOM      8  C   UNL     1      -6.225  -1.305   0.427  0.00  0.00    +0.125 A 
ATOM      9  C   UNL     1      -5.613  -1.330   1.669  0.00  0.00    +0.060 A 
ATOM     10  C   UNL     1      -4.298  -0.924   1.800  0.00  0.00    +0.065 A 
ATOM     11 CL   UNL     1      -3.529  -0.962   3.356  0.00  0.00    -0.082 Cl
ATOM     12  F   UNL     1      -7.508  -1.708   0.299  0.00  0.00    -0.205 F 
ENDBRANCH   3   5
BRANCH   1  14
ATOM     13  C   UNL     1       0.242   1.583  -0.043  0.00  0.00    -0.004 C 
ATOM     14  C   UNL     1       0.068   0.064   0.004  0.00  0.00    +0.017 C 
BRANCH  14  15
ATOM     15  N   UNL     1       0.858  -0.553  -1.069  0.00  0.00    +0.391 N 
ATOM     16  C   UNL     1       0.800  -2.015  -0.942  0.00  0.00    -0.094 C 
ATOM     17  H   UNL     1       0.481  -0.278  -1.964  0.00  0.00    -0.080 HD
BRANCH  15  18
ATOM     18  C   UNL     1       2.254  -0.108  -0.968  0.00  0.00    +0.019 C 
BRANCH  18  19
ATOM     19  C   UNL     1       3.038  -0.641  -2.139  0.00  0.00    +0.194 C 
ATOM     20  O   UNL     1       2.488  -1.325  -2.976  0.00  0.00    -0.278 OA
ATOM     21  N   UNL     1       4.351  -0.358  -2.256  0.00  0.00    -0.331 N 
ATOM     22  H   UNL     1       4.790   0.189  -1.587  0.00  0.00    +0.145 HD
ATOM     23  H   UNL     1       4.855  -0.702  -3.010  0.00  0.00    +0.145 HD
ENDBRANCH  18  19
ENDBRANCH  15  18
ENDBRANCH  14  15
ENDBRANCH   1  14
TORSDOF 5
