REMARK  Name = ZINC04157123
REMARK  9 active torsions:
REMARK  status: ('A' for Active; 'I' for Inactive)
REMARK    1  A    between atoms: C_1  and  C_2
REMARK    2  A    between atoms: C_2  and  C_31
REMARK    3  A    between atoms: C_20  and  C_24
REMARK    4  A    between atoms: C_21  and  N_23
REMARK    5  A    between atoms: C_24  and  O_26
REMARK    6  A    between atoms: O_26  and  C_27
REMARK    7  A    between atoms: C_27  and  C_28
REMARK    8  A    between atoms: C_27  and  C_29
REMARK    9  A    between atoms: C_27  and  C_30
REMARK                            x       y       z     vdW  Elec       q    Type
REMARK                         _______ _______ _______ _____ _____    ______ ____
ROOT
ATOM      1  C   UNL     1       1.661   5.354  -3.677  0.00  0.00    +0.012 C 
ATOM      2  C   UNL     1       0.770   6.597  -3.670  0.00  0.00    -0.021 C 
ATOM      3  C   UNL     1       1.166   7.508  -2.506  0.00  0.00    +0.081 C 
ATOM      4  C   UNL     1       0.975   6.775  -1.199  0.00  0.00    +0.116 C 
ATOM      5  C   UNL     1       0.003   5.854  -1.065  0.00  0.00    +0.057 C 
ATOM      6  C   UNL     1      -0.845   5.523  -2.139  0.00  0.00    +0.165 C 
ATOM      7  O   UNL     1      -1.717   4.693  -1.976  0.00  0.00    -0.292 OA
ATOM      8  C   UNL     1      -0.693   6.180  -3.484  0.00  0.00    +0.086 C 
ATOM      9  C   UNL     1      -0.200   5.146   0.250  0.00  0.00    +0.141 C 
ATOM     10  C   UNL     1       0.290   3.734   0.176  0.00  0.00    -0.001 A 
ATOM     11  C   UNL     1       1.545   3.215  -0.059  0.00  0.00    +0.022 A 
ATOM     12  C   UNL     1       1.664   1.828  -0.058  0.00  0.00    +0.018 A 
ATOM     13  C   UNL     1       0.573   1.013   0.170  0.00  0.00    +0.017 A 
ATOM     14  C   UNL     1      -0.693   1.529   0.401  0.00  0.00    +0.025 A 
ATOM     15  C   UNL     1      -0.825   2.919   0.407  0.00  0.00    +0.038 A 
ATOM     16  N   UNL     1      -1.953   3.693   0.611  0.00  0.00    -0.284 N 
ATOM     17  C   UNL     1      -1.681   5.013   0.537  0.00  0.00    +0.237 C 
ATOM     18  O   UNL     1      -2.474   5.921   0.674  0.00  0.00    -0.274 OA
ATOM     19 BR   UNL     1       3.355   1.044  -0.374  0.00  0.00    -0.050 Br
ATOM     20  C   UNL     1       0.474   5.893   1.364  0.00  0.00    +0.117 C 
ATOM     21  C   UNL     1       1.433   6.816   1.084  0.00  0.00    +0.195 C 
ATOM     22  O   UNL     1       1.801   7.076  -0.179  0.00  0.00    -0.446 OA
ATOM     23  C   UNL     1       0.926   7.349  -4.993  0.00  0.00    +0.012 C 
ATOM     24  H   UNL     1      -2.835   3.331   0.787  0.00  0.00    +0.155 HD
ENDROOT
BRANCH  21  25
ATOM     25  N   UNL     1       2.034   7.492   2.111  0.00  0.00    -0.329 N 
ATOM     26  H   UNL     1       2.967   7.751   2.042  0.00  0.00    +0.145 HD
ATOM     27  H   UNL     1       1.528   7.713   2.909  0.00  0.00    +0.145 HD
ENDBRANCH  21  25
BRANCH  20  28
ATOM     28  C   UNL     1       0.115   5.639   2.697  0.00  0.00    +0.342 C 
ATOM     29  O   UNL     1       0.734   6.162   3.605  0.00  0.00    -0.245 OA
BRANCH  28  30
ATOM     30  O   UNL     1      -0.918   4.813   2.972  0.00  0.00    -0.455 OA
BRANCH  30  31
ATOM     31  C   UNL     1      -1.229   4.599   4.350  0.00  0.00    +0.106 C 
ATOM     32  C   UNL     1      -1.584   5.935   5.006  0.00  0.00    +0.055 C 
ATOM     33  C   UNL     1      -2.418   3.643   4.463  0.00  0.00    +0.055 C 
ATOM     34  C   UNL     1      -0.016   3.991   5.058  0.00  0.00    +0.055 C 
ENDBRANCH  30  31
ENDBRANCH  28  30
ENDBRANCH  20  28
TORSDOF 4
