REMARK  Name = ZINC61593911
REMARK  5 active torsions:
REMARK  status: ('A' for Active; 'I' for Inactive)
REMARK    1  A    between atoms: C_1  and  C_2
REMARK    2  A    between atoms: C_2  and  N_3
REMARK    3  A    between atoms: C_9  and  S_10
REMARK    4  A    between atoms: S_10  and  C_11
REMARK    5  A    between atoms: C_14  and  N_18
REMARK                            x       y       z     vdW  Elec       q    Type
REMARK                         _______ _______ _______ _____ _____    ______ ____
ROOT
ATOM      1  S   UNL     1      -1.631  -0.582  -2.773  0.00  0.00    -0.048 S 
ENDROOT
BRANCH   1   8
ATOM      2  N   UNL     1      -1.466  -0.309   0.007  0.00  0.00    -0.271 N 
ATOM      3  C   UNL     1      -2.252  -0.452   1.093  0.00  0.00    +0.345 A 
ATOM      4  O   UNL     1      -1.925  -0.254   2.250  0.00  0.00    -0.245 OA
ATOM      5  N   UNL     1      -3.467  -0.854   0.667  0.00  0.00    -0.226 N 
ATOM      6  H   UNL     1      -4.239  -1.039   1.224  0.00  0.00    +0.194 HD
ATOM      7  N   UNL     1      -3.409  -0.957  -0.730  0.00  0.00    -0.144 NA
ATOM      8  C   UNL     1      -2.209  -0.622  -1.109  0.00  0.00    +0.197 A 
BRANCH   2  10
ATOM      9  C   UNL     1       0.010   1.638  -0.096  0.00  0.00    +0.027 C 
ATOM     10  C   UNL     1      -0.064   0.113   0.013  0.00  0.00    +0.125 C 
ENDBRANCH   2  10
ENDBRANCH   1   8
BRANCH   1  11
ATOM     11  C   UNL     1      -2.977  -1.229  -3.708  0.00  0.00    +0.034 A 
ATOM     12  C   UNL     1      -3.785  -0.373  -4.446  0.00  0.00    +0.018 A 
ATOM     13  C   UNL     1      -4.839  -0.880  -5.179  0.00  0.00    +0.024 A 
ATOM     14  C   UNL     1      -5.093  -2.246  -5.178  0.00  0.00    +0.026 A 
ATOM     15  C   UNL     1      -4.287  -3.102  -4.440  0.00  0.00    +0.043 A 
ATOM     16  C   UNL     1      -3.227  -2.596  -3.711  0.00  0.00    +0.056 A 
ATOM     17 CL   UNL     1      -2.214  -3.667  -2.794  0.00  0.00    -0.082 Cl
BRANCH  14  18
ATOM     18  N   UNL     1      -6.163  -2.759  -5.920  0.00  0.00    -0.358 N 
ATOM     19  H   UNL     1      -6.727  -2.161  -6.436  0.00  0.00    +0.142 HD
ATOM     20  H   UNL     1      -6.340  -3.713  -5.920  0.00  0.00    +0.142 HD
ENDBRANCH  14  18
ENDBRANCH   1  11
TORSDOF 4
