REMARK  Name = ZINC06036957
REMARK  8 active torsions:
REMARK  status: ('A' for Active; 'I' for Inactive)
REMARK    1  A    between atoms: C_1  and  C_2
REMARK    2  A    between atoms: C_2  and  C_4
REMARK    3  A    between atoms: C_2  and  O_21
REMARK    4  A    between atoms: C_9  and  S_16
REMARK    5  A    between atoms: C_10  and  C_14
REMARK    6  A    between atoms: S_16  and  C_17
REMARK    7  A    between atoms: C_17  and  C_18
REMARK    8  A    between atoms: C_18  and  N_36
REMARK                            x       y       z     vdW  Elec       q    Type
REMARK                         _______ _______ _______ _____ _____    ______ ____
ROOT
ATOM      1  C   UNL     1      -0.971   2.020  -0.147  0.00  0.00    +0.125 C 
ATOM      2  C   UNL     1      -1.387   0.543  -0.149  0.00  0.00    +0.101 C 
ATOM      3  C   UNL     1      -1.678  -0.030  -1.544  0.00  0.00    +0.068 C 
ATOM      4  C   UNL     1      -0.369  -0.734  -1.923  0.00  0.00    +0.016 C 
ATOM      5  C   UNL     1       0.529  -0.552  -0.936  0.00  0.00    +0.135 C 
ATOM      6  N   UNL     1       0.031   0.230   0.119  0.00  0.00    -0.260 N 
ATOM      7  C   UNL     1       0.422   1.533   0.197  0.00  0.00    +0.228 C 
ATOM      8  O   UNL     1       1.473   2.085   0.444  0.00  0.00    -0.275 OA
ENDROOT
BRANCH   5   9
ATOM      9  C   UNL     1       1.837  -1.092  -0.960  0.00  0.00    +0.401 C 
ATOM     10  O   UNL     1       2.628  -0.809  -0.080  0.00  0.00    -0.239 OA
ATOM     11  O   UNL     1       2.207  -1.922  -1.959  0.00  0.00    -0.239 OA
ENDBRANCH   5   9
BRANCH   1  13
ATOM     12  C   UNL     1      -1.145   4.292   0.878  0.00  0.00    +0.038 C 
ATOM     13  C   UNL     1      -1.626   2.842   0.965  0.00  0.00    +0.125 C 
BRANCH  13  14
ATOM     14  O   UNL     1      -3.046   2.802   0.814  0.00  0.00    -0.391 OA
ATOM     15  H   UNL     1      -3.528   3.303   1.486  0.00  0.00    +0.210 HD
ENDBRANCH  13  14
ENDBRANCH   1  13
BRANCH   4  16
ATOM     16  S   UNL     1      -0.091  -1.637  -3.410  0.00  0.00    -0.126 S 
BRANCH  16  17
ATOM     17  C   UNL     1      -0.216  -0.297  -4.620  0.00  0.00    +0.095 C 
BRANCH  17  18
ATOM     18  C   UNL     1       0.121  -0.834  -6.012  0.00  0.00    +0.124 C 
BRANCH  18  23
ATOM     19  C   UNL     1       1.012   0.733  -7.677  0.00  0.00    +0.148 C 
ATOM     20  N   UNL     1       0.801   1.752  -8.568  0.00  0.00    -0.351 N 
ATOM     21  H   UNL     1      -0.091   2.114  -8.689  0.00  0.00    +0.143 HD
ATOM     22  H   UNL     1       1.543   2.111  -9.079  0.00  0.00    +0.143 HD
ATOM     23  N   UNL     1      -0.042   0.282  -7.006  0.00  0.00    -0.378 N 
ATOM     24  H   UNL     1      -0.968   0.696  -7.166  0.00  0.00    +0.160 HD
ENDBRANCH  18  23
ENDBRANCH  17  18
ENDBRANCH  16  17
ENDBRANCH   4  16
TORSDOF 7
