REMARK  Name = ZINC63350969
REMARK  12 active torsions:
REMARK  status: ('A' for Active; 'I' for Inactive)
REMARK    1  A    between atoms: C_1  and  C_2
REMARK    2  A    between atoms: C_5  and  S_8
REMARK    3  A    between atoms: S_8  and  N_11
REMARK    4  A    between atoms: C_14  and  C_17
REMARK    5  A    between atoms: N_19  and  C_20
REMARK    6  A    between atoms: C_20  and  C_22
REMARK    7  A    between atoms: C_20  and  C_25
REMARK    8  A    between atoms: C_22  and  C_23
REMARK    9  A    between atoms: C_22  and  C_24
REMARK   10  A    between atoms: N_27  and  C_28
REMARK   11  A    between atoms: C_28  and  C_29
REMARK   12  A    between atoms: C_29  and  C_30
REMARK                            x       y       z     vdW  Elec       q    Type
REMARK                         _______ _______ _______ _____ _____    ______ ____
ROOT
ATOM      1  C   UNL     1       4.027  -8.995  -0.354  0.00  0.00    +0.217 C 
ATOM      2  O   UNL     1       4.280  -9.719  -1.294  0.00  0.00    -0.275 OA
ATOM      3  N   UNL     1       4.777  -9.056   0.764  0.00  0.00    -0.304 N 
ATOM      4  H   UNL     1       4.575  -8.477   1.516  0.00  0.00    +0.149 HD
ENDROOT
BRANCH   1   8
ATOM      5  N   UNL     1       0.146  -7.353  -0.751  0.00  0.00    -0.177 NA
ATOM      6  C   UNL     1       1.046  -7.152  -1.895  0.00  0.00    +0.110 C 
ATOM      7  C   UNL     1       2.195  -8.160  -1.802  0.00  0.00    +0.030 C 
ATOM      8  C   UNL     1       2.875  -8.028  -0.437  0.00  0.00    +0.077 C 
ATOM      9  C   UNL     1       1.865  -8.342   0.670  0.00  0.00    +0.030 C 
ATOM     10  C   UNL     1       0.712  -7.330   0.605  0.00  0.00    +0.110 C 
BRANCH   5  11
ATOM     11  S   UNL     1      -1.476  -7.593  -0.985  0.00  0.00    +0.061 S 
ATOM     12  O   UNL     1      -1.954  -8.280   0.163  0.00  0.00    -0.153 OA
ATOM     13  O   UNL     1      -1.624  -8.111  -2.300  0.00  0.00    -0.153 OA
BRANCH  11  18
ATOM     14  C   UNL     1      -4.109  -2.164  -0.966  0.00  0.00    +0.044 C 
ATOM     15  C   UNL     1      -3.451  -3.520  -0.970  0.00  0.00    -0.050 A 
ATOM     16  C   UNL     1      -2.990  -4.060  -2.156  0.00  0.00    +0.005 A 
ATOM     17  C   UNL     1      -2.386  -5.304  -2.161  0.00  0.00    +0.029 A 
ATOM     18  C   UNL     1      -2.244  -6.007  -0.979  0.00  0.00    +0.105 A 
ATOM     19  C   UNL     1      -2.704  -5.467   0.207  0.00  0.00    +0.029 A 
ATOM     20  C   UNL     1      -3.304  -4.221   0.212  0.00  0.00    +0.005 A 
ENDBRANCH  11  18
ENDBRANCH   5  11
ENDBRANCH   1   8
BRANCH   3  21
ATOM     21  C   UNL     1       5.897  -9.996   0.845  0.00  0.00    +0.161 C 
BRANCH  21  22
ATOM     22  C   UNL     1       6.173 -10.328   2.289  0.00  0.00    +0.234 C 
ATOM     23  O   UNL     1       5.745  -9.609   3.168  0.00  0.00    -0.274 OA
ATOM     24  N   UNL     1       6.894 -11.422   2.604  0.00  0.00    -0.313 N 
ATOM     25  H   UNL     1       7.170 -12.038   1.907  0.00  0.00    +0.149 HD
BRANCH  24  26
ATOM     26  C   UNL     1       7.260 -11.681   3.998  0.00  0.00    +0.108 C 
BRANCH  26  27
ATOM     27  C   UNL     1       8.070 -12.977   4.080  0.00  0.00    +0.052 C 
BRANCH  27  28
ATOM     28  C   UNL     1       8.448 -13.243   5.514  0.00  0.00    -0.040 C 
ATOM     29  C   UNL     1       7.789 -14.030   6.396  0.00  0.00    -0.001 A 
ATOM     30  C   UNL     1       6.571 -14.842   6.287  0.00  0.00    +0.010 A 
ATOM     31  C   UNL     1       6.148 -15.537   7.367  0.00  0.00    +0.001 A 
ATOM     32  C   UNL     1       6.841 -15.502   8.584  0.00  0.00    +0.002 A 
ATOM     33  C   UNL     1       7.968 -14.780   8.761  0.00  0.00    +0.026 A 
ATOM     34  C   UNL     1       8.504 -14.011   7.692  0.00  0.00    +0.043 A 
ATOM     35  N   UNL     1       9.562 -13.241   7.615  0.00  0.00    -0.380 N 
ATOM     36  C   UNL     1       9.643 -12.690   6.258  0.00  0.00    +0.144 C 
ATOM     37  H   UNL     1      10.190 -13.069   8.335  0.00  0.00    +0.160 HD
ENDBRANCH  27  28
ENDBRANCH  26  27
ENDBRANCH  24  26
ENDBRANCH  21  22
BRANCH  21  38
ATOM     38  C   UNL     1       7.142  -9.361   0.221  0.00  0.00    +0.012 C 
ATOM     39  C   UNL     1       6.903  -9.131  -1.273  0.00  0.00    +0.009 C 
ATOM     40  C   UNL     1       7.428  -8.023   0.904  0.00  0.00    +0.009 C 
ENDBRANCH  21  38
ENDBRANCH   3  21
TORSDOF 9
