REMARK  Name = ZINC15947072
REMARK  7 active torsions:
REMARK  status: ('A' for Active; 'I' for Inactive)
REMARK    1  A    between atoms: C_1  and  C_2
REMARK    2  A    between atoms: C_6  and  C_9
REMARK    3  A    between atoms: C_7  and  O_8
REMARK    4  A    between atoms: N_18  and  C_21
REMARK    5  A    between atoms: C_21  and  C_22
REMARK    6  A    between atoms: C_21  and  C_23
REMARK    7  A    between atoms: C_24  and  O_26
REMARK                            x       y       z     vdW  Elec       q    Type
REMARK                         _______ _______ _______ _____ _____    ______ ____
ROOT
ATOM      1  C   UNL     1       0.052  -2.831   2.343  0.00  0.00    +0.227 C 
ATOM      2  N   UNL     1       0.635  -4.167   2.123  0.00  0.00    -0.313 N 
ATOM      3  C   UNL     1       2.009  -4.247   2.159  0.00  0.00    +0.080 A 
ATOM      4  C   UNL     1       2.787  -3.318   2.862  0.00  0.00    +0.067 A 
ATOM      5  C   UNL     1       4.219  -3.525   2.797  0.00  0.00    -0.027 A 
ATOM      6  C   UNL     1       4.602  -4.599   2.065  0.00  0.00    -0.021 A 
ATOM      7  S   UNL     1       3.088  -5.310   1.484  0.00  0.00    -0.080 S 
ATOM      8  C   UNL     1       6.008  -5.048   1.823  0.00  0.00    -0.035 C 
ATOM      9  N   UNL     1       6.916  -3.943   2.180  0.00  0.00    +0.384 N 
ATOM     10  C   UNL     1       6.580  -3.441   3.519  0.00  0.00    -0.073 C 
ATOM     11  C   UNL     1       5.267  -2.652   3.473  0.00  0.00    +0.018 C 
ATOM     12  C   UNL     1       2.070  -2.242   3.595  0.00  0.00    +0.220 C 
ATOM     13  N   UNL     1       0.802  -2.077   3.340  0.00  0.00    -0.223 NA
ATOM     14  H   UNL     1       0.081  -4.947   1.962  0.00  0.00    +0.149 HD
ATOM     15  H   UNL     1       6.818  -3.197   1.507  0.00  0.00    -0.081 HD
ENDROOT
BRANCH   1  21
ATOM     16  C   UNL     1       0.037   1.521  -0.145  0.00  0.00    +0.047 C 
ATOM     17  C   UNL     1       0.053   0.014  -0.149  0.00  0.00    -0.008 A 
ATOM     18  C   UNL     1       0.075  -0.673  -1.348  0.00  0.00    +0.021 A 
ATOM     19  C   UNL     1       0.090  -2.056  -1.352  0.00  0.00    +0.014 A 
ATOM     20  C   UNL     1       0.083  -2.754  -0.158  0.00  0.00    +0.025 A 
ATOM     21  C   UNL     1       0.061  -2.071   1.042  0.00  0.00    +0.037 A 
ATOM     22  C   UNL     1       0.051  -0.683   1.050  0.00  0.00    +0.127 A 
ATOM     23  I   UNL     1       0.123  -3.096  -3.171  0.00  0.00    -0.044 I 
BRANCH  22  24
ATOM     24  O   UNL     1       0.035  -0.009   2.229  0.00  0.00    -0.506 OA
ATOM     25  H   UNL     1      -0.853   0.177   2.564  0.00  0.00    +0.292 HD
ENDBRANCH  22  24
ENDBRANCH   1  21
BRANCH   9  26
ATOM     26  C   UNL     1       8.303  -4.427   2.173  0.00  0.00    -0.074 C 
ATOM     27  C   UNL     1       8.611  -5.072   0.820  0.00  0.00    -0.014 C 
ATOM     28  C   UNL     1       9.255  -3.253   2.407  0.00  0.00    -0.014 C 
ENDBRANCH   9  26
BRANCH  12  29
ATOM     29  O   UNL     1       2.712  -1.460   4.494  0.00  0.00    -0.492 OA
ATOM     30  H   UNL     1       2.148  -0.794   4.909  0.00  0.00    +0.294 HD
ENDBRANCH  12  29
TORSDOF 4
