REMARK  Name = ZINC21093395
REMARK  7 active torsions:
REMARK  status: ('A' for Active; 'I' for Inactive)
REMARK    1  A    between atoms: C_1  and  C_2
REMARK    2  A    between atoms: C_3  and  C_7
REMARK    3  A    between atoms: C_10  and  S_13
REMARK    4  A    between atoms: N_11  and  N_12
REMARK    5  A    between atoms: S_13  and  C_14
REMARK    6  A    between atoms: C_14  and  C_15
REMARK    7  A    between atoms: N_17  and  C_18
REMARK                            x       y       z     vdW  Elec       q    Type
REMARK                         _______ _______ _______ _____ _____    ______ ____
ROOT
ATOM      1  C   UNL     1       0.264  -2.962  -3.442  0.00  0.00    +0.185 A 
ATOM      2  N   UNL     1       1.069  -1.977  -3.121  0.00  0.00    -0.127 NA
ATOM      3  N   UNL     1       0.693  -1.445  -2.014  0.00  0.00    -0.121 NA
ATOM      4  C   UNL     1      -0.376  -2.057  -1.559  0.00  0.00    +0.209 A 
ATOM      5  N   UNL     1      -0.684  -3.049  -2.449  0.00  0.00    -0.224 N 
ENDROOT
BRANCH   1   8
ATOM      6  C   UNL     1       2.427  -2.761  -5.702  0.00  0.00    +0.087 C 
ATOM      7  C   UNL     1       1.291  -3.749  -5.631  0.00  0.00    +0.112 A 
ATOM      8  C   UNL     1       0.360  -3.822  -4.641  0.00  0.00    +0.061 A 
ATOM      9  C   UNL     1      -0.532  -4.927  -5.015  0.00  0.00    +0.053 A 
ATOM     10  C   UNL     1      -0.057  -5.411  -6.175  0.00  0.00    +0.196 A 
ATOM     11  O   UNL     1       1.027  -4.707  -6.532  0.00  0.00    -0.467 OA
ENDBRANCH   1   8
BRANCH   5  12
ATOM     12  N   UNL     1      -1.718  -3.937  -2.369  0.00  0.00    -0.295 N 
ATOM     13  H   UNL     1      -2.412  -3.900  -1.516  0.00  0.00    +0.163 HD
ATOM     14  H   UNL     1      -1.858  -4.690  -3.159  0.00  0.00    +0.163 HD
ENDBRANCH   5  12
BRANCH   4  15
ATOM     15  S   UNL     1      -1.247  -1.677  -0.075  0.00  0.00    -0.075 S 
BRANCH  15  16
ATOM     16  C   UNL     1      -0.250  -0.292   0.529  0.00  0.00    +0.173 C 
BRANCH  16  17
ATOM     17  C   UNL     1      -0.824   0.212   1.828  0.00  0.00    +0.228 C 
ATOM     18  O   UNL     1      -1.811  -0.313   2.299  0.00  0.00    -0.275 OA
ATOM     19  N   UNL     1      -0.242   1.246   2.466  0.00  0.00    -0.282 N 
ATOM     20  H   UNL     1       0.699   1.669   2.083  0.00  0.00    +0.155 HD
BRANCH  19  21
ATOM     21  C   UNL     1      -0.834   1.782   3.616  0.00  0.00    +0.070 A 
ATOM     22  C   UNL     1      -1.765   2.807   3.506  0.00  0.00    +0.064 A 
ATOM     23  C   UNL     1      -2.351   3.332   4.643  0.00  0.00    +0.022 A 
ATOM     24  C   UNL     1      -2.004   2.843   5.889  0.00  0.00    +0.003 A 
ATOM     25  C   UNL     1      -1.073   1.827   6.003  0.00  0.00    +0.022 A 
ATOM     26  C   UNL     1      -0.487   1.294   4.870  0.00  0.00    +0.064 A 
ATOM     27 CL   UNL     1       0.681   0.019   5.013  0.00  0.00    -0.082 Cl
ATOM     28 CL   UNL     1      -2.197   3.425   1.942  0.00  0.00    -0.082 Cl
ENDBRANCH  19  21
ENDBRANCH  16  17
ENDBRANCH  15  16
ENDBRANCH   4  15
TORSDOF 6
