REMARK  Name = ZINC01727731
REMARK  3 active torsions:
REMARK  status: ('A' for Active; 'I' for Inactive)
REMARK    1  A    between atoms: C_4  and  C_7
REMARK    2  A    between atoms: N_12  and  S_13
REMARK    3  A    between atoms: S_13  and  C_16
REMARK                            x       y       z     vdW  Elec       q    Type
REMARK                         _______ _______ _______ _____ _____    ______ ____
ROOT
ATOM      1  C   UNL     1       0.002  -0.004   0.002  0.00  0.00    +0.251 C 
ATOM      2  O   UNL     1       1.062  -0.597  -0.011  0.00  0.00    -0.270 OA
ATOM      3  N   UNL     1      -1.156  -0.694   0.009  0.00  0.00    -0.235 N 
ATOM      4  C   UNL     1      -1.137  -2.041   0.002  0.00  0.00    +0.325 C 
ATOM      5  O   UNL     1      -0.077  -2.635  -0.011  0.00  0.00    -0.251 OA
ATOM      6  N   UNL     1      -2.295  -2.731   0.009  0.00  0.00    -0.169 N 
ATOM      7  H   UNL     1      -2.002  -0.220   0.020  0.00  0.00    +0.159 HD
ATOM      8  H   UNL     1      -3.142  -2.258   0.020  0.00  0.00    +0.178 HD
ENDROOT
BRANCH   1  12
ATOM      9  C   UNL     1      -0.056   4.242   0.024  0.00  0.00    +0.000 A 
ATOM     10  C   UNL     1       1.154   3.570   0.010  0.00  0.00    +0.001 A 
ATOM     11  C   UNL     1       1.180   2.191   0.003  0.00  0.00    +0.013 A 
ATOM     12  C   UNL     1      -0.018   1.473   0.010  0.00  0.00    +0.037 A 
ATOM     13  C   UNL     1      -1.235   2.158   0.020  0.00  0.00    +0.013 A 
ATOM     14  C   UNL     1      -1.246   3.538   0.032  0.00  0.00    +0.001 A 
ENDBRANCH   1  12
BRANCH   6  15
ATOM     15  S   UNL     1      -2.273  -4.387   0.000  0.00  0.00    +0.076 S 
ATOM     16  O   UNL     1      -3.628  -4.812   0.038  0.00  0.00    -0.150 OA
ATOM     17  O   UNL     1      -1.381  -4.775  -1.036  0.00  0.00    -0.150 OA
BRANCH  15  18
ATOM     18  C   UNL     1      -1.540  -4.906   1.516  0.00  0.00    +0.109 A 
ATOM     19  C   UNL     1      -0.173  -5.098   1.593  0.00  0.00    +0.029 A 
ATOM     20  C   UNL     1       0.402  -5.501   2.783  0.00  0.00    +0.002 A 
ATOM     21  C   UNL     1      -0.390  -5.722   3.894  0.00  0.00    +0.000 A 
ATOM     22  C   UNL     1      -1.758  -5.535   3.816  0.00  0.00    +0.002 A 
ATOM     23  C   UNL     1      -2.333  -5.128   2.627  0.00  0.00    +0.029 A 
ENDBRANCH  15  18
ENDBRANCH   6  15
TORSDOF 3
