REMARK  Name = ZINC59293511
REMARK  7 active torsions:
REMARK  status: ('A' for Active; 'I' for Inactive)
REMARK    1  A    between atoms: C_1  and  N_2
REMARK    2  A    between atoms: N_2  and  C_3
REMARK    3  A    between atoms: C_4  and  C_6
REMARK    4  A    between atoms: C_12  and  C_13
REMARK    5  A    between atoms: C_21  and  N_34
REMARK    6  A    between atoms: C_22  and  C_32
REMARK    7  A    between atoms: C_23  and  C_25
REMARK                            x       y       z     vdW  Elec       q    Type
REMARK                         _______ _______ _______ _____ _____    ______ ____
ROOT
ATOM      1  C   UNL     1      -0.897  -2.026  -0.354  0.00  0.00    +0.058 C 
ATOM      2  C   UNL     1      -2.015  -2.774  -0.546  0.00  0.00    +0.099 A 
ATOM      3  N   UNL     1      -2.011  -4.086  -0.973  0.00  0.00    -0.257 N 
ATOM      4  C   UNL     1      -3.202  -4.701  -1.118  0.00  0.00    +0.271 A 
ATOM      5  O   UNL     1      -3.264  -5.857  -1.491  0.00  0.00    -0.266 OA
ATOM      6  C   UNL     1      -4.421  -3.942  -0.815  0.00  0.00    +0.079 A 
ATOM      7  C   UNL     1      -5.719  -4.334  -0.882  0.00  0.00    +0.028 C 
ATOM      8  S   UNL     1      -3.737  -2.365  -0.334  0.00  0.00    -0.065 S 
ATOM      9  C   UNL     1      -0.787  -4.713  -1.234  0.00  0.00    +0.118 C 
ATOM     10  C   UNL     1       0.412  -4.107  -1.092  0.00  0.00    +0.079 C 
ATOM     11  C   UNL     1       0.450  -2.665  -0.629  0.00  0.00    +0.100 C 
ENDROOT
BRANCH   7  12
ATOM     12  C   UNL     1      -6.049  -5.746  -1.119  0.00  0.00    -0.024 A 
ATOM     13  C   UNL     1      -5.334  -6.755  -0.462  0.00  0.00    +0.009 A 
ATOM     14  C   UNL     1      -5.649  -8.077  -0.689  0.00  0.00    +0.020 A 
ATOM     15  C   UNL     1      -6.671  -8.409  -1.565  0.00  0.00    +0.041 A 
ATOM     16  C   UNL     1      -7.382  -7.416  -2.219  0.00  0.00    +0.020 A 
ATOM     17  C   UNL     1      -7.083  -6.090  -1.997  0.00  0.00    +0.009 A 
ATOM     18 CL   UNL     1      -7.060 -10.078  -1.844  0.00  0.00    -0.084 Cl
ENDBRANCH   7  12
BRANCH  11  19
ATOM     19  C   UNL     1       1.270  -2.600   0.634  0.00  0.00    -0.035 A 
ATOM     20  C   UNL     1       0.871  -3.305   1.754  0.00  0.00    +0.006 A 
ATOM     21  C   UNL     1       1.622  -3.246   2.912  0.00  0.00    +0.020 A 
ATOM     22  C   UNL     1       2.773  -2.480   2.951  0.00  0.00    +0.041 A 
ATOM     23  C   UNL     1       3.172  -1.774   1.830  0.00  0.00    +0.020 A 
ATOM     24  C   UNL     1       2.423  -1.839   0.670  0.00  0.00    +0.006 A 
ATOM     25 CL   UNL     1       3.717  -2.405   4.406  0.00  0.00    -0.084 Cl
ENDBRANCH  11  19
BRANCH   1  29
ATOM     26  C   UNL     1      -1.324   1.677  -0.358  0.00  0.00    +0.132 C 
ATOM     27  N   UNL     1      -1.344   0.275  -0.782  0.00  0.00    -0.304 N 
ATOM     28  C   UNL     1      -1.752  -0.072  -2.145  0.00  0.00    +0.132 C 
ATOM     29  C   UNL     1      -0.987  -0.695   0.083  0.00  0.00    +0.246 C 
ATOM     30  O   UNL     1      -0.742  -0.417   1.244  0.00  0.00    -0.270 OA
ENDBRANCH   1  29
BRANCH   9  31
ATOM     31  N   UNL     1      -0.806  -6.020  -1.658  0.00  0.00    -0.343 N 
ATOM     32  H   UNL     1      -1.539  -6.342  -2.206  0.00  0.00    +0.144 HD
ATOM     33  H   UNL     1      -0.087  -6.621  -1.409  0.00  0.00    +0.144 HD
ENDBRANCH   9  31
BRANCH  10  34
ATOM     34  C   UNL     1       1.624  -4.813  -1.378  0.00  0.00    +0.099 C 
ATOM     35  N   UNL     1       2.586  -5.374  -1.604  0.00  0.00    -0.191 NA
ENDBRANCH  10  34
TORSDOF 5
