REMARK  Name = ZINC37542743
REMARK  6 active torsions:
REMARK  status: ('A' for Active; 'I' for Inactive)
REMARK    1  A    between atoms: C_1  and  C_2
REMARK    2  A    between atoms: C_5  and  S_8
REMARK    3  A    between atoms: S_8  and  N_11
REMARK    4  A    between atoms: N_11  and  C_12
REMARK    5  A    between atoms: N_11  and  C_16
REMARK    6  A    between atoms: C_12  and  C_13
REMARK                            x       y       z     vdW  Elec       q    Type
REMARK                         _______ _______ _______ _____ _____    ______ ____
ROOT
ATOM      1  N   UNL     1       1.651  -4.999  -0.034  0.00  0.00    -0.165 NA
ENDROOT
BRANCH   1   2
ATOM      2  C   UNL     1       2.346  -5.200  -1.308  0.00  0.00    +0.077 C 
ATOM      3  C   UNL     1       2.845  -6.645  -1.397  0.00  0.00    +0.001 C 
ATOM      4  C   UNL     1       3.639  -6.826  -2.693  0.00  0.00    -0.081 C 
ATOM      5  N   UNL     1       4.785  -5.910  -2.701  0.00  0.00    +0.379 N 
ATOM      6  C   UNL     1       4.312  -4.520  -2.688  0.00  0.00    -0.081 C 
ATOM      7  C   UNL     1       3.545  -4.250  -1.392  0.00  0.00    +0.001 C 
ATOM      8  H   UNL     1       5.354  -6.078  -1.885  0.00  0.00    -0.086 HD
ATOM      9  H   UNL     1       5.336  -6.069  -3.531  0.00  0.00    -0.086 HD
ENDBRANCH   1   2
BRANCH   1  10
ATOM     10  S   UNL     1       0.063  -4.530  -0.023  0.00  0.00    +0.062 S 
ATOM     11  O   UNL     1      -0.476  -4.950   1.223  0.00  0.00    -0.153 OA
ATOM     12  O   UNL     1      -0.490  -4.937  -1.267  0.00  0.00    -0.153 OA
BRANCH  10  17
ATOM     13  C   UNL     1      -0.018   1.503   0.010  0.00  0.00    +0.044 C 
ATOM     14  C   UNL     1       0.002  -0.004   0.002  0.00  0.00    -0.050 A 
ATOM     15  C   UNL     1       0.006  -0.689  -1.199  0.00  0.00    +0.005 A 
ATOM     16  C   UNL     1       0.025  -2.071  -1.206  0.00  0.00    +0.029 A 
ATOM     17  C   UNL     1       0.040  -2.768  -0.013  0.00  0.00    +0.106 A 
ATOM     18  C   UNL     1       0.037  -2.084   1.188  0.00  0.00    +0.029 A 
ATOM     19  C   UNL     1       0.023  -0.702   1.195  0.00  0.00    +0.005 A 
ENDBRANCH  10  17
ENDBRANCH   1  10
BRANCH   1  20
ATOM     20  C   UNL     1       2.360  -5.214   1.229  0.00  0.00    +0.205 C 
BRANCH  20  21
ATOM     21  C   UNL     1       2.305  -6.675   1.595  0.00  0.00    +0.226 C 
ATOM     22  O   UNL     1       1.730  -7.460   0.871  0.00  0.00    -0.275 OA
ATOM     23  N   UNL     1       2.895  -7.109   2.726  0.00  0.00    -0.328 N 
ATOM     24  H   UNL     1       3.355  -6.481   3.305  0.00  0.00    +0.145 HD
ATOM     25  H   UNL     1       2.860  -8.050   2.961  0.00  0.00    +0.145 HD
ENDBRANCH  20  21
ENDBRANCH   1  20
TORSDOF 5
