REMARK  Name = ZINC06694224
REMARK  5 active torsions:
REMARK  status: ('A' for Active; 'I' for Inactive)
REMARK    1  A    between atoms: C_1  and  C_2
REMARK    2  A    between atoms: N_10  and  C_11
REMARK    3  A    between atoms: C_11  and  N_13
REMARK    4  A    between atoms: C_14  and  C_15
REMARK    5  A    between atoms: C_14  and  C_16
REMARK                            x       y       z     vdW  Elec       q    Type
REMARK                         _______ _______ _______ _____ _____    ______ ____
ROOT
ATOM      1  C   UNL     1      -2.263   1.385   0.076  0.00  0.00    +0.161 C 
ATOM      2  S   UNL     1      -2.130  -0.308   0.292  0.00  0.00    -0.016 S 
ENDROOT
BRANCH   1  12
ATOM      3  C   UNL     1      -5.396  -2.394   0.444  0.00  0.00    +0.066 C 
ATOM      4  C   UNL     1      -5.566  -0.909   0.251  0.00  0.00    +0.047 A 
ATOM      5  C   UNL     1      -6.816  -0.375   0.142  0.00  0.00    +0.093 A 
ATOM      6  C   UNL     1      -6.948   1.014  -0.037  0.00  0.00    +0.253 A 
ATOM      7  O   UNL     1      -8.051   1.526  -0.138  0.00  0.00    -0.268 OA
ATOM      8  N   UNL     1      -5.831   1.771  -0.088  0.00  0.00    -0.293 N 
ATOM      9  H   UNL     1      -5.910   2.860  -0.218  0.00  0.00    +0.172 HD
ATOM     10  C   UNL     1      -4.610   1.181   0.022  0.00  0.00    +0.222 A 
ATOM     11  N   UNL     1      -4.495  -0.120   0.189  0.00  0.00    -0.219 NA
ATOM     12  N   UNL     1      -3.478   1.957  -0.037  0.00  0.00    -0.158 NA
ENDBRANCH   1  12
BRANCH   1  13
ATOM     13  N   UNL     1      -1.153   2.146   0.018  0.00  0.00    -0.298 N 
ATOM     14  C   UNL     1      -0.304   1.993  -0.968  0.00  0.00    +0.014 C 
ATOM     15  C   UNL     1      -0.628   1.055  -2.102  0.00  0.00    +0.061 C 
ATOM     16  H   UNL     1      -0.959   2.896   0.799  0.00  0.00    +0.154 HD
BRANCH  14  17
ATOM     17  C   UNL     1       0.961   2.739  -0.970  0.00  0.00    -0.008 A 
ATOM     18  C   UNL     1       1.871   2.578  -2.022  0.00  0.00    +0.010 A 
ATOM     19  C   UNL     1       3.054   3.285  -2.020  0.00  0.00    +0.016 A 
ATOM     20  C   UNL     1       3.349   4.146  -0.975  0.00  0.00    +0.018 A 
ATOM     21  C   UNL     1       2.456   4.307   0.072  0.00  0.00    +0.016 A 
ATOM     22  C   UNL     1       1.266   3.611   0.082  0.00  0.00    +0.010 A 
ATOM     23 BR   UNL     1       4.977   5.106  -0.978  0.00  0.00    -0.050 Br
ENDBRANCH  14  17
ENDBRANCH   1  13
TORSDOF 3
