REMARK  Name = ZINC13981823
REMARK  7 active torsions:
REMARK  status: ('A' for Active; 'I' for Inactive)
REMARK    1  A    between atoms: C_4  and  N_7
REMARK    2  A    between atoms: N_7  and  S_8
REMARK    3  A    between atoms: S_8  and  C_11
REMARK    4  A    between atoms: C_14  and  N_17
REMARK    5  A    between atoms: N_17  and  C_18
REMARK    6  A    between atoms: C_18  and  N_20
REMARK    7  A    between atoms: C_21  and  C_23
REMARK                            x       y       z     vdW  Elec       q    Type
REMARK                         _______ _______ _______ _____ _____    ______ ____
ROOT
ATOM      1  C   UNL     1      -4.729  -0.077   0.362  0.00  0.00    +0.109 A 
ATOM      2  C   UNL     1      -4.892   1.295   0.402  0.00  0.00    +0.030 A 
ATOM      3  C   UNL     1      -3.787   2.122   0.462  0.00  0.00    +0.025 A 
ATOM      4  C   UNL     1      -2.512   1.573   0.482  0.00  0.00    +0.033 A 
ATOM      5  C   UNL     1      -2.352   0.194   0.436  0.00  0.00    +0.025 A 
ATOM      6  C   UNL     1      -3.461  -0.627   0.381  0.00  0.00    +0.030 A 
ENDROOT
BRANCH   1   7
ATOM      7  S   UNL     1      -6.142  -1.128   0.286  0.00  0.00    +0.072 S 
ATOM      8  O   UNL     1      -5.771  -2.353   0.903  0.00  0.00    -0.150 OA
ATOM      9  O   UNL     1      -7.248  -0.355   0.732  0.00  0.00    -0.150 OA
BRANCH   7  10
ATOM     10  N   UNL     1      -6.415  -1.467  -1.312  0.00  0.00    -0.216 N 
ATOM     11  H   UNL     1      -7.222  -1.148  -1.744  0.00  0.00    +0.174 HD
BRANCH  10  15
ATOM     12  C   UNL     1      -3.635  -3.688  -3.474  0.00  0.00    +0.000 A 
ATOM     13  C   UNL     1      -4.446  -4.314  -2.545  0.00  0.00    +0.002 A 
ATOM     14  C   UNL     1      -5.369  -3.580  -1.826  0.00  0.00    +0.024 A 
ATOM     15  C   UNL     1      -5.482  -2.212  -2.037  0.00  0.00    +0.048 A 
ATOM     16  C   UNL     1      -4.669  -1.587  -2.974  0.00  0.00    +0.024 A 
ATOM     17  C   UNL     1      -3.745  -2.326  -3.686  0.00  0.00    +0.002 A 
ENDBRANCH  10  15
ENDBRANCH   7  10
ENDBRANCH   1   7
BRANCH   4  18
ATOM     18  N   UNL     1      -1.390   2.407   0.542  0.00  0.00    -0.297 N 
ATOM     19  H   UNL     1      -0.632   2.242  -0.040  0.00  0.00    +0.154 HD
BRANCH  18  20
ATOM     20  C   UNL     1      -1.364   3.439   1.408  0.00  0.00    +0.141 C 
ATOM     21  S   UNL     1      -2.744   3.796   2.356  0.00  0.00    -0.018 S 
BRANCH  20  22
ATOM     22  N   UNL     1      -0.250   4.187   1.531  0.00  0.00    -0.264 N 
ATOM     23  C   UNL     1      -0.221   5.216   2.401  0.00  0.00    +0.251 C 
ATOM     24  O   UNL     1      -1.201   5.469   3.075  0.00  0.00    -0.270 OA
ATOM     25  H   UNL     1       0.532   3.985   0.994  0.00  0.00    +0.157 HD
BRANCH  23  26
ATOM     26  C   UNL     1       1.000   6.035   2.536  0.00  0.00    +0.055 A 
ATOM     27  C   UNL     1       2.129   5.744   1.768  0.00  0.00    +0.014 A 
ATOM     28  C   UNL     1       3.264   6.516   1.895  0.00  0.00    +0.001 A 
ATOM     29  C   UNL     1       3.291   7.573   2.789  0.00  0.00    +0.001 A 
ATOM     30  C   UNL     1       2.179   7.865   3.558  0.00  0.00    +0.021 A 
ATOM     31  C   UNL     1       1.033   7.103   3.437  0.00  0.00    +0.053 A 
ATOM     32 CL   UNL     1      -0.362   7.470   4.403  0.00  0.00    -0.083 Cl
ENDBRANCH  23  26
ENDBRANCH  20  22
ENDBRANCH  18  20
ENDBRANCH   4  18
TORSDOF 7
