REMARK  Name = ZINC31922083
REMARK  6 active torsions:
REMARK  status: ('A' for Active; 'I' for Inactive)
REMARK    1  A    between atoms: C_1  and  C_2
REMARK    2  A    between atoms: C_9  and  C_17
REMARK    3  A    between atoms: C_10  and  C_11
REMARK    4  A    between atoms: C_11  and  C_13
REMARK    5  A    between atoms: C_11  and  C_14
REMARK    6  A    between atoms: C_14  and  N_16
REMARK                            x       y       z     vdW  Elec       q    Type
REMARK                         _______ _______ _______ _____ _____    ______ ____
ROOT
ATOM      1  C   UNL     1       4.867   0.386  -1.241  0.00  0.00    +0.047 C 
ATOM      2  C   UNL     1       3.468   0.751  -0.815  0.00  0.00    -0.008 A 
ATOM      3  C   UNL     1       2.604  -0.213  -0.398  0.00  0.00    +0.008 A 
ATOM      4  C   UNL     1       1.303   0.141  -0.004  0.00  0.00    +0.018 A 
ATOM      5  C   UNL     1       0.908   1.431  -0.040  0.00  0.00    +0.093 A 
ATOM      6  N   UNL     1       1.765   2.409  -0.457  0.00  0.00    -0.302 N 
ATOM      7  C   UNL     1       3.041   2.094  -0.847  0.00  0.00    +0.141 A 
ATOM      8  N   UNL     1       3.656   3.213  -1.201  0.00  0.00    -0.227 NA
ATOM      9  C   UNL     1       2.811   4.245  -1.050  0.00  0.00    +0.094 A 
ATOM     10  C   UNL     1       1.624   3.763  -0.586  0.00  0.00    +0.060 A 
ENDROOT
BRANCH   9  11
ATOM     11  C   UNL     1       3.117   5.668  -1.340  0.00  0.00    +0.002 A 
ATOM     12  C   UNL     1       2.860   6.647  -0.382  0.00  0.00    +0.011 A 
ATOM     13  C   UNL     1       3.151   7.968  -0.653  0.00  0.00    +0.020 A 
ATOM     14  C   UNL     1       3.687   8.323  -1.879  0.00  0.00    +0.041 A 
ATOM     15  C   UNL     1       3.939   7.355  -2.836  0.00  0.00    +0.020 A 
ATOM     16  C   UNL     1       3.656   6.031  -2.572  0.00  0.00    +0.011 A 
ATOM     17 CL   UNL     1       4.044   9.988  -2.218  0.00  0.00    -0.084 Cl
ENDBRANCH   9  11
BRANCH  10  18
ATOM     18  C   UNL     1       0.390   4.569  -0.275  0.00  0.00    +0.086 C 
ATOM     19  C   UNL     1       0.043   5.454  -1.474  0.00  0.00    +0.021 C 
BRANCH  18  20
ATOM     20  C   UNL     1       0.646   5.436   0.931  0.00  0.00    +0.055 C 
ATOM     21  S   UNL     1       1.752   5.006   2.003  0.00  0.00    -0.040 S 
BRANCH  20  22
ATOM     22  N   UNL     1      -0.056   6.572   1.105  0.00  0.00    -0.355 N 
ATOM     23  H   UNL     1       0.131   7.205   1.986  0.00  0.00    +0.143 HD
ATOM     24  H   UNL     1      -0.817   6.867   0.368  0.00  0.00    +0.143 HD
ENDBRANCH  20  22
ENDBRANCH  18  20
ENDBRANCH  10  18
TORSDOF 4
