REMARK  Name = ZINC19851174
REMARK  6 active torsions:
REMARK  status: ('A' for Active; 'I' for Inactive)
REMARK    1  A    between atoms: C_4  and  N_7
REMARK    2  A    between atoms: N_7  and  C_8
REMARK    3  A    between atoms: C_8  and  N_10
REMARK    4  A    between atoms: N_10  and  N_11
REMARK    5  A    between atoms: C_12  and  C_14
REMARK    6  A    between atoms: C_15  and  N_24
REMARK                            x       y       z     vdW  Elec       q    Type
REMARK                         _______ _______ _______ _____ _____    ______ ____
ROOT
ATOM      1  N   UNL     1      -5.501   3.541   0.097  0.00  0.00    -0.230 N 
ATOM      2  C   UNL     1      -4.853   2.359   0.103  0.00  0.00    +0.282 C 
ATOM      3  O   UNL     1      -5.433   1.349   0.454  0.00  0.00    -0.267 OA
ATOM      4  H   UNL     1      -4.977   4.454  -0.221  0.00  0.00    +0.173 HD
ENDROOT
BRANCH   2   5
ATOM      5  C   UNL     1      -3.440   2.291  -0.316  0.00  0.00    +0.177 A 
ATOM      6  C   UNL     1      -2.670   1.163  -0.357  0.00  0.00    +0.232 A 
ATOM      7  N   UNL     1      -1.438   1.536  -0.802  0.00  0.00    -0.279 N 
ATOM      8  C   UNL     1      -0.288   0.830  -1.024  0.00  0.00    +0.110 A 
ATOM      9  C   UNL     1       0.824   1.451  -1.470  0.00  0.00    +0.035 A 
ATOM     10  C   UNL     1       0.817   2.837  -1.706  0.00  0.00    +0.020 A 
ATOM     11  C   UNL     1      -0.317   3.553  -1.484  0.00  0.00    +0.048 A 
ATOM     12  C   UNL     1      -1.473   2.891  -1.018  0.00  0.00    +0.140 A 
ATOM     13  N   UNL     1      -2.686   3.328  -0.724  0.00  0.00    -0.221 NA
ATOM     14 BR   UNL     1       2.400   0.452  -1.778  0.00  0.00    -0.049 Br
BRANCH   6  15
ATOM     15  N   UNL     1      -3.096  -0.207   0.009  0.00  0.00    +0.076 N 
ATOM     16  O   UNL     1      -2.967  -0.600   1.155  0.00  0.00    -0.125 OA
ATOM     17  O   UNL     1      -3.575  -0.942  -0.836  0.00  0.00    -0.125 OA
ENDBRANCH   6  15
ENDBRANCH   2   5
BRANCH   1  18
ATOM     18  N   UNL     1      -6.843   3.606   0.494  0.00  0.00    -0.245 N 
ATOM     19  H   UNL     1      -7.367   2.692   0.812  0.00  0.00    +0.172 HD
BRANCH  18  20
ATOM     20  C   UNL     1      -7.491   4.787   0.488  0.00  0.00    +0.151 C 
ATOM     21  S   UNL     1      -9.131   4.867   0.974  0.00  0.00    -0.017 S 
BRANCH  20  22
ATOM     22  N   UNL     1      -6.849   5.906   0.099  0.00  0.00    -0.296 N 
ATOM     23  H   UNL     1      -5.777   5.868  -0.145  0.00  0.00    +0.154 HD
BRANCH  22  27
ATOM     24  C   UNL     1      -8.921   9.510  -0.176  0.00  0.00    +0.000 A 
ATOM     25  C   UNL     1      -9.088   8.701   0.934  0.00  0.00    +0.002 A 
ATOM     26  C   UNL     1      -8.402   7.506   1.028  0.00  0.00    +0.023 A 
ATOM     27  C   UNL     1      -7.545   7.116   0.007  0.00  0.00    +0.033 A 
ATOM     28  C   UNL     1      -7.376   7.933  -1.103  0.00  0.00    +0.023 A 
ATOM     29  C   UNL     1      -8.068   9.125  -1.194  0.00  0.00    +0.002 A 
ENDBRANCH  22  27
ENDBRANCH  20  22
ENDBRANCH  18  20
ENDBRANCH   1  18
TORSDOF 6
