REMARK  Name = ZINC37865585
REMARK  9 active torsions:
REMARK  status: ('A' for Active; 'I' for Inactive)
REMARK    1  A    between atoms: C_1  and  C_2
REMARK    2  A    between atoms: C_2  and  C_3
REMARK    3  A    between atoms: C_4  and  C_29
REMARK    4  A    between atoms: C_5  and  C_21
REMARK    5  A    between atoms: C_5  and  C_25
REMARK    6  A    between atoms: C_6  and  C_19
REMARK    7  A    between atoms: C_7  and  N_18
REMARK    8  A    between atoms: N_8  and  C_9
REMARK    9  A    between atoms: C_12  and  C_15
REMARK                            x       y       z     vdW  Elec       q    Type
REMARK                         _______ _______ _______ _____ _____    ______ ____
ROOT
ATOM      1  C   UNL     1       0.533  -0.444  -1.267  0.00  0.00    +0.017 C 
ATOM      2  C   UNL     1       1.837  -0.382  -1.123  0.00  0.00    -0.027 C 
ATOM      3  C   UNL     1       2.781  -0.881  -2.177  0.00  0.00    +0.219 C 
ATOM      4  C   UNL     1       2.075  -1.063  -3.491  0.00  0.00    +0.093 C 
ATOM      5  C   UNL     1       0.717  -1.108  -3.560  0.00  0.00    +0.107 C 
ATOM      6  N   UNL     1      -0.039  -0.981  -2.414  0.00  0.00    -0.261 N 
ATOM      7  C   UNL     1       2.403   0.210   0.142  0.00  0.00    +0.042 C 
ENDROOT
BRANCH   6   8
ATOM      8  C   UNL     1      -1.373  -1.384  -2.407  0.00  0.00    +0.040 A 
ATOM      9  C   UNL     1      -1.724  -2.613  -1.855  0.00  0.00    +0.024 A 
ATOM     10  C   UNL     1      -3.040  -3.014  -1.846  0.00  0.00    +0.015 A 
ATOM     11  C   UNL     1      -4.026  -2.186  -2.392  0.00  0.00    +0.037 A 
ATOM     12  C   UNL     1      -3.670  -0.953  -2.945  0.00  0.00    +0.015 A 
ATOM     13  C   UNL     1      -2.352  -0.555  -2.947  0.00  0.00    +0.024 A 
BRANCH  11  14
ATOM     14  C   UNL     1      -5.438  -2.613  -2.384  0.00  0.00    +0.242 C 
ATOM     15  O   UNL     1      -5.746  -3.686  -1.902  0.00  0.00    -0.270 OA
ATOM     16  N   UNL     1      -6.387  -1.814  -2.911  0.00  0.00    -0.325 N 
ATOM     17  H   UNL     1      -6.141  -0.958  -3.295  0.00  0.00    +0.145 HD
ATOM     18  H   UNL     1      -7.315  -2.095  -2.906  0.00  0.00    +0.145 HD
ENDBRANCH  11  14
ENDBRANCH   6   8
BRANCH   3  19
ATOM     19  C   UNL     1       3.917   0.128  -2.354  0.00  0.00    +0.412 C 
ATOM     20  F   UNL     1       4.601   0.276  -1.143  0.00  0.00    -0.169 F 
ATOM     21  F   UNL     1       4.801  -0.331  -3.336  0.00  0.00    -0.169 F 
ATOM     22  F   UNL     1       3.387   1.363  -2.744  0.00  0.00    -0.169 F 
ENDBRANCH   3  19
BRANCH   3  23
ATOM     23  C   UNL     1       3.367  -2.223  -1.732  0.00  0.00    +0.412 C 
ATOM     24  F   UNL     1       2.332  -3.147  -1.552  0.00  0.00    -0.169 F 
ATOM     25  F   UNL     1       4.248  -2.694  -2.711  0.00  0.00    -0.169 F 
ATOM     26  F   UNL     1       4.056  -2.053  -0.527  0.00  0.00    -0.169 F 
ENDBRANCH   3  23
BRANCH   5  27
ATOM     27  N   UNL     1       0.098  -1.286  -4.775  0.00  0.00    -0.345 N 
ATOM     28  H   UNL     1       0.628  -1.460  -5.568  0.00  0.00    +0.144 HD
ATOM     29  H   UNL     1      -0.869  -1.238  -4.838  0.00  0.00    +0.144 HD
ENDBRANCH   5  27
BRANCH   1  31
ATOM     30  C   UNL     1      -0.674   1.546  -0.411  0.00  0.00    +0.010 C 
ATOM     31  C   UNL     1      -0.359   0.069  -0.166  0.00  0.00    +0.048 C 
ENDBRANCH   1  31
BRANCH   4  32
ATOM     32  C   UNL     1       2.845  -1.193  -4.691  0.00  0.00    +0.099 C 
ATOM     33  N   UNL     1       3.455  -1.295  -5.643  0.00  0.00    -0.191 NA
ENDBRANCH   4  32
TORSDOF 7
