REMARK  Name = ZINC28048741
REMARK  5 active torsions:
REMARK  status: ('A' for Active; 'I' for Inactive)
REMARK    1  A    between atoms: C_1  and  C_2
REMARK    2  A    between atoms: C_2  and  N_3
REMARK    3  A    between atoms: C_12  and  O_13
REMARK    4  A    between atoms: C_14  and  N_15
REMARK    5  A    between atoms: N_18  and  C_19
REMARK                            x       y       z     vdW  Elec       q    Type
REMARK                         _______ _______ _______ _____ _____    ______ ____
ROOT
ATOM      1  N   UNL     1       3.470   3.584  -1.181  0.00  0.00    -0.383 N 
ATOM      2  C   UNL     1       2.321   4.077  -0.592  0.00  0.00    +0.075 A 
ATOM      3  C   UNL     1       1.080   3.286  -0.571  0.00  0.00    +0.042 A 
ATOM      4  C   UNL     1       1.028   2.014  -1.144  0.00  0.00    +0.013 A 
ATOM      5  C   UNL     1      -0.148   1.298  -1.107  0.00  0.00    +0.001 A 
ATOM      6  C   UNL     1      -1.277   1.838  -0.509  0.00  0.00    +0.004 A 
ATOM      7  C   UNL     1      -1.238   3.091   0.065  0.00  0.00    +0.047 A 
ATOM      8  C   UNL     1      -0.062   3.830   0.039  0.00  0.00    +0.141 A 
ATOM      9  O   UNL     1      -0.011   5.060   0.594  0.00  0.00    -0.424 OA
ATOM     10  C   UNL     1       1.111   5.797   0.585  0.00  0.00    +0.309 A 
ATOM     11  C   UNL     1       2.300   5.329  -0.005  0.00  0.00    +0.140 A 
ATOM     12  H   UNL     1       3.923   2.653  -0.808  0.00  0.00    +0.160 HD
ENDROOT
BRANCH  11  13
ATOM     13  N   UNL     1       3.458   6.128   0.003  0.00  0.00    -0.262 N 
ATOM     14  C   UNL     1       3.389   7.417  -0.386  0.00  0.00    +0.308 C 
ATOM     15  O   UNL     1       2.311   7.919  -0.639  0.00  0.00    -0.252 OA
ATOM     16  N   UNL     1       4.516   8.149  -0.493  0.00  0.00    -0.269 N 
ATOM     17  H   UNL     1       4.418   5.702   0.327  0.00  0.00    +0.157 HD
ATOM     18  H   UNL     1       5.497   7.675  -0.341  0.00  0.00    +0.156 HD
BRANCH  16  19
ATOM     19  C   UNL     1       4.438   9.513  -0.798  0.00  0.00    +0.035 A 
ATOM     20  C   UNL     1       3.456   9.977  -1.663  0.00  0.00    +0.024 A 
ATOM     21  C   UNL     1       3.377  11.325  -1.957  0.00  0.00    +0.017 A 
ATOM     22  C   UNL     1       4.284  12.210  -1.400  0.00  0.00    +0.018 A 
ATOM     23  C   UNL     1       5.267  11.749  -0.542  0.00  0.00    +0.017 A 
ATOM     24  C   UNL     1       5.346  10.403  -0.240  0.00  0.00    +0.024 A 
ATOM     25 BR   UNL     1       4.178  14.052  -1.812  0.00  0.00    -0.050 Br
ENDBRANCH  16  19
ENDBRANCH  11  13
BRANCH   1  27
ATOM     26  C   UNL     1       5.187   3.877  -2.902  0.00  0.00    +0.026 C 
ATOM     27  C   UNL     1       3.915   4.454  -2.277  0.00  0.00    +0.109 C 
ENDBRANCH   1  27
BRANCH  10  28
ATOM     28  O   UNL     1       1.100   6.901   1.101  0.00  0.00    -0.479 OA
ATOM     29  H   UNL     1       2.011   7.517   1.102  0.00  0.00    +0.295 HD
ENDBRANCH  10  28
TORSDOF 4
