REMARK  Name = ZINC38664021
REMARK  7 active torsions:
REMARK  status: ('A' for Active; 'I' for Inactive)
REMARK    1  A    between atoms: C_5  and  C_7
REMARK    2  A    between atoms: C_7  and  S_8
REMARK    3  A    between atoms: S_8  and  C_9
REMARK    4  A    between atoms: C_13  and  C_16
REMARK    5  A    between atoms: C_16  and  C_18
REMARK    6  A    between atoms: C_16  and  N_28
REMARK    7  A    between atoms: C_18  and  C_19
REMARK                            x       y       z     vdW  Elec       q    Type
REMARK                         _______ _______ _______ _____ _____    ______ ____
ROOT
ATOM      1  C   UNL     1       2.185  -7.445   0.710  0.00  0.00    -0.017 C 
ENDROOT
BRANCH   1   5
ATOM      2  C   UNL     1       1.275  -4.605   1.501  0.00  0.00    +0.319 C 
ATOM      3  N   UNL     1       0.115  -5.052   0.719  0.00  0.00    -0.146 NA
ATOM      4  N   UNL     1       0.466  -5.892  -0.120  0.00  0.00    -0.159 NA
ATOM      5  C   UNL     1       1.912  -6.130  -0.022  0.00  0.00    +0.246 C 
ATOM      6  O   UNL     1       2.429  -5.016   0.739  0.00  0.00    -0.320 OA
BRANCH   2   7
ATOM      7  S   UNL     1       1.253  -2.800   1.685  0.00  0.00    -0.100 S 
BRANCH   7   8
ATOM      8  C   UNL     1       1.228  -2.186  -0.022  0.00  0.00    +0.111 C 
BRANCH   8  13
ATOM      9  C   UNL     1      -0.017   1.378   0.010  0.00  0.00    +0.000 A 
ATOM     10  C   UNL     1       1.171   2.087   0.002  0.00  0.00    +0.003 A 
ATOM     11  C   UNL     1       2.377   1.414  -0.013  0.00  0.00    +0.038 A 
ATOM     12  C   UNL     1       2.397   0.029  -0.021  0.00  0.00    +0.127 A 
ATOM     13  C   UNL     1       1.208  -0.679  -0.013  0.00  0.00    -0.002 A 
ATOM     14  C   UNL     1       0.002  -0.004   0.002  0.00  0.00    +0.007 A 
ATOM     15  F   UNL     1       3.577  -0.630  -0.036  0.00  0.00    -0.205 F 
ENDBRANCH   8  13
ENDBRANCH   7   8
ENDBRANCH   2   7
ENDBRANCH   1   5
BRANCH   1  16
ATOM     16  N   UNL     1       1.587  -7.393   2.051  0.00  0.00    +0.383 N 
ATOM     17  H   UNL     1       0.591  -7.254   1.970  0.00  0.00    -0.089 HD
ATOM     18  H   UNL     1       1.767  -8.261   2.534  0.00  0.00    -0.089 HD
ATOM     19  H   UNL     1       1.992  -6.629   2.570  0.00  0.00    -0.089 HD
ENDBRANCH   1  16
BRANCH   1  20
ATOM     20  C   UNL     1       1.571  -8.604  -0.077  0.00  0.00    +0.025 C 
BRANCH  20  21
ATOM     21  C   UNL     1       1.944  -9.909   0.577  0.00  0.00    -0.024 A 
ATOM     22  C   UNL     1       1.248 -10.555   1.692  0.00  0.00    +0.003 A 
ATOM     23  C   UNL     1       0.126 -10.229   2.455  0.00  0.00    +0.010 A 
ATOM     24  C   UNL     1      -0.281 -11.066   3.456  0.00  0.00    +0.001 A 
ATOM     25  C   UNL     1       0.413 -12.238   3.720  0.00  0.00    +0.002 A 
ATOM     26  C   UNL     1       1.524 -12.579   2.980  0.00  0.00    +0.026 A 
ATOM     27  C   UNL     1       1.956 -11.743   1.956  0.00  0.00    +0.047 A 
ATOM     28  N   UNL     1       3.000 -11.801   1.061  0.00  0.00    -0.360 N 
ATOM     29  C   UNL     1       2.973 -10.704   0.243  0.00  0.00    +0.087 A 
ATOM     30  H   UNL     1       3.654 -12.516   1.014  0.00  0.00    +0.165 HD
ENDBRANCH  20  21
ENDBRANCH   1  20
TORSDOF 7
