REMARK  Name = ZINC66907775
REMARK  8 active torsions:
REMARK  status: ('A' for Active; 'I' for Inactive)
REMARK    1  A    between atoms: C_1  and  C_2
REMARK    2  A    between atoms: C_2  and  C_3
REMARK    3  A    between atoms: C_2  and  C_4
REMARK    4  A    between atoms: C_2  and  N_21
REMARK    5  A    between atoms: C_4  and  N_5
REMARK    6  A    between atoms: N_8  and  C_9
REMARK    7  A    between atoms: C_9  and  C_10
REMARK    8  A    between atoms: C_10  and  O_20
REMARK                            x       y       z     vdW  Elec       q    Type
REMARK                         _______ _______ _______ _____ _____    ______ ____
ROOT
ATOM      1  N   UNL     1      -1.323  -2.147   0.026  0.00  0.00    -0.298 N 
ATOM      2  C   UNL     1      -2.392  -2.821  -0.441  0.00  0.00    +0.300 C 
ATOM      3  O   UNL     1      -3.437  -2.236  -0.648  0.00  0.00    -0.253 OA
ATOM      4  N   UNL     1      -2.303  -4.145  -0.678  0.00  0.00    -0.296 N 
ATOM      5  H   UNL     1      -0.489  -2.614   0.191  0.00  0.00    +0.150 HD
ATOM      6  H   UNL     1      -1.469  -4.612  -0.513  0.00  0.00    +0.150 HD
ENDROOT
BRANCH   1   7
ATOM      7  C   UNL     1      -1.420  -0.708   0.284  0.00  0.00    +0.127 C 
BRANCH   7   9
ATOM      8  C   UNL     1       0.916  -0.299  -0.502  0.00  0.00    +0.029 C 
ATOM      9  C   UNL     1      -0.045  -0.167   0.681  0.00  0.00    +0.032 C 
ATOM     10  C   UNL     1      -0.171   1.306   1.074  0.00  0.00    +0.029 C 
BRANCH   9  11
ATOM     11  N   UNL     1       0.473  -0.936   1.821  0.00  0.00    -0.291 NA
ATOM     12  C   UNL     1      -0.466  -0.897   2.952  0.00  0.00    +0.113 C 
ATOM     13  C   UNL     1       0.084  -1.757   4.093  0.00  0.00    +0.175 C 
ATOM     14  O   UNL     1       1.385  -1.288   4.454  0.00  0.00    -0.377 OA
ATOM     15  C   UNL     1       2.325  -1.312   3.376  0.00  0.00    +0.175 C 
ATOM     16  C   UNL     1       1.798  -0.447   2.227  0.00  0.00    +0.113 C 
ENDBRANCH   9  11
ENDBRANCH   7   9
ENDBRANCH   1   7
BRANCH   4  17
ATOM     17  C   UNL     1      -3.465  -4.878  -1.186  0.00  0.00    +0.145 C 
BRANCH  17  18
ATOM     18  C   UNL     1      -3.063  -6.323  -1.491  0.00  0.00    +0.107 C 
ATOM     19  C   UNL     1      -1.917  -6.324  -2.501  0.00  0.00    +0.041 C 
ATOM     20  C   UNL     1      -1.676  -7.768  -2.957  0.00  0.00    +0.008 C 
ATOM     21  C   UNL     1      -2.861  -8.205  -3.817  0.00  0.00    +0.035 C 
ATOM     22  C   UNL     1      -4.160  -7.931  -3.106  0.00  0.00    -0.041 A 
ATOM     23  C   UNL     1      -4.254  -7.064  -2.041  0.00  0.00    -0.011 A 
ATOM     24  C   UNL     1      -5.485  -6.851  -1.433  0.00  0.00    +0.007 A 
ATOM     25  C   UNL     1      -6.612  -7.504  -1.887  0.00  0.00    +0.000 A 
ATOM     26  C   UNL     1      -6.518  -8.377  -2.954  0.00  0.00    +0.000 A 
ATOM     27  C   UNL     1      -5.296  -8.589  -3.560  0.00  0.00    +0.004 A 
BRANCH  18  28
ATOM     28  O   UNL     1      -2.629  -6.956  -0.286  0.00  0.00    -0.382 OA
ATOM     29  H   UNL     1      -3.303  -6.986   0.408  0.00  0.00    +0.211 HD
ENDBRANCH  18  28
ENDBRANCH  17  18
ENDBRANCH   4  17
TORSDOF 6
