REMARK  Name = ZINC37019724
REMARK  8 active torsions:
REMARK  status: ('A' for Active; 'I' for Inactive)
REMARK    1  A    between atoms: C_1  and  C_2
REMARK    2  A    between atoms: C_2  and  C_3
REMARK    3  A    between atoms: C_3  and  C_4
REMARK    4  A    between atoms: C_4  and  C_6
REMARK    5  A    between atoms: C_4  and  N_19
REMARK    6  A    between atoms: N_8  and  C_9
REMARK    7  A    between atoms: C_14  and  O_15
REMARK    8  A    between atoms: O_15  and  C_16
REMARK                            x       y       z     vdW  Elec       q    Type
REMARK                         _______ _______ _______ _____ _____    ______ ____
ROOT
ATOM      1  C   UNL     1      -2.825  -2.578  -0.107  0.00  0.00    +0.203 C 
ATOM      2  O   UNL     1      -3.409  -2.969   0.881  0.00  0.00    -0.277 OA
ATOM      3  N   UNL     1      -3.433  -2.620  -1.310  0.00  0.00    -0.284 N 
ATOM      4  H   UNL     1      -2.992  -2.248  -2.089  0.00  0.00    +0.155 HD
ENDROOT
BRANCH   3   5
ATOM      5  C   UNL     1      -4.703  -3.200  -1.433  0.00  0.00    +0.078 A 
ATOM      6  C   UNL     1      -5.624  -3.083  -0.402  0.00  0.00    +0.047 A 
ATOM      7  C   UNL     1      -6.876  -3.656  -0.525  0.00  0.00    +0.044 A 
ATOM      8  C   UNL     1      -7.214  -4.347  -1.676  0.00  0.00    +0.039 A 
ATOM      9  C   UNL     1      -6.300  -4.467  -2.708  0.00  0.00    +0.063 A 
ATOM     10  C   UNL     1      -5.045  -3.890  -2.593  0.00  0.00    +0.155 A 
ATOM     11 BR   UNL     1      -6.766  -5.412  -4.278  0.00  0.00    -0.046 Br
ATOM     12 CL   UNL     1      -8.027  -3.510   0.766  0.00  0.00    -0.083 Cl
BRANCH  10  13
ATOM     13  O   UNL     1      -4.147  -4.003  -3.609  0.00  0.00    -0.492 OA
ATOM     14  C   UNL     1      -3.276  -5.135  -3.582  0.00  0.00    +0.277 C 
ENDBRANCH  10  13
ENDBRANCH   3   5
BRANCH   1  15
ATOM     15  C   UNL     1      -1.420  -2.046   0.008  0.00  0.00    +0.013 C 
BRANCH  15  16
ATOM     16  N   UNL     1      -0.815  -2.528   1.257  0.00  0.00    +0.386 N 
ATOM     17  H   UNL     1      -1.362  -2.206   2.042  0.00  0.00    -0.089 HD
ATOM     18  H   UNL     1      -0.794  -3.537   1.253  0.00  0.00    -0.089 HD
ATOM     19  H   UNL     1       0.126  -2.171   1.335  0.00  0.00    -0.089 HD
ENDBRANCH  15  16
BRANCH  15  20
ATOM     20  C   UNL     1      -1.453  -0.516   0.015  0.00  0.00    -0.007 C 
BRANCH  20  22
ATOM     21  C   UNL     1      -0.055   1.554   0.013  0.00  0.00    +0.004 C 
ATOM     22  C   UNL     1      -0.022   0.025   0.006  0.00  0.00    -0.005 C 
ENDBRANCH  20  22
ENDBRANCH  15  20
ENDBRANCH   1  15
TORSDOF 6
