REMARK  Name = ZINC39898979
REMARK  8 active torsions:
REMARK  status: ('A' for Active; 'I' for Inactive)
REMARK    1  A    between atoms: C_1  and  O_2
REMARK    2  A    between atoms: O_2  and  C_3
REMARK    3  A    between atoms: C_5  and  C_10
REMARK    4  A    between atoms: C_8  and  O_9
REMARK    5  A    between atoms: C_13  and  C_29
REMARK    6  A    between atoms: N_20  and  C_21
REMARK    7  A    between atoms: C_21  and  C_22
REMARK    8  A    between atoms: C_34  and  O_35
REMARK                            x       y       z     vdW  Elec       q    Type
REMARK                         _______ _______ _______ _____ _____    ______ ____
ROOT
ATOM      1  C   UNL     1      -4.704  -0.232   0.035  0.00  0.00    +0.142 C 
ATOM      2  C   UNL     1      -5.254   0.270   1.342  0.00  0.00    +0.035 A 
ATOM      3  C   UNL     1      -5.038   1.024   2.500  0.00  0.00    +0.102 A 
ATOM      4  N   UNL     1      -6.136   0.955   3.227  0.00  0.00    -0.173 NA
ATOM      5  N   UNL     1      -7.024   0.232   2.641  0.00  0.00    -0.272 N 
ATOM      6  H   UNL     1      -7.908   0.044   2.992  0.00  0.00    +0.189 HD
ATOM      7  C   UNL     1      -6.537  -0.230   1.452  0.00  0.00    +0.126 A 
ATOM      8  C   UNL     1      -6.828  -1.036   0.261  0.00  0.00    +0.266 C 
ATOM      9  O   UNL     1      -7.877  -1.614   0.053  0.00  0.00    -0.268 OA
ATOM     10  N   UNL     1      -5.769  -1.043  -0.571  0.00  0.00    -0.281 N 
ENDROOT
BRANCH   3  11
ATOM     11  C   UNL     1      -3.800   1.764   2.848  0.00  0.00    +0.045 A 
ATOM     12  C   UNL     1      -2.759   1.859   1.927  0.00  0.00    +0.033 A 
ATOM     13  C   UNL     1      -1.609   2.549   2.256  0.00  0.00    +0.042 A 
ATOM     14  C   UNL     1      -1.486   3.147   3.499  0.00  0.00    +0.023 A 
ATOM     15  C   UNL     1      -2.513   3.058   4.420  0.00  0.00    +0.047 A 
ATOM     16  C   UNL     1      -3.675   2.374   4.100  0.00  0.00    +0.126 A 
ATOM     17 CL   UNL     1      -0.312   2.666   1.108  0.00  0.00    -0.084 Cl
BRANCH  16  18
ATOM     18  O   UNL     1      -4.687   2.291   5.002  0.00  0.00    -0.506 OA
ATOM     19  H   UNL     1      -4.628   1.525   5.590  0.00  0.00    +0.292 HD
ENDBRANCH  16  18
ENDBRANCH   3  11
BRANCH   1  22
ATOM     20  C   UNL     1      -2.468  -3.041   1.211  0.00  0.00    +0.162 A 
ATOM     21  C   UNL     1      -3.591  -2.261   0.987  0.00  0.00    +0.055 A 
ATOM     22  C   UNL     1      -3.482  -1.079   0.278  0.00  0.00    -0.019 A 
ATOM     23  C   UNL     1      -2.253  -0.673  -0.210  0.00  0.00    +0.009 A 
ATOM     24  C   UNL     1      -1.129  -1.447   0.009  0.00  0.00    +0.049 A 
ATOM     25  C   UNL     1      -1.231  -2.629   0.725  0.00  0.00    +0.158 A 
BRANCH  20  27
ATOM     26  C   UNL     1      -3.883  -4.590   2.330  0.00  0.00    +0.277 C 
ATOM     27  O   UNL     1      -2.574  -4.203   1.909  0.00  0.00    -0.491 OA
ENDBRANCH  20  27
BRANCH  25  28
ATOM     28  O   UNL     1      -0.124  -3.388   0.947  0.00  0.00    -0.503 OA
ATOM     29  H   UNL     1       0.046  -4.046   0.259  0.00  0.00    +0.292 HD
ENDBRANCH  25  28
ENDBRANCH   1  22
BRANCH  10  30
ATOM     30  C   UNL     1      -5.691  -1.739  -1.858  0.00  0.00    +0.145 C 
BRANCH  30  31
ATOM     31  C   UNL     1      -5.157  -3.132  -1.644  0.00  0.00    -0.012 A 
ATOM     32  C   UNL     1      -3.826  -3.409  -1.893  0.00  0.00    +0.006 A 
ATOM     33  C   UNL     1      -3.337  -4.686  -1.696  0.00  0.00    +0.000 A 
ATOM     34  C   UNL     1      -4.179  -5.689  -1.251  0.00  0.00    +0.001 A 
ATOM     35  C   UNL     1      -5.510  -5.413  -1.002  0.00  0.00    +0.020 A 
ATOM     36  C   UNL     1      -5.999  -4.133  -1.193  0.00  0.00    +0.046 A 
ATOM     37 CL   UNL     1      -7.669  -3.785  -0.873  0.00  0.00    -0.083 Cl
ENDBRANCH  30  31
ENDBRANCH  10  30
TORSDOF 7
