REMARK  Name = ZINC39737050
REMARK  8 active torsions:
REMARK  status: ('A' for Active; 'I' for Inactive)
REMARK    1  A    between atoms: C_1  and  C_2
REMARK    2  A    between atoms: C_7  and  C_12
REMARK    3  A    between atoms: C_12  and  C_34
REMARK    4  A    between atoms: C_13  and  C_14
REMARK    5  A    between atoms: C_18  and  O_20
REMARK    6  A    between atoms: O_20  and  C_21
REMARK    7  A    between atoms: C_24  and  C_30
REMARK    8  A    between atoms: C_26  and  N_27
REMARK                            x       y       z     vdW  Elec       q    Type
REMARK                         _______ _______ _______ _____ _____    ______ ____
ROOT
ATOM      1  C   UNL     1      -2.169  -7.119   2.817  0.00  0.00    -0.021 A 
ATOM      2  C   UNL     1      -3.409  -6.558   2.493  0.00  0.00    +0.008 A 
ATOM      3  C   UNL     1      -4.572  -7.211   2.841  0.00  0.00    +0.004 A 
ATOM      4  C   UNL     1      -4.518  -8.420   3.511  0.00  0.00    +0.046 A 
ATOM      5  C   UNL     1      -3.293  -8.986   3.838  0.00  0.00    +0.129 A 
ATOM      6  C   UNL     1      -2.117  -8.343   3.489  0.00  0.00    +0.054 A 
ENDROOT
BRANCH   1   8
ATOM      7  C   UNL     1       0.149  -7.136   2.045  0.00  0.00    +0.072 C 
ATOM      8  C   UNL     1      -0.924  -6.426   2.447  0.00  0.00    +0.026 C 
BRANCH   7  15
ATOM      9  C   UNL     1       6.053  -8.859  -1.273  0.00  0.00    +0.044 C 
ATOM     10  C   UNL     1       5.119  -8.382  -0.191  0.00  0.00    -0.048 A 
ATOM     11  C   UNL     1       5.464  -8.620   1.152  0.00  0.00    +0.005 A 
ATOM     12  C   UNL     1       4.688  -8.229   2.182  0.00  0.00    +0.027 A 
ATOM     13  C   UNL     1       3.426  -7.524   1.912  0.00  0.00    +0.060 A 
ATOM     14  N   UNL     1       2.499  -7.042   2.688  0.00  0.00    -0.359 N 
ATOM     15  C   UNL     1       1.470  -6.445   1.826  0.00  0.00    +0.216 C 
ATOM     16  N   UNL     1       1.922  -6.644   0.444  0.00  0.00    -0.359 N 
ATOM     17  C   UNL     1       3.061  -7.273   0.491  0.00  0.00    +0.061 A 
ATOM     18  C   UNL     1       3.988  -7.741  -0.548  0.00  0.00    +0.030 A 
ATOM     19  H   UNL     1       2.489  -7.071   3.657  0.00  0.00    +0.162 HD
ATOM     20  H   UNL     1       1.457  -6.360  -0.359  0.00  0.00    +0.162 HD
ENDBRANCH   7  15
BRANCH   7  21
ATOM     21  C   UNL     1       0.032  -8.546   1.824  0.00  0.00    +0.099 C 
ATOM     22  N   UNL     1      -0.060  -9.664   1.649  0.00  0.00    -0.191 NA
ENDBRANCH   7  21
ENDBRANCH   1   8
BRANCH   5  23
ATOM     23  O   UNL     1      -3.248 -10.174   4.497  0.00  0.00    -0.454 OA
BRANCH  23  24
ATOM     24  C   UNL     1      -2.999 -10.154   5.832  0.00  0.00    +0.159 A 
ATOM     25  C   UNL     1      -2.725  -8.952   6.470  0.00  0.00    +0.049 A 
ATOM     26  C   UNL     1      -2.472  -8.934   7.828  0.00  0.00    +0.016 A 
ATOM     27  C   UNL     1      -2.492 -10.113   8.552  0.00  0.00    +0.057 A 
ATOM     28  C   UNL     1      -2.764 -11.311   7.918  0.00  0.00    +0.048 A 
ATOM     29  C   UNL     1      -3.024 -11.334   6.562  0.00  0.00    +0.169 A 
BRANCH  27  30
ATOM     30  C   UNL     1      -2.215 -10.091  10.033  0.00  0.00    +0.417 C 
ATOM     31  F   UNL     1      -1.969  -8.775  10.442  0.00  0.00    -0.166 F 
ATOM     32  F   UNL     1      -3.324 -10.593  10.722  0.00  0.00    -0.166 F 
ATOM     33  F   UNL     1      -1.096 -10.883  10.310  0.00  0.00    -0.166 F 
ENDBRANCH  27  30
BRANCH  29  34
ATOM     34  N   UNL     1      -3.321 -12.616   5.885  0.00  0.00    +0.060 N 
ATOM     35  O   UNL     1      -3.343 -13.644   6.521  0.00  0.00    -0.126 OA
ATOM     36  O   UNL     1      -3.543 -12.636   4.697  0.00  0.00    -0.126 OA
ENDBRANCH  29  34
ENDBRANCH  23  24
ENDBRANCH   5  23
TORSDOF 7
