REMARK  Name = ZINC19623378
REMARK  8 active torsions:
REMARK  status: ('A' for Active; 'I' for Inactive)
REMARK    1  A    between atoms: C_1  and  C_2
REMARK    2  A    between atoms: C_2  and  C_4
REMARK    3  A    between atoms: C_2  and  N_11
REMARK    4  A    between atoms: N_9  and  C_10
REMARK    5  A    between atoms: N_11  and  C_12
REMARK    6  A    between atoms: C_12  and  C_13
REMARK    7  A    between atoms: C_13  and  C_15
REMARK    8  A    between atoms: C_13  and  C_21
REMARK                            x       y       z     vdW  Elec       q    Type
REMARK                         _______ _______ _______ _____ _____    ______ ____
ROOT
ATOM      1  C   UNL     1      -0.741   6.409   0.045  0.00  0.00    +0.034 C 
ENDROOT
BRANCH   1   2
ATOM      2  C   UNL     1       0.245   5.269   0.029  0.00  0.00    -0.017 A 
ATOM      3  C   UNL     1       1.583   5.371   0.017  0.00  0.00    +0.087 A 
ATOM      4  N   UNL     1       2.147   4.124   0.004  0.00  0.00    -0.360 N 
ATOM      5  H   UNL     1       3.241   4.015  -0.007  0.00  0.00    +0.165 HD
ATOM      6  C   UNL     1       1.159   3.165   0.008  0.00  0.00    +0.047 A 
ATOM      7  C   UNL     1      -0.075   3.840   0.023  0.00  0.00    +0.003 A 
ATOM      8  C   UNL     1      -1.267   3.112   0.031  0.00  0.00    +0.010 A 
ATOM      9  C   UNL     1      -1.228   1.746   0.017  0.00  0.00    +0.001 A 
ATOM     10  C   UNL     1      -0.013   1.076   0.008  0.00  0.00    +0.002 A 
ATOM     11  C   UNL     1       1.175   1.774   0.000  0.00  0.00    +0.026 A 
ENDBRANCH   1   2
BRANCH   1  12
ATOM     12  C   UNL     1      -0.544   7.261  -1.182  0.00  0.00    -0.042 A 
ATOM     13  C   UNL     1       0.671   7.880  -1.406  0.00  0.00    +0.004 A 
ATOM     14  C   UNL     1       0.853   8.658  -2.534  0.00  0.00    +0.000 A 
ATOM     15  C   UNL     1      -0.184   8.824  -3.434  0.00  0.00    +0.000 A 
ATOM     16  C   UNL     1      -1.401   8.209  -3.207  0.00  0.00    +0.000 A 
ATOM     17  C   UNL     1      -1.581   7.428  -2.081  0.00  0.00    +0.004 A 
ENDBRANCH   1  12
BRANCH   1  18
ATOM     18  C   UNL     1      -0.517   7.259   1.297  0.00  0.00    -0.069 C 
BRANCH  18  19
ATOM     19  N   UNL     1      -1.553   8.298   1.375  0.00  0.00    +0.387 N 
ATOM     20  H   UNL     1      -2.538   7.811   1.418  0.00  0.00    -0.085 HD
ATOM     21  H   UNL     1      -1.492   8.925   0.474  0.00  0.00    -0.085 HD
BRANCH  19  23
ATOM     22  C   UNL     1      -2.042   8.467   3.769  0.00  0.00    -0.004 C 
ATOM     23  C   UNL     1      -1.369   9.135   2.568  0.00  0.00    +0.013 C 
BRANCH  23  24
ATOM     24  C   UNL     1      -1.991  10.488   2.333  0.00  0.00    +0.206 C 
ATOM     25  O   UNL     1      -2.533  10.730   1.276  0.00  0.00    -0.277 OA
ATOM     26  N   UNL     1      -1.944  11.428   3.297  0.00  0.00    -0.242 N 
ATOM     27  C   UNL     1      -2.500  12.637   3.087  0.00  0.00    +0.306 C 
ATOM     28  O   UNL     1      -3.044  12.880   2.027  0.00  0.00    -0.252 OA
ATOM     29  N   UNL     1      -2.453  13.578   4.051  0.00  0.00    -0.302 N 
ATOM     30  C   UNL     1      -3.057  14.893   3.822  0.00  0.00    +0.129 C 
ATOM     31  H   UNL     1      -1.452  11.208   4.256  0.00  0.00    +0.159 HD
ATOM     32  H   UNL     1      -1.961  13.358   5.010  0.00  0.00    +0.150 HD
ENDBRANCH  23  24
ENDBRANCH  19  23
ENDBRANCH  18  19
ENDBRANCH   1  18
TORSDOF 6
