REMARK  Name = ZINC63573282
REMARK  5 active torsions:
REMARK  status: ('A' for Active; 'I' for Inactive)
REMARK    1  A    between atoms: C_1  and  C_2
REMARK    2  A    between atoms: C_5  and  C_8
REMARK    3  A    between atoms: C_15  and  O_20
REMARK    4  A    between atoms: O_20  and  C_21
REMARK    5  A    between atoms: N_27  and  C_28
REMARK                            x       y       z     vdW  Elec       q    Type
REMARK                         _______ _______ _______ _____ _____    ______ ____
ROOT
ATOM      1  C   UNL     1       0.469  -3.682   0.086  0.00  0.00    +0.134 C 
ATOM      2  C   UNL     1      -0.988  -4.154   0.126  0.00  0.00    +0.131 C 
ATOM      3  C   UNL     1      -1.387  -4.208   1.595  0.00  0.00    -0.035 C 
ATOM      4  C   UNL     1      -2.463  -3.440   1.720  0.00  0.00    +0.003 A 
ATOM      5  C   UNL     1      -3.335  -3.151   2.868  0.00  0.00    +0.055 A 
ATOM      6  C   UNL     1      -4.368  -2.291   2.650  0.00  0.00    +0.121 A 
ATOM      7  C   UNL     1      -4.632  -1.682   1.414  0.00  0.00    +0.047 A 
ATOM      8  C   UNL     1      -3.896  -1.881   0.291  0.00  0.00    +0.029 A 
ATOM      9  C   UNL     1      -2.752  -2.797   0.401  0.00  0.00    +0.043 A 
ATOM     10  N   UNL     1      -1.889  -3.194  -0.515  0.00  0.00    -0.375 N 
ATOM     11  C   UNL     1      -0.583  -4.961   2.626  0.00  0.00    +0.052 C 
ATOM     12  C   UNL     1       0.879  -4.504   2.467  0.00  0.00    +0.114 C 
ATOM     13  N   UNL     1       1.235  -4.495   1.043  0.00  0.00    -0.276 N 
ATOM     14  C   UNL     1       2.271  -5.240   0.608  0.00  0.00    +0.307 C 
ATOM     15  O   UNL     1       2.627  -5.167  -0.552  0.00  0.00    -0.252 OA
ATOM     16  N   UNL     1       2.912  -6.065   1.459  0.00  0.00    -0.269 N 
ATOM     17  H   UNL     1       2.589  -6.171   2.368  0.00  0.00    +0.156 HD
ATOM     18  H   UNL     1      -1.846  -2.905  -1.440  0.00  0.00    +0.160 HD
ENDROOT
BRANCH   1  23
ATOM     19  C   UNL     1       0.759   1.892   1.581  0.00  0.00    +0.044 C 
ATOM     20  C   UNL     1       0.683   0.439   1.192  0.00  0.00    -0.050 A 
ATOM     21  C   UNL     1       0.969   0.055  -0.106  0.00  0.00    +0.004 A 
ATOM     22  C   UNL     1       0.900  -1.278  -0.463  0.00  0.00    +0.006 A 
ATOM     23  C   UNL     1       0.546  -2.228   0.476  0.00  0.00    -0.025 A 
ATOM     24  C   UNL     1       0.261  -1.845   1.773  0.00  0.00    +0.006 A 
ATOM     25  C   UNL     1       0.334  -0.512   2.132  0.00  0.00    +0.004 A 
ENDBRANCH   1  23
BRANCH  16  26
ATOM     26  C   UNL     1       4.043  -6.770   1.032  0.00  0.00    +0.036 A 
ATOM     27  C   UNL     1       4.248  -7.001  -0.322  0.00  0.00    +0.023 A 
ATOM     28  C   UNL     1       5.366  -7.696  -0.741  0.00  0.00    +0.003 A 
ATOM     29  C   UNL     1       6.280  -8.162   0.186  0.00  0.00    +0.020 A 
ATOM     30  C   UNL     1       6.079  -7.934   1.536  0.00  0.00    +0.043 A 
ATOM     31  C   UNL     1       4.965  -7.233   1.960  0.00  0.00    +0.043 A 
ATOM     32 CL   UNL     1       7.229  -8.521   2.696  0.00  0.00    -0.083 Cl
ENDBRANCH  16  26
BRANCH   6  33
ATOM     33  O   UNL     1      -5.192  -2.004   3.692  0.00  0.00    -0.495 OA
ATOM     34  C   UNL     1      -6.268  -1.099   3.438  0.00  0.00    +0.277 C 
ENDBRANCH   6  33
TORSDOF 3
