REMARK  Name = ZINC24399213
REMARK  7 active torsions:
REMARK  status: ('A' for Active; 'I' for Inactive)
REMARK    1  A    between atoms: C_1  and  C_2
REMARK    2  A    between atoms: C_4  and  C_28
REMARK    3  A    between atoms: C_5  and  C_27
REMARK    4  A    between atoms: C_6  and  S_9
REMARK    5  A    between atoms: C_7  and  C_8
REMARK    6  A    between atoms: S_9  and  N_12
REMARK    7  A    between atoms: C_18  and  C_20
REMARK                            x       y       z     vdW  Elec       q    Type
REMARK                         _______ _______ _______ _____ _____    ______ ____
ROOT
ATOM      1  N   UNL     1      -4.896  -0.025  -1.311  0.00  0.00    -0.174 NA
ATOM      2  C   UNL     1      -5.344  -1.423  -1.385  0.00  0.00    +0.128 C 
ATOM      3  C   UNL     1      -4.911  -2.145  -0.104  0.00  0.00    +0.125 C 
ATOM      4  N   UNL     1      -3.487  -1.870   0.132  0.00  0.00    -0.294 N 
ATOM      5  C   UNL     1      -3.039  -0.472   0.212  0.00  0.00    +0.125 C 
ATOM      6  C   UNL     1      -3.471   0.250  -1.076  0.00  0.00    +0.128 C 
ATOM      7  C   UNL     1      -2.608  -2.881   0.278  0.00  0.00    +0.263 C 
ATOM      8  O   UNL     1      -1.429  -2.640   0.461  0.00  0.00    -0.268 OA
ENDROOT
BRANCH   7   9
ATOM      9  C   UNL     1      -3.072  -4.271   0.217  0.00  0.00    +0.103 A 
ATOM     10  C   UNL     1      -2.320  -5.365  -0.154  0.00  0.00    +0.047 A 
ATOM     11  C   UNL     1      -3.154  -6.485  -0.071  0.00  0.00    +0.036 A 
ATOM     12  C   UNL     1      -4.375  -6.064   0.341  0.00  0.00    +0.098 A 
ATOM     13  N   UNL     1      -4.337  -4.720   0.520  0.00  0.00    -0.356 N 
ATOM     14  H   UNL     1      -5.111  -4.008   0.844  0.00  0.00    +0.165 HD
ATOM     15 BR   UNL     1      -2.667  -8.269  -0.464  0.00  0.00    -0.049 Br
ENDBRANCH   7   9
BRANCH   1  16
ATOM     16  S   UNL     1      -5.976   1.217  -1.490  0.00  0.00    +0.061 S 
ATOM     17  O   UNL     1      -5.236   2.334  -1.962  0.00  0.00    -0.153 OA
ATOM     18  O   UNL     1      -7.090   0.688  -2.196  0.00  0.00    -0.153 OA
BRANCH  16  24
ATOM     19  C   UNL     1      -5.883   4.240   2.773  0.00  0.00    +0.044 C 
ATOM     20  C   UNL     1      -6.470   3.056   2.048  0.00  0.00    -0.045 A 
ATOM     21  C   UNL     1      -7.462   2.302   2.646  0.00  0.00    +0.007 A 
ATOM     22  C   UNL     1      -8.001   1.217   1.981  0.00  0.00    -0.045 A 
ATOM     23  C   UNL     1      -7.547   0.885   0.718  0.00  0.00    -0.021 A 
ATOM     24  C   UNL     1      -6.555   1.639   0.120  0.00  0.00    +0.112 A 
ATOM     25  C   UNL     1      -6.013   2.722   0.787  0.00  0.00    -0.021 A 
ATOM     26  C   UNL     1      -4.927   3.541   0.138  0.00  0.00    +0.046 C 
ATOM     27  C   UNL     1      -8.133  -0.299  -0.007  0.00  0.00    +0.046 C 
ATOM     28  C   UNL     1      -9.082   0.394   2.632  0.00  0.00    +0.044 C 
ENDBRANCH  16  24
ENDBRANCH   1  16
TORSDOF 3
