REMARK  Name = ZINC00125121
REMARK  4 active torsions:
REMARK  status: ('A' for Active; 'I' for Inactive)
REMARK    1  A    between atoms: C_1  and  C_2
REMARK    2  A    between atoms: C_10  and  N_24
REMARK    3  A    between atoms: C_11  and  C_22
REMARK    4  A    between atoms: C_12  and  C_14
REMARK                            x       y       z     vdW  Elec       q    Type
REMARK                         _______ _______ _______ _____ _____    ______ ____
ROOT
ATOM      1  C   UNL     1       1.855  -4.106   1.545  0.00  0.00    +0.086 C 
ATOM      2  C   UNL     1       2.048  -2.667   1.143  0.00  0.00    +0.110 A 
ATOM      3  C   UNL     1       3.284  -2.141   1.185  0.00  0.00    +0.092 A 
ATOM      4  C   UNL     1       3.462  -0.783   0.805  0.00  0.00    +0.193 A 
ATOM      5  O   UNL     1       4.567  -0.261   0.828  0.00  0.00    -0.287 OA
ATOM      6  C   UNL     1       2.320  -0.057   0.399  0.00  0.00    +0.092 A 
ATOM      7  C   UNL     1       1.112  -0.673   0.387  0.00  0.00    +0.301 A 
ATOM      8  O   UNL     1       0.988  -1.957   0.756  0.00  0.00    -0.429 OA
ATOM      9  O   UNL     1       0.002  -0.004   0.002  0.00  0.00    -0.410 OA
ATOM     10  C   UNL     1      -0.016   1.339   0.009  0.00  0.00    +0.202 C 
ATOM     11  C   UNL     1       1.128   2.065   0.002  0.00  0.00    +0.098 C 
ATOM     12  C   UNL     1       2.468   1.382  -0.012  0.00  0.00    +0.108 C 
ENDROOT
BRANCH  12  13
ATOM     13  C   UNL     1       3.044   1.448  -1.403  0.00  0.00    +0.002 A 
ATOM     14  C   UNL     1       2.372   0.860  -2.459  0.00  0.00    +0.046 A 
ATOM     15  C   UNL     1       2.899   0.925  -3.737  0.00  0.00    +0.020 A 
ATOM     16  C   UNL     1       4.103   1.568  -3.956  0.00  0.00    +0.003 A 
ATOM     17  C   UNL     1       4.778   2.151  -2.900  0.00  0.00    +0.020 A 
ATOM     18  C   UNL     1       4.249   2.092  -1.623  0.00  0.00    +0.046 A 
ATOM     19 CL   UNL     1       5.097   2.824  -0.297  0.00  0.00    -0.083 Cl
ATOM     20 CL   UNL     1       0.864   0.046  -2.183  0.00  0.00    -0.083 Cl
ENDBRANCH  12  13
BRANCH  10  21
ATOM     21  N   UNL     1      -1.223   1.992   0.019  0.00  0.00    -0.328 N 
ATOM     22  H   UNL     1      -2.050   1.484   0.020  0.00  0.00    +0.145 HD
ATOM     23  H   UNL     1      -1.250   2.962   0.024  0.00  0.00    +0.145 HD
ENDBRANCH  10  21
BRANCH  11  24
ATOM     24  C   UNL     1       1.061   3.495   0.009  0.00  0.00    +0.101 C 
ATOM     25  N   UNL     1       1.007   4.630   0.014  0.00  0.00    -0.191 NA
ENDBRANCH  11  24
TORSDOF 3
