REMARK  Name = ZINC15971776
REMARK  7 active torsions:
REMARK  status: ('A' for Active; 'I' for Inactive)
REMARK    1  A    between atoms: C_1  and  C_2
REMARK    2  A    between atoms: C_2  and  C_3
REMARK    3  A    between atoms: C_3  and  C_4
REMARK    4  A    between atoms: C_4  and  N_5
REMARK    5  A    between atoms: C_26  and  C_28
REMARK    6  A    between atoms: C_28  and  C_30
REMARK    7  A    between atoms: C_28  and  O_31
REMARK                            x       y       z     vdW  Elec       q    Type
REMARK                         _______ _______ _______ _____ _____    ______ ____
ROOT
ATOM      1  N   UNL     1       1.425  -2.500  -2.470  0.00  0.00    -0.242 N 
ATOM      2  C   UNL     1       0.784  -2.738  -3.621  0.00  0.00    +0.227 C 
ATOM      3  O   UNL     1      -0.406  -2.597  -3.802  0.00  0.00    -0.275 OA
ATOM      4  C   UNL     1       1.776  -3.210  -4.660  0.00  0.00    +0.109 C 
ATOM      5  C   UNL     1       3.128  -3.201  -3.894  0.00  0.00    +0.122 C 
ATOM      6  C   UNL     1       2.743  -2.723  -2.512  0.00  0.00    +0.228 C 
ATOM      7  O   UNL     1       3.510  -2.568  -1.586  0.00  0.00    -0.275 OA
ATOM      8  C   UNL     1       3.560  -4.671  -3.853  0.00  0.00    +0.136 C 
ATOM      9  C   UNL     1       5.051  -4.813  -3.968  0.00  0.00    +0.006 A 
ATOM     10  C   UNL     1       5.968  -4.431  -4.922  0.00  0.00    +0.046 A 
ATOM     11  C   UNL     1       7.313  -4.711  -4.740  0.00  0.00    +0.124 A 
ATOM     12  C   UNL     1       7.730  -5.375  -3.599  0.00  0.00    +0.040 A 
ATOM     13  C   UNL     1       6.813  -5.757  -2.642  0.00  0.00    +0.026 A 
ATOM     14  C   UNL     1       5.460  -5.479  -2.817  0.00  0.00    +0.039 A 
ATOM     15  N   UNL     1       4.358  -5.758  -2.003  0.00  0.00    -0.283 N 
ATOM     16  C   UNL     1       3.205  -5.313  -2.540  0.00  0.00    +0.243 C 
ATOM     17  O   UNL     1       2.097  -5.411  -2.057  0.00  0.00    -0.273 OA
ATOM     18  F   UNL     1       8.215  -4.337  -5.675  0.00  0.00    -0.205 F 
ATOM     19  N   UNL     1       2.865  -5.328  -4.976  0.00  0.00    -0.293 NA
ATOM     20  C   UNL     1       1.500  -4.693  -4.988  0.00  0.00    +0.096 C 
ATOM     21  H   UNL     1       4.417  -6.218  -1.151  0.00  0.00    +0.155 HD
ATOM     22  H   UNL     1       3.349  -5.165  -5.846  0.00  0.00    +0.124 HD
ENDROOT
BRANCH  20  23
ATOM     23  C   UNL     1       0.864  -4.822  -6.374  0.00  0.00    +0.129 C 
ATOM     24  C   UNL     1       0.599  -6.298  -6.677  0.00  0.00    +0.039 C 
BRANCH  23  25
ATOM     25  O   UNL     1      -0.369  -4.101  -6.401  0.00  0.00    -0.390 OA
ATOM     26  H   UNL     1      -0.829  -4.140  -7.251  0.00  0.00    +0.210 HD
ENDBRANCH  23  25
ENDBRANCH  20  23
BRANCH   1  27
ATOM     27  C   UNL     1       0.739  -2.027  -1.265  0.00  0.00    +0.116 C 
BRANCH  27  28
ATOM     28  C   UNL     1       0.718  -0.497  -1.257  0.00  0.00    +0.019 C 
BRANCH  28  30
ATOM     29  C   UNL     1      -0.019   1.526   0.010  0.00  0.00    +0.004 C 
ATOM     30  C   UNL     1       0.002  -0.004   0.002  0.00  0.00    -0.002 C 
ENDBRANCH  28  30
ENDBRANCH  27  28
ENDBRANCH   1  27
TORSDOF 5
