REMARK  Name = ZINC04021314
REMARK  7 active torsions:
REMARK  status: ('A' for Active; 'I' for Inactive)
REMARK    1  A    between atoms: C_1  and  N_2
REMARK    2  A    between atoms: N_5  and  C_6
REMARK    3  A    between atoms: C_8  and  O_21
REMARK    4  A    between atoms: C_10  and  O_20
REMARK    5  A    between atoms: C_12  and  O_19
REMARK    6  A    between atoms: C_14  and  C_17
REMARK    7  A    between atoms: C_17  and  O_18
REMARK                            x       y       z     vdW  Elec       q    Type
REMARK                         _______ _______ _______ _____ _____    ______ ____
ROOT
ATOM      1  C   UNL     1       3.395   1.845  -1.307  0.00  0.00    +0.238 C 
ATOM      2  C   UNL     1       2.038   1.137  -1.267  0.00  0.00    +0.192 C 
ATOM      3  C   UNL     1       1.286   1.562  -0.002  0.00  0.00    +0.178 C 
ATOM      4  C   UNL     1       1.147   3.087   0.008  0.00  0.00    +0.177 C 
ATOM      5  C   UNL     1       2.538   3.720  -0.082  0.00  0.00    +0.177 C 
ATOM      6  O   UNL     1       3.194   3.259  -1.265  0.00  0.00    -0.348 OA
ENDROOT
BRANCH   1  11
ATOM      7  C   UNL     1       7.511   0.674  -3.635  0.00  0.00    +0.129 C 
ATOM      8  N   UNL     1       6.068   0.927  -3.659  0.00  0.00    -0.302 N 
ATOM      9  C   UNL     1       5.423   1.255  -2.522  0.00  0.00    +0.301 C 
ATOM     10  O   UNL     1       6.039   1.342  -1.477  0.00  0.00    -0.253 OA
ATOM     11  N   UNL     1       4.096   1.488  -2.543  0.00  0.00    -0.272 N 
ATOM     12  H   UNL     1       5.577   0.858  -4.492  0.00  0.00    +0.150 HD
ATOM     13  H   UNL     1       3.605   1.419  -3.377  0.00  0.00    +0.153 HD
ENDBRANCH   1  11
BRANCH   4  14
ATOM     14  O   UNL     1       0.361   3.502  -1.111  0.00  0.00    -0.386 OA
ATOM     15  H   UNL     1      -0.533   3.134  -1.122  0.00  0.00    +0.210 HD
ENDBRANCH   4  14
BRANCH   3  16
ATOM     16  O   UNL     1      -0.011   0.963   0.007  0.00  0.00    -0.386 OA
ATOM     17  H   UNL     1       0.002  -0.004   0.002  0.00  0.00    +0.210 HD
ENDBRANCH   3  16
BRANCH   2  18
ATOM     18  O   UNL     1       2.238  -0.278  -1.251  0.00  0.00    -0.385 OA
ATOM     19  H   UNL     1       2.709  -0.617  -2.025  0.00  0.00    +0.210 HD
ENDBRANCH   2  18
BRANCH   5  20
ATOM     20  C   UNL     1       2.403   5.243  -0.133  0.00  0.00    +0.190 C 
BRANCH  20  21
ATOM     21  O   UNL     1       3.703   5.837  -0.099  0.00  0.00    -0.392 OA
ATOM     22  H   UNL     1       3.694   6.804  -0.129  0.00  0.00    +0.210 HD
ENDBRANCH  20  21
ENDBRANCH   5  20
TORSDOF 6
