REMARK  Name = ZINC64470369
REMARK  5 active torsions:
REMARK  status: ('A' for Active; 'I' for Inactive)
REMARK    1  A    between atoms: C_1  and  C_2
REMARK    2  A    between atoms: C_5  and  N_8
REMARK    3  A    between atoms: C_11  and  C_33
REMARK    4  A    between atoms: C_13  and  N_16
REMARK    5  A    between atoms: C_17  and  C_19
REMARK                            x       y       z     vdW  Elec       q    Type
REMARK                         _______ _______ _______ _____ _____    ______ ____
ROOT
ATOM      1  N   UNL     1       0.058  -4.142  -0.021  0.00  0.00    -0.226 NA
ATOM      2  C   UNL     1       0.875  -4.793   0.776  0.00  0.00    +0.157 C 
ATOM      3  N   UNL     1       1.769  -4.270   1.679  0.00  0.00    -0.310 N 
ATOM      4  C   UNL     1       2.830  -5.111   2.199  0.00  0.00    +0.189 C 
ATOM      5  C   UNL     1       2.774  -6.558   1.656  0.00  0.00    +0.168 C 
ATOM      6  S   UNL     1       1.073  -6.561   0.941  0.00  0.00    -0.066 S 
ATOM      7  H   UNL     1       1.691  -3.346   1.966  0.00  0.00    +0.149 HD
ENDROOT
BRANCH   1  12
ATOM      8  C   UNL     1      -0.018   1.503   0.010  0.00  0.00    +0.044 C 
ATOM      9  C   UNL     1       0.002  -0.004   0.002  0.00  0.00    -0.050 A 
ATOM     10  C   UNL     1       0.006  -0.686  -1.202  0.00  0.00    +0.005 A 
ATOM     11  C   UNL     1       0.024  -2.065  -1.217  0.00  0.00    +0.028 A 
ATOM     12  C   UNL     1       0.040  -2.773  -0.013  0.00  0.00    +0.067 A 
ATOM     13  C   UNL     1       0.036  -2.079   1.198  0.00  0.00    +0.028 A 
ATOM     14  C   UNL     1       0.023  -0.699   1.198  0.00  0.00    +0.005 A 
ENDBRANCH   1  12
BRANCH   4  15
ATOM     15  C   UNL     1       4.158  -4.505   1.823  0.00  0.00    +0.233 C 
ATOM     16  O   UNL     1       4.221  -3.692   0.925  0.00  0.00    -0.274 OA
ATOM     17  N   UNL     1       5.276  -4.868   2.483  0.00  0.00    -0.328 N 
ATOM     18  H   UNL     1       5.225  -5.518   3.201  0.00  0.00    +0.145 HD
ATOM     19  H   UNL     1       6.130  -4.478   2.241  0.00  0.00    +0.145 HD
ENDBRANCH   4  15
BRANCH   5  20
ATOM     20  N   UNL     1       3.792  -6.780   0.626  0.00  0.00    -0.299 N 
ATOM     21  C   UNL     1       4.539  -7.901   0.649  0.00  0.00    +0.245 C 
ATOM     22  O   UNL     1       4.369  -8.726   1.521  0.00  0.00    -0.273 OA
ATOM     23  H   UNL     1       3.928  -6.120  -0.072  0.00  0.00    +0.150 HD
BRANCH  21  24
ATOM     24  C   UNL     1       5.586  -8.130  -0.411  0.00  0.00    +0.241 C 
ATOM     25  C   UNL     1       4.968  -8.695  -1.656  0.00  0.00    -0.007 C 
ATOM     26  C   UNL     1       5.565  -9.902  -1.818  0.00  0.00    +0.095 C 
ATOM     27  C   UNL     1       5.199 -10.750  -2.981  0.00  0.00    +0.005 A 
ATOM     28  C   UNL     1       5.561 -12.088  -3.049  0.00  0.00    +0.010 A 
ATOM     29  C   UNL     1       5.169 -12.845  -4.136  0.00  0.00    +0.001 A 
ATOM     30  C   UNL     1       4.418 -12.267  -5.145  0.00  0.00    +0.000 A 
ATOM     31  C   UNL     1       4.068 -10.931  -5.083  0.00  0.00    +0.004 A 
ATOM     32  C   UNL     1       4.467 -10.156  -4.011  0.00  0.00    -0.038 A 
ATOM     33  C   UNL     1       4.154  -8.684  -3.993  0.00  0.00    +0.040 C 
ATOM     34  C   UNL     1       3.916  -8.160  -2.577  0.00  0.00    +0.040 C 
ATOM     35  N   UNL     1       6.446 -10.118  -0.819  0.00  0.00    -0.153 NA
ATOM     36  N   UNL     1       6.527  -9.190   0.004  0.00  0.00    -0.170 NA
ENDBRANCH  21  24
ENDBRANCH   5  20
TORSDOF 4
