REMARK  Name = ZINC37407649
REMARK  8 active torsions:
REMARK  status: ('A' for Active; 'I' for Inactive)
REMARK    1  A    between atoms: CG2_1  and  CB_2
REMARK    2  A    between atoms: CB_2  and  CA_4
REMARK    3  A    between atoms: CB_2  and  OG1_22
REMARK    4  A    between atoms: CA_4  and  C_6
REMARK    5  A    between atoms: CA_4  and  N_9
REMARK    6  A    between atoms: C_10  and  C_12
REMARK    7  A    between atoms: C_12  and  O_13
REMARK    8  A    between atoms: O_13  and  C_14
REMARK                            x       y       z     vdW  Elec       q    Type
REMARK                         _______ _______ _______ _____ _____    ______ ____
ROOT
ATOM      1  N   THR A   1       2.116  -0.004   1.231  0.00  0.00    -0.297 N 
ATOM      2  C   UNK A   0       2.795   0.128   2.388  0.00  0.00    +0.251 C 
ATOM      3  O   UNK A   0       2.268  -0.174   3.438  0.00  0.00    -0.272 OA
ATOM      4  H   THR A   1       2.538   0.237   0.392  0.00  0.00    +0.150 HD
ENDROOT
BRANCH   1   5
ATOM      5  CA  THR A   1       0.742  -0.511   1.242  0.00  0.00    +0.215 C 
BRANCH   5   6
ATOM      6  C   THR A   1       0.762  -2.018   1.233  0.00  0.00    +0.378 C 
ATOM      7  O   THR A   1       1.680  -2.612   0.693  0.00  0.00    -0.244 OA
ATOM      8  OXT THR A   1      -0.139  -2.643   1.766  0.00  0.00    -0.244 OA
ENDBRANCH   5   6
BRANCH   5  10
ATOM      9  CG2 THR A   1      -0.019   1.526   0.010  0.00  0.00    +0.040 C 
ATOM     10  CB  THR A   1       0.002  -0.004   0.002  0.00  0.00    +0.143 C 
BRANCH  10  11
ATOM     11  OG1 THR A   1      -1.339  -0.499   0.012  0.00  0.00    -0.390 OA
ATOM     12  HG1 THR A   1      -1.868  -0.216  -0.746  0.00  0.00    +0.210 HD
ENDBRANCH  10  11
ENDBRANCH   5  10
ENDBRANCH   1   5
BRANCH   2  13
ATOM     13  C   UNK A   0       4.209   0.649   2.377  0.00  0.00    +0.324 C 
BRANCH  13  14
ATOM     14  O   UNK A   0       4.709   0.697   3.715  0.00  0.00    -0.482 OA
BRANCH  14  15
ATOM     15  C   UNK A   0       5.981   1.148   3.883  0.00  0.00    +0.135 A 
ATOM     16  C   UNK A   0       6.728   1.542   2.783  0.00  0.00    +0.048 A 
ATOM     17  C   UNK A   0       8.020   2.000   2.956  0.00  0.00    +0.019 A 
ATOM     18  C   UNK A   0       8.568   2.067   4.224  0.00  0.00    +0.019 A 
ATOM     19  C   UNK A   0       7.825   1.674   5.323  0.00  0.00    +0.034 A 
ATOM     20  C   UNK A   0       6.530   1.220   5.155  0.00  0.00    +0.061 A 
ATOM     21 BR   UNK A   0       5.511   0.691   6.658  0.00  0.00    -0.046 Br
ATOM     22 BR   UNK A   0      10.337   2.695   4.457  0.00  0.00    -0.050 Br
ENDBRANCH  14  15
ENDBRANCH  13  14
ENDBRANCH   2  13
TORSDOF 7
