REMARK  Name = ZINC54493193
REMARK  4 active torsions:
REMARK  status: ('A' for Active; 'I' for Inactive)
REMARK    1  A    between atoms: C_1  and  N_2
REMARK    2  A    between atoms: C_3  and  C_5
REMARK    3  A    between atoms: N_8  and  C_11
REMARK    4  A    between atoms: C_18  and  N_20
REMARK                            x       y       z     vdW  Elec       q    Type
REMARK                         _______ _______ _______ _____ _____    ______ ____
ROOT
ATOM      1  C   UNL     1      -1.135  -2.201   0.001  0.00  0.00    +0.077 C 
ATOM      2  C   UNL     1      -0.426  -2.696  -1.262  0.00  0.00    +0.028 C 
ATOM      3  C   UNL     1      -0.462  -4.225  -1.295  0.00  0.00    +0.085 C 
ATOM      4  N   UNL     1      -1.857  -4.684  -1.284  0.00  0.00    -0.296 NA
ATOM      5  C   UNL     1      -2.545  -4.260  -0.058  0.00  0.00    +0.085 C 
ATOM      6  C   UNL     1      -2.571  -2.732   0.012  0.00  0.00    +0.028 C 
ENDROOT
BRANCH   4   7
ATOM      7  C   UNL     1      -1.933  -6.141  -1.455  0.00  0.00    +0.096 C 
ATOM      8  C   UNL     1      -1.363  -6.816  -0.188  0.00  0.00    +0.186 C 
ATOM      9  S   UNL     1      -2.911  -7.226   0.731  0.00  0.00    -0.028 S 
ATOM     10  O   UNL     1      -2.735  -8.453   1.426  0.00  0.00    -0.174 OA
ATOM     11  O   UNL     1      -3.359  -6.075   1.434  0.00  0.00    -0.174 OA
ATOM     12  C   UNL     1      -3.991  -7.505  -0.740  0.00  0.00    +0.186 C 
ATOM     13  C   UNL     1      -3.376  -6.519  -1.753  0.00  0.00    +0.091 C 
BRANCH  13  14
ATOM     14  N   UNL     1      -3.434  -7.129  -3.089  0.00  0.00    -0.325 NA
ATOM     15  H   UNL     1      -4.378  -7.395  -3.324  0.00  0.00    +0.119 HD
ATOM     16  H   UNL     1      -3.048  -6.510  -3.786  0.00  0.00    +0.119 HD
ENDBRANCH  13  14
ENDBRANCH   4   7
BRANCH   1  19
ATOM     17  C   UNL     1      -0.018   1.461   0.010  0.00  0.00    +0.128 C 
ATOM     18  N   UNL     1       0.002  -0.004   0.002  0.00  0.00    -0.318 N 
ATOM     19  C   UNL     1      -1.156  -0.694   0.009  0.00  0.00    +0.216 C 
ATOM     20  O   UNL     1      -2.214  -0.102   0.023  0.00  0.00    -0.276 OA
ATOM     21  H   UNL     1       0.849  -0.478  -0.009  0.00  0.00    +0.148 HD
ENDBRANCH   1  19
TORSDOF 3
