REMARK  Name = ZINC38690295
REMARK  3 active torsions:
REMARK  status: ('A' for Active; 'I' for Inactive)
REMARK    1  A    between atoms: C_4  and  C_7
REMARK    2  A    between atoms: C_9  and  C_13
REMARK    3  A    between atoms: C_20  and  C_23
REMARK                            x       y       z     vdW  Elec       q    Type
REMARK                         _______ _______ _______ _____ _____    ______ ____
ROOT
ATOM      1  C   UNL     1       5.782  -3.012   1.181  0.00  0.00    +0.230 C 
ATOM      2  N   UNL     1       5.186  -4.362   1.199  0.00  0.00    -0.242 N 
ATOM      3  N   UNL     1       6.260  -5.266   1.166  0.00  0.00    -0.161 NA
ATOM      4  C   UNL     1       7.380  -4.657   1.133  0.00  0.00    +0.195 C 
ATOM      5  N   UNL     1       7.221  -3.257   1.143  0.00  0.00    -0.176 N 
ATOM      6  N   UNL     1       8.292  -2.370   1.120  0.00  0.00    -0.179 NA
ATOM      7  C   UNL     1       9.475  -2.666   0.695  0.00  0.00    +0.077 C 
ATOM      8  C   UNL     1       9.862  -4.004   0.114  0.00  0.00    +0.134 C 
ATOM      9  S   UNL     1       9.027  -5.320   1.081  0.00  0.00    -0.081 S 
ATOM     10  H   UNL     1       4.242  -4.582   1.228  0.00  0.00    +0.170 HD
ENDROOT
BRANCH   7  11
ATOM     11  C   UNL     1      10.517  -1.627   0.783  0.00  0.00    -0.001 A 
ATOM     12  C   UNL     1      11.812  -1.893   0.332  0.00  0.00    +0.011 A 
ATOM     13  C   UNL     1      12.783  -0.917   0.417  0.00  0.00    +0.016 A 
ATOM     14  C   UNL     1      12.475   0.325   0.948  0.00  0.00    +0.018 A 
ATOM     15  C   UNL     1      11.194   0.595   1.397  0.00  0.00    +0.016 A 
ATOM     16  C   UNL     1      10.212  -0.371   1.312  0.00  0.00    +0.011 A 
ATOM     17 BR   UNL     1      13.812   1.657   1.061  0.00  0.00    -0.050 Br
ENDBRANCH   7  11
BRANCH   1  20
ATOM     18  C   UNL     1       3.699  -0.689  -0.037  0.00  0.00    +0.091 C 
ATOM     19  C   UNL     1       3.832  -2.029  -0.051  0.00  0.00    +0.035 C 
ATOM     20  C   UNL     1       5.335  -2.245  -0.065  0.00  0.00    +0.194 C 
ATOM     21  N   UNL     1       5.871  -0.874  -0.056  0.00  0.00    -0.176 NA
ATOM     22  N   UNL     1       4.919  -0.090  -0.047  0.00  0.00    -0.154 NA
BRANCH  18  26
ATOM     23  C   UNL     1      -0.017   1.379   0.010  0.00  0.00    +0.000 A 
ATOM     24  C   UNL     1       1.169   2.092   0.002  0.00  0.00    +0.001 A 
ATOM     25  C   UNL     1       2.377   1.426  -0.013  0.00  0.00    +0.010 A 
ATOM     26  C   UNL     1       2.402   0.033  -0.021  0.00  0.00    +0.002 A 
ATOM     27  C   UNL     1       1.205  -0.680  -0.013  0.00  0.00    +0.010 A 
ATOM     28  C   UNL     1       0.002  -0.004   0.002  0.00  0.00    +0.001 A 
ENDBRANCH  18  26
ENDBRANCH   1  20
TORSDOF 3
