REMARK  Name = ZINC02568459
REMARK  7 active torsions:
REMARK  status: ('A' for Active; 'I' for Inactive)
REMARK    1  A    between atoms: C_1  and  C_2
REMARK    2  A    between atoms: C_5  and  C_8
REMARK    3  A    between atoms: N_12  and  C_16
REMARK    4  A    between atoms: C_16  and  C_18
REMARK    5  A    between atoms: C_16  and  C_22
REMARK    6  A    between atoms: C_18  and  C_19
REMARK    7  A    between atoms: C_19  and  C_20
REMARK                            x       y       z     vdW  Elec       q    Type
REMARK                         _______ _______ _______ _____ _____    ______ ____
ROOT
ATOM      1  C   UNL     1       1.255  -2.153  -0.021  0.00  0.00    +0.028 C 
ATOM      2  C   UNL     1       2.437  -2.807  -0.138  0.00  0.00    +0.077 C 
ATOM      3  C   UNL     1       3.813  -2.268  -0.176  0.00  0.00    +0.259 C 
ATOM      4  O   UNL     1       4.034  -1.073  -0.099  0.00  0.00    -0.269 OA
ATOM      5  N   UNL     1       4.791  -3.150  -0.295  0.00  0.00    -0.241 N 
ATOM      6  C   UNL     1       4.541  -4.471  -0.388  0.00  0.00    +0.121 C 
ATOM      7  S   UNL     1       5.660  -5.756  -0.552  0.00  0.00    -0.027 S 
ATOM      8  S   UNL     1       2.760  -4.558  -0.296  0.00  0.00    -0.061 S 
ENDROOT
BRANCH   1  13
ATOM      9  C   UNL     1       1.187   3.482   1.107  0.00  0.00    +0.044 C 
ATOM     10  C   UNL     1       1.205   2.005   0.811  0.00  0.00    -0.050 A 
ATOM     11  C   UNL     1       0.293   1.471  -0.083  0.00  0.00    +0.004 A 
ATOM     12  C   UNL     1       0.303   0.120  -0.359  0.00  0.00    +0.008 A 
ATOM     13  C   UNL     1       1.238  -0.712   0.267  0.00  0.00    -0.024 A 
ATOM     14  C   UNL     1       2.156  -0.164   1.170  0.00  0.00    +0.008 A 
ATOM     15  C   UNL     1       2.133   1.189   1.435  0.00  0.00    +0.004 A 
ENDBRANCH   1  13
BRANCH   5  16
ATOM     16  C   UNL     1       6.178  -2.679  -0.334  0.00  0.00    +0.196 C 
BRANCH  16  17
ATOM     17  C   UNL     1       6.812  -3.091  -1.637  0.00  0.00    +0.376 C 
ATOM     18  O   UNL     1       6.171  -3.713  -2.451  0.00  0.00    -0.244 OA
ATOM     19  O   UNL     1       8.088  -2.766  -1.895  0.00  0.00    -0.244 OA
ENDBRANCH  16  17
BRANCH  16  20
ATOM     20  C   UNL     1       6.958  -3.296   0.829  0.00  0.00    +0.046 C 
BRANCH  20  21
ATOM     21  C   UNL     1       6.392  -2.779   2.154  0.00  0.00    +0.127 C 
BRANCH  21  22
ATOM     22  C   UNL     1       7.160  -3.386   3.299  0.00  0.00    +0.356 C 
ATOM     23  O   UNL     1       8.067  -4.153   3.079  0.00  0.00    -0.246 OA
ATOM     24  O   UNL     1       6.837  -3.074   4.564  0.00  0.00    -0.246 OA
ENDBRANCH  21  22
ENDBRANCH  20  21
ENDBRANCH  16  20
ENDBRANCH   5  16
TORSDOF 6
