REMARK  Name = ZINC19720215
REMARK  6 active torsions:
REMARK  status: ('A' for Active; 'I' for Inactive)
REMARK    1  A    between atoms: C_10  and  N_11
REMARK    2  A    between atoms: C_15  and  S_19
REMARK    3  A    between atoms: S_19  and  C_20
REMARK    4  A    between atoms: C_20  and  C_21
REMARK    5  A    between atoms: C_21  and  C_23
REMARK    6  A    between atoms: C_21  and  N_26
REMARK                            x       y       z     vdW  Elec       q    Type
REMARK                         _______ _______ _______ _____ _____    ______ ____
ROOT
ATOM      1  N   UNK     1      -6.551   2.251  -0.212  0.00  0.00    -0.209 N 
ATOM      2  C   UNK     1      -6.644   2.228   1.123  0.00  0.00    +0.228 C 
ATOM      3  O   UNK     1      -7.519   2.755   1.775  0.00  0.00    -0.275 OA
ATOM      4  C   UNK     1      -5.482   1.442   1.690  0.00  0.00    +0.120 C 
ATOM      5  C   UNK     1      -4.694   1.008   0.437  0.00  0.00    +0.142 C 
ATOM      6  C   UNK     1      -5.492   1.592  -0.708  0.00  0.00    +0.240 C 
ATOM      7  O   UNK     1      -5.216   1.484  -1.884  0.00  0.00    -0.274 OA
ENDROOT
BRANCH   1  17
ATOM      8  C   UNK     1     -10.866   0.905  -2.463  0.00  0.00    +0.001 A 
ATOM      9  C   UNK     1      -9.949   0.235  -1.654  0.00  0.00    +0.001 A 
ATOM     10  C   UNK     1      -8.842   0.868  -1.177  0.00  0.00    +0.010 A 
ATOM     11  C   UNK     1      -8.619   2.216  -1.502  0.00  0.00    +0.004 A 
ATOM     12  C   UNK     1      -9.550   2.897  -2.323  0.00  0.00    -0.016 A 
ATOM     13  C   UNK     1     -10.681   2.211  -2.798  0.00  0.00    +0.008 A 
ATOM     14  C   UNK     1      -9.326   4.246  -2.650  0.00  0.00    +0.008 A 
ATOM     15  C   UNK     1      -8.222   4.886  -2.176  0.00  0.00    +0.002 A 
ATOM     16  C   UNK     1      -7.304   4.228  -1.363  0.00  0.00    +0.024 A 
ATOM     17  C   UNK     1      -7.484   2.904  -1.025  0.00  0.00    +0.052 A 
ENDBRANCH   1  17
BRANCH   5  18
ATOM     18  S   UNK     1      -3.017   1.700   0.466  0.00  0.00    -0.149 S 
BRANCH  18  19
ATOM     19  C   UNK     1      -2.234   1.016  -1.020  0.00  0.00    +0.065 C 
BRANCH  19  20
ATOM     20  C   UNK     1      -0.795   1.527  -1.120  0.00  0.00    +0.050 C 
BRANCH  20  21
ATOM     21  N   UNK     1      -0.012   1.005   0.008  0.00  0.00    +0.388 N 
ATOM     22  H   UNK     1       1.023   1.372  -0.064  0.00  0.00    -0.089 HD
ATOM     23  H   UNK     1      -0.013  -0.095  -0.023  0.00  0.00    -0.089 HD
ATOM     24  H   UNK     1      -0.457   1.346   0.954  0.00  0.00    -0.089 HD
ENDBRANCH  20  21
BRANCH  20  25
ATOM     25  C   UNK     1      -0.185   1.059  -2.416  0.00  0.00    +0.343 C 
ATOM     26  O   UNK     1       0.551   0.101  -2.425  0.00  0.00    -0.248 OA
ATOM     27  O   UNK     1      -0.458   1.707  -3.559  0.00  0.00    -0.248 OA
ENDBRANCH  20  25
ENDBRANCH  19  20
ENDBRANCH  18  19
ENDBRANCH   5  18
TORSDOF 6
