REMARK  Name = ZINC35918700
REMARK  8 active torsions:
REMARK  status: ('A' for Active; 'I' for Inactive)
REMARK    1  A    between atoms: C_1  and  O_2
REMARK    2  A    between atoms: O_2  and  C_3
REMARK    3  A    between atoms: C_7  and  C_11
REMARK    4  A    between atoms: C_8  and  O_9
REMARK    5  A    between atoms: O_9  and  C_10
REMARK    6  A    between atoms: C_20  and  C_23
REMARK    7  A    between atoms: N_25  and  C_26
REMARK    8  A    between atoms: C_26  and  C_27
REMARK                            x       y       z     vdW  Elec       q    Type
REMARK                         _______ _______ _______ _____ _____    ______ ____
ROOT
ATOM      1  C   UNL     1      -2.549  -4.175   0.017  0.00  0.00    +0.137 C 
ATOM      2  C   UNL     1      -2.349  -4.691  -1.384  0.00  0.00    +0.060 A 
ATOM      3  C   UNL     1      -3.096  -5.675  -1.937  0.00  0.00    +0.066 A 
ATOM      4  N   UNL     1      -2.655  -5.880  -3.178  0.00  0.00    -0.240 NA
ATOM      5  C   UNL     1      -1.662  -5.064  -3.420  0.00  0.00    +0.197 A 
ATOM      6  N   UNL     1      -1.442  -4.306  -2.320  0.00  0.00    -0.346 N 
ATOM      7  H   UNL     1      -0.765  -3.618  -2.219  0.00  0.00    +0.167 HD
ATOM      8  C   UNL     1      -4.215  -6.370  -1.200  0.00  0.00    +0.085 C 
ATOM      9  C   UNL     1      -4.057  -6.062   0.295  0.00  0.00    +0.147 C 
ATOM     10  N   UNL     1      -3.874  -4.616   0.487  0.00  0.00    -0.293 NA
ATOM     11  H   UNL     1      -4.020  -4.357   1.451  0.00  0.00    +0.124 HD
ENDROOT
BRANCH   1  16
ATOM     12  C   UNL     1      -1.201  -0.638   0.010  0.00  0.00    +0.162 A 
ATOM     13  C   UNL     1      -2.374   0.099   0.019  0.00  0.00    +0.049 A 
ATOM     14  C   UNL     1      -3.596  -0.546   0.027  0.00  0.00    +0.004 A 
ATOM     15  C   UNL     1      -3.652  -1.928   0.026  0.00  0.00    +0.009 A 
ATOM     16  C   UNL     1      -2.485  -2.669   0.017  0.00  0.00    +0.021 A 
ATOM     17  C   UNL     1      -1.257  -2.028   0.003  0.00  0.00    +0.166 A 
BRANCH  12  19
ATOM     18  C   UNL     1      -0.017   1.425   0.010  0.00  0.00    +0.277 C 
ATOM     19  O   UNL     1       0.002  -0.004   0.002  0.00  0.00    -0.491 OA
ENDBRANCH  12  19
BRANCH  17  20
ATOM     20  O   UNL     1      -0.108  -2.756  -0.012  0.00  0.00    -0.491 OA
ATOM     21  C   UNL     1       0.452  -3.110   1.254  0.00  0.00    +0.277 C 
ENDBRANCH  17  20
ENDBRANCH   1  16
BRANCH   9  22
ATOM     22  C   UNL     1      -5.292  -6.512   1.033  0.00  0.00    +0.231 C 
ATOM     23  O   UNL     1      -6.143  -5.704   1.340  0.00  0.00    -0.274 OA
ATOM     24  N   UNL     1      -5.451  -7.812   1.351  0.00  0.00    -0.312 N 
ATOM     25  H   UNL     1      -4.770  -8.458   1.105  0.00  0.00    +0.149 HD
BRANCH  24  26
ATOM     26  C   UNL     1      -6.651  -8.249   2.068  0.00  0.00    +0.135 C 
BRANCH  26  27
ATOM     27  C   UNL     1      -6.583  -9.759   2.303  0.00  0.00    +0.135 C 
ATOM     28  C   UNL     1      -7.896 -10.249   2.950  0.00  0.00    +0.035 C 
ATOM     29  C   UNL     1      -7.388 -11.301   3.972  0.00  0.00    +0.031 C 
ATOM     30  C   UNL     1      -6.040 -10.669   4.401  0.00  0.00    +0.160 C 
ATOM     31  O   UNL     1      -5.514 -10.062   3.208  0.00  0.00    -0.375 OA
ENDBRANCH  26  27
ENDBRANCH  24  26
ENDBRANCH   9  22
TORSDOF 6
