REMARK  Name = ZINC67201992
REMARK  3 active torsions:
REMARK  status: ('A' for Active; 'I' for Inactive)
REMARK    1  A    between atoms: C_3  and  C_11
REMARK    2  A    between atoms: C_16  and  C_19
REMARK    3  A    between atoms: C_19  and  C_20
REMARK                            x       y       z     vdW  Elec       q    Type
REMARK                         _______ _______ _______ _____ _____    ______ ____
ROOT
ATOM      1  C   UNL     1       3.651   2.174  -0.024  0.00  0.00    +0.250 C 
ATOM      2  O   UNL     1       4.712   1.587   0.069  0.00  0.00    -0.270 OA
ATOM      3  N   UNL     1       3.631   3.518  -0.118  0.00  0.00    -0.297 N 
ATOM      4  C   UNL     1       2.358   4.251  -0.096  0.00  0.00    +0.108 C 
ATOM      5  C   UNL     1       2.425   5.323   0.996  0.00  0.00    +0.023 C 
ATOM      6  C   UNL     1       3.654   6.205   0.765  0.00  0.00    +0.001 C 
ATOM      7  C   UNL     1       4.920   5.351   0.850  0.00  0.00    +0.023 C 
ATOM      8  C   UNL     1       4.882   4.279  -0.238  0.00  0.00    +0.108 C 
ENDROOT
BRANCH   1  11
ATOM      9  C   UNL     1       0.287   0.884  -1.073  0.00  0.00    +0.005 A 
ATOM     10  C   UNL     1       1.466   1.596  -1.068  0.00  0.00    +0.017 A 
ATOM     11  C   UNL     1       2.386   1.415  -0.032  0.00  0.00    +0.082 A 
ATOM     12  C   UNL     1       2.103   0.509   0.998  0.00  0.00    +0.174 A 
ATOM     13  C   UNL     1       0.908  -0.201   0.981  0.00  0.00    +0.163 A 
ATOM     14  C   UNL     1       0.006  -0.011  -0.055  0.00  0.00    +0.049 A 
ATOM     15  O   UNL     1       0.608  -1.081   1.975  0.00  0.00    -0.485 OA
ATOM     16  C   UNL     1       1.695  -1.520   2.797  0.00  0.00    +0.270 C 
ATOM     17  C   UNL     1       2.522  -0.290   3.196  0.00  0.00    +0.270 C 
ATOM     18  O   UNL     1       3.003   0.334   2.000  0.00  0.00    -0.484 OA
ENDBRANCH   1  11
BRANCH   6  19
ATOM     19  C   UNL     1       3.704   7.298   1.835  0.00  0.00    +0.099 C 
BRANCH  19  20
ATOM     20  C   UNL     1       4.843   8.240   1.537  0.00  0.00    +0.211 C 
ATOM     21  O   UNL     1       5.545   8.055   0.565  0.00  0.00    -0.276 OA
ATOM     22  N   UNL     1       5.082   9.287   2.350  0.00  0.00    -0.329 N 
ATOM     23  H   UNL     1       4.520   9.436   3.128  0.00  0.00    +0.145 HD
ATOM     24  H   UNL     1       5.814   9.893   2.159  0.00  0.00    +0.145 HD
ENDBRANCH  19  20
ENDBRANCH   6  19
TORSDOF 3
