REMARK  Name = ZINC19956462
REMARK  4 active torsions:
REMARK  status: ('A' for Active; 'I' for Inactive)
REMARK    1  A    between atoms: C_1  and  C_2
REMARK    2  A    between atoms: C_2  and  C_3
REMARK    3  A    between atoms: C_8  and  N_9
REMARK    4  A    between atoms: N_9  and  C_10
REMARK                            x       y       z     vdW  Elec       q    Type
REMARK                         _______ _______ _______ _____ _____    ______ ____
ROOT
ATOM      1  C   UNL     1      -2.021  -0.497   3.775  0.00  0.00    +0.190 C 
ATOM      2  C   UNL     1      -3.247   0.386   3.805  0.00  0.00    +0.004 A 
ATOM      3  C   UNL     1      -3.421   1.750   3.733  0.00  0.00    +0.023 A 
ATOM      4  C   UNL     1      -4.695   2.288   3.789  0.00  0.00    +0.018 A 
ATOM      5  C   UNL     1      -5.790   1.451   3.918  0.00  0.00    +0.017 A 
ATOM      6  C   UNL     1      -5.618   0.085   3.991  0.00  0.00    +0.025 A 
ATOM      7  C   UNL     1      -4.338  -0.464   3.935  0.00  0.00    +0.039 A 
ATOM      8  N   UNL     1      -3.912  -1.792   3.988  0.00  0.00    -0.283 N 
ATOM      9  C   UNL     1      -2.572  -1.901   3.903  0.00  0.00    +0.242 C 
ATOM     10  O   UNL     1      -1.928  -2.929   3.923  0.00  0.00    -0.273 OA
ATOM     11 BR   UNL     1      -4.940   4.160   3.691  0.00  0.00    -0.050 Br
ATOM     12  H   UNL     1      -4.511  -2.549   4.077  0.00  0.00    +0.155 HD
ENDROOT
BRANCH   1  13
ATOM     13  N   UNL     1      -1.307  -0.339   2.506  0.00  0.00    -0.329 N 
ATOM     14  H   UNL     1      -1.778  -0.018   1.721  0.00  0.00    +0.147 HD
BRANCH  13  20
ATOM     15  C   UNL     1       0.731  -0.503   1.223  0.00  0.00    -0.027 A 
ATOM     16  C   UNL     1       2.076  -0.808   1.149  0.00  0.00    +0.005 A 
ATOM     17  C   UNL     1       2.745  -1.267   2.268  0.00  0.00    +0.000 A 
ATOM     18  C   UNL     1       2.071  -1.421   3.466  0.00  0.00    +0.002 A 
ATOM     19  C   UNL     1       0.727  -1.118   3.547  0.00  0.00    +0.023 A 
ATOM     20  C   UNL     1       0.052  -0.652   2.425  0.00  0.00    +0.031 A 
BRANCH  15  22
ATOM     21  C   UNL     1      -0.019   1.526   0.010  0.00  0.00    +0.009 C 
ATOM     22  C   UNL     1       0.002  -0.004   0.002  0.00  0.00    +0.033 C 
ENDBRANCH  15  22
ENDBRANCH  13  20
ENDBRANCH   1  13
TORSDOF 3
