REMARK  Name = ZINC19750968
REMARK  9 active torsions:
REMARK  status: ('A' for Active; 'I' for Inactive)
REMARK    1  A    between atoms: C_1  and  C_2
REMARK    2  A    between atoms: C_7  and  C_8
REMARK    3  A    between atoms: N_9  and  C_14
REMARK    4  A    between atoms: C_10  and  C_12
REMARK    5  A    between atoms: C_12  and  N_13
REMARK    6  A    between atoms: C_14  and  C_15
REMARK    7  A    between atoms: C_15  and  C_17
REMARK    8  A    between atoms: C_15  and  O_19
REMARK    9  A    between atoms: C_17  and  O_18
REMARK                            x       y       z     vdW  Elec       q    Type
REMARK                         _______ _______ _______ _____ _____    ______ ____
ROOT
ATOM      1  C   UNL     1      -2.563   3.861   0.047  0.00  0.00    +0.044 C 
ATOM      2  C   UNL     1      -1.240   3.139   0.031  0.00  0.00    -0.045 A 
ATOM      3  C   UNL     1      -0.078   3.858   0.024  0.00  0.00    +0.033 A 
ATOM      4  C   UNL     1       1.151   3.194   0.008  0.00  0.00    +0.089 A 
ATOM      5  C   UNL     1       1.178   1.789   0.000  0.00  0.00    +0.069 A 
ATOM      6  C   UNL     1      -0.013   1.076   0.008  0.00  0.00    +0.031 A 
ATOM      7  C   UNL     1      -1.214   1.752   0.017  0.00  0.00    -0.045 A 
ATOM      8  C   UNL     1      -2.508   0.980   0.019  0.00  0.00    +0.044 C 
ATOM      9  N   UNL     1       2.512   1.434  -0.014  0.00  0.00    -0.326 N 
ATOM     10  C   UNL     1       3.237   2.585  -0.015  0.00  0.00    +0.093 A 
ATOM     11  N   UNL     1       2.442   3.615  -0.002  0.00  0.00    -0.234 NA
ENDROOT
BRANCH  10  12
ATOM     12  C   UNL     1       4.742   2.656  -0.029  0.00  0.00    -0.011 C 
BRANCH  12  13
ATOM     13  N   UNL     1       5.245   2.672   1.351  0.00  0.00    +0.383 N 
ATOM     14  H   UNL     1       6.344   2.724   1.340  0.00  0.00    -0.089 HD
ATOM     15  H   UNL     1       4.927   1.754   1.867  0.00  0.00    -0.089 HD
ATOM     16  H   UNL     1       4.842   3.549   1.878  0.00  0.00    -0.089 HD
ENDBRANCH  12  13
ENDBRANCH  10  12
BRANCH   9  17
ATOM     17  C   UNL     1       3.047   0.070  -0.027  0.00  0.00    +0.157 C 
BRANCH  17  18
ATOM     18  C   UNL     1       3.220  -0.397  -1.474  0.00  0.00    +0.159 C 
BRANCH  18  19
ATOM     19  O   UNL     1       1.939  -0.488  -2.101  0.00  0.00    -0.388 OA
ATOM     20  H   UNL     1       1.861  -0.809  -3.150  0.00  0.00    +0.210 HD
ENDBRANCH  18  19
BRANCH  18  21
ATOM     21  C   UNL     1       3.893  -1.770  -1.489  0.00  0.00    +0.188 C 
BRANCH  21  22
ATOM     22  O   UNL     1       4.160  -2.155  -2.840  0.00  0.00    -0.392 OA
ATOM     23  H   UNL     1       4.645  -3.119  -3.051  0.00  0.00    +0.210 HD
ENDBRANCH  21  22
ENDBRANCH  18  21
ENDBRANCH  17  18
ENDBRANCH   9  17
TORSDOF 7
