REMARK  Name = ZINC36378676
REMARK  9 active torsions:
REMARK  status: ('A' for Active; 'I' for Inactive)
REMARK    1  A    between atoms: C_1  and  C_2
REMARK    2  A    between atoms: C_2  and  C_24
REMARK    3  A    between atoms: C_7  and  C_22
REMARK    4  A    between atoms: C_12  and  C_21
REMARK    5  A    between atoms: C_15  and  O_20
REMARK    6  A    between atoms: C_17  and  C_18
REMARK    7  A    between atoms: C_17  and  C_19
REMARK    8  A    between atoms: C_22  and  O_23
REMARK    9  A    between atoms: C_24  and  C_25
REMARK                            x       y       z     vdW  Elec       q    Type
REMARK                         _______ _______ _______ _____ _____    ______ ____
ROOT
ATOM      1  C   UNL     1      -0.490   1.720  -0.606  0.00  0.00    +0.042 C 
ATOM      2  C   UNL     1      -0.151   0.278  -0.214  0.00  0.00    +0.078 C 
ATOM      3  C   UNL     1       0.608  -0.434  -1.359  0.00  0.00    +0.038 C 
ATOM      4  C   UNL     1       2.090  -0.102  -1.037  0.00  0.00    +0.043 C 
ATOM      5  C   UNL     1       2.100   0.133   0.472  0.00  0.00    +0.099 C 
ATOM      6  O   UNL     1       0.737   0.241   0.913  0.00  0.00    -0.362 OA
ATOM      7  C   UNL     1       2.843   1.368   0.876  0.00  0.00    -0.016 C 
ATOM      8  C   UNL     1       3.507   1.467   1.990  0.00  0.00    -0.022 C 
ATOM      9  C   UNL     1       3.630   0.366   3.003  0.00  0.00    +0.032 C 
ATOM     10  C   UNL     1       2.662  -0.773   2.684  0.00  0.00    +0.010 C 
ATOM     11  C   UNL     1       2.728  -1.088   1.192  0.00  0.00    +0.005 C 
ATOM     12  C   UNL     1       1.872  -2.306   0.848  0.00  0.00    +0.012 C 
ATOM     13  C   UNL     1       2.276  -3.500   1.712  0.00  0.00    +0.032 C 
ATOM     14  C   UNL     1       2.016  -3.159   3.177  0.00  0.00    +0.121 C 
ATOM     15  C   UNL     1       2.864  -1.960   3.605  0.00  0.00    -0.005 C 
ATOM     16  C   UNL     1       4.325  -2.389   3.716  0.00  0.00    +0.014 C 
ATOM     17  C   UNL     1       2.392  -1.560   5.021  0.00  0.00    +0.014 C 
ATOM     18  C   UNL     1       4.162  -1.278   0.706  0.00  0.00    +0.015 C 
ENDROOT
BRANCH  14  19
ATOM     19  O   UNL     1       2.344  -4.284   3.997  0.00  0.00    -0.391 OA
ATOM     20  H   UNL     1       1.833  -5.080   3.796  0.00  0.00    +0.210 HD
ENDBRANCH  14  19
BRANCH   7  21
ATOM     21  C   UNL     1       2.834   2.586  -0.008  0.00  0.00    +0.189 C 
BRANCH  21  22
ATOM     22  O   UNL     1       3.611   3.620   0.599  0.00  0.00    -0.391 OA
ATOM     23  H   UNL     1       3.650   4.438   0.084  0.00  0.00    +0.210 HD
ENDBRANCH  21  22
ENDBRANCH   7  21
BRANCH   2  24
ATOM     24  C   UNL     1      -1.448  -0.480   0.106  0.00  0.00    +0.159 C 
BRANCH  24  25
ATOM     25  C   UNL     1      -2.142   0.180   1.270  0.00  0.00    +0.359 C 
ATOM     26  O   UNL     1      -1.590   1.081   1.877  0.00  0.00    -0.246 OA
ATOM     27  O   UNL     1      -3.256  -0.188   1.604  0.00  0.00    -0.246 OA
ENDBRANCH  24  25
ENDBRANCH   2  24
TORSDOF 5
