REMARK  Name = ZINC09891398
REMARK  7 active torsions:
REMARK  status: ('A' for Active; 'I' for Inactive)
REMARK    1  A    between atoms: C_3  and  N_14
REMARK    2  A    between atoms: C_4  and  N_11
REMARK    3  A    between atoms: C_6  and  C_7
REMARK    4  A    between atoms: N_14  and  C_15
REMARK    5  A    between atoms: C_15  and  C_16
REMARK    6  A    between atoms: C_16  and  N_17
REMARK    7  A    between atoms: C_18  and  C_20
REMARK                            x       y       z     vdW  Elec       q    Type
REMARK                         _______ _______ _______ _____ _____    ______ ____
ROOT
ATOM      1  N   UNL     1      -2.406   3.168   4.827  0.00  0.00    -0.341 N 
ATOM      2  H   UNL     1      -1.729   3.390   5.665  0.00  0.00    +0.146 HD
ENDROOT
BRANCH   1   5
ATOM      3  C   UNL     1      -2.206   2.167   1.296  0.00  0.00    +0.014 A 
ATOM      4  C   UNL     1      -2.725   2.580   2.508  0.00  0.00    +0.026 A 
ATOM      5  C   UNL     1      -1.885   2.746   3.602  0.00  0.00    +0.058 A 
ATOM      6  C   UNL     1      -0.526   2.490   3.474  0.00  0.00    +0.147 A 
ATOM      7  C   UNL     1      -0.014   2.072   2.261  0.00  0.00    +0.047 A 
ATOM      8  C   UNL     1      -0.854   1.908   1.175  0.00  0.00    +0.057 A 
BRANCH   8   9
ATOM      9  C   UNL     1      -0.292   1.452  -0.147  0.00  0.00    +0.417 C 
ATOM     10  F   UNL     1      -0.321   0.054  -0.209  0.00  0.00    -0.166 F 
ATOM     11  F   UNL     1       1.029   1.896  -0.271  0.00  0.00    -0.166 F 
ATOM     12  F   UNL     1      -1.061   1.981  -1.189  0.00  0.00    -0.166 F 
ENDBRANCH   8   9
BRANCH   6  13
ATOM     13  N   UNL     1       0.373   2.665   4.637  0.00  0.00    +0.058 N 
ATOM     14  O   UNL     1       1.543   2.335   4.557  0.00  0.00    -0.126 OA
ATOM     15  O   UNL     1      -0.057   3.139   5.673  0.00  0.00    -0.126 OA
ENDBRANCH   6  13
ENDBRANCH   1   5
BRANCH   1  16
ATOM     16  C   UNL     1      -3.854   3.315   4.995  0.00  0.00    +0.120 C 
BRANCH  16  17
ATOM     17  C   UNL     1      -4.156   3.787   6.419  0.00  0.00    +0.123 C 
BRANCH  17  18
ATOM     18  N   UNL     1      -5.604   3.934   6.588  0.00  0.00    -0.310 N 
ATOM     19  C   UNL     1      -6.107   4.341   7.770  0.00  0.00    +0.246 C 
ATOM     20  O   UNL     1      -5.359   4.587   8.697  0.00  0.00    -0.270 OA
ATOM     21  H   UNL     1      -6.281   3.712   5.750  0.00  0.00    +0.149 HD
BRANCH  19  22
ATOM     22  C   UNL     1      -7.566   4.490   7.940  0.00  0.00    +0.053 A 
ATOM     23  C   UNL     1      -8.100   4.908   9.168  0.00  0.00    +0.020 A 
ATOM     24  C   UNL     1      -9.470   5.026   9.280  0.00  0.00    +0.071 A 
ATOM     25  C   UNL     1     -10.271   4.729   8.181  0.00  0.00    +0.249 A 
ATOM     26  N   UNL     1      -9.735   4.342   7.033  0.00  0.00    -0.328 N 
ATOM     27  C   UNL     1      -8.433   4.216   6.883  0.00  0.00    +0.099 A 
ATOM     28  O   UNL     1     -11.617   4.843   8.284  0.00  0.00    -0.268 OA
ATOM     29  H   UNL     1     -10.382   4.115   6.173  0.00  0.00    +0.168 HD
ENDBRANCH  19  22
ENDBRANCH  17  18
ENDBRANCH  16  17
ENDBRANCH   1  16
TORSDOF 7
