REMARK  Name = ZINC46579803
REMARK  7 active torsions:
REMARK  status: ('A' for Active; 'I' for Inactive)
REMARK    1  A    between atoms: C_1  and  C_2
REMARK    2  A    between atoms: C_2  and  C_3
REMARK    3  A    between atoms: C_2  and  C_4
REMARK    4  A    between atoms: C_4  and  C_6
REMARK    5  A    between atoms: C_4  and  N_18
REMARK    6  A    between atoms: N_8  and  C_9
REMARK    7  A    between atoms: C_9  and  C_10
REMARK                            x       y       z     vdW  Elec       q    Type
REMARK                         _______ _______ _______ _____ _____    ______ ____
ROOT
ATOM      1  C   UNL     1      -2.374  -0.017   0.801  0.00  0.00    +0.234 C 
ATOM      2  O   UNL     1      -3.390   0.526   0.422  0.00  0.00    -0.274 OA
ATOM      3  N   UNL     1      -2.098  -0.086   2.119  0.00  0.00    -0.310 N 
ATOM      4  H   UNL     1      -1.321  -0.577   2.427  0.00  0.00    +0.149 HD
ENDROOT
BRANCH   1   5
ATOM      5  C   UNL     1      -1.420  -0.615  -0.200  0.00  0.00    +0.163 C 
BRANCH   5   6
ATOM      6  N   UNL     1      -2.144  -0.940  -1.431  0.00  0.00    -0.288 N 
ATOM      7  C   UNL     1      -1.679  -1.902  -2.252  0.00  0.00    +0.298 C 
ATOM      8  O   UNL     1      -0.658  -2.500  -1.972  0.00  0.00    -0.253 OA
ATOM      9  N   UNL     1      -2.346  -2.201  -3.385  0.00  0.00    -0.313 N 
ATOM     10  H   UNL     1      -2.959  -0.463  -1.655  0.00  0.00    +0.151 HD
ATOM     11  H   UNL     1      -3.161  -1.725  -3.609  0.00  0.00    +0.146 HD
ATOM     12  H   UNL     1      -2.011  -2.894  -3.976  0.00  0.00    +0.146 HD
ENDBRANCH   5   6
BRANCH   5  14
ATOM     13  C   UNL     1       0.734  -0.263  -1.417  0.00  0.00    +0.009 C 
ATOM     14  C   UNL     1      -0.311   0.393  -0.512  0.00  0.00    +0.012 C 
ATOM     15  C   UNL     1      -0.911   1.607  -1.223  0.00  0.00    +0.009 C 
ENDBRANCH   5  14
ENDBRANCH   1   5
BRANCH   3  16
ATOM     16  C   UNL     1      -2.973   0.583   3.086  0.00  0.00    +0.142 C 
BRANCH  16  17
ATOM     17  C   UNL     1      -2.447   0.354   4.480  0.00  0.00    +0.006 A 
ATOM     18  C   UNL     1      -3.013  -0.621   5.280  0.00  0.00    +0.023 A 
ATOM     19  C   UNL     1      -2.531  -0.831   6.559  0.00  0.00    +0.018 A 
ATOM     20  C   UNL     1      -1.483  -0.066   7.039  0.00  0.00    +0.018 A 
ATOM     21  C   UNL     1      -0.917   0.909   6.240  0.00  0.00    +0.040 A 
ATOM     22  C   UNL     1      -1.395   1.116   4.957  0.00  0.00    +0.128 A 
ATOM     23  F   UNL     1      -0.838   2.066   4.173  0.00  0.00    -0.205 F 
ATOM     24 BR   UNL     1      -3.305  -2.164   7.654  0.00  0.00    -0.050 Br
ENDBRANCH  16  17
ENDBRANCH   3  16
TORSDOF 5
