REMARK  Name = ZINC08645303
REMARK  7 active torsions:
REMARK  status: ('A' for Active; 'I' for Inactive)
REMARK    1  A    between atoms: C_1  and  C_2
REMARK    2  A    between atoms: C_8  and  N_10
REMARK    3  A    between atoms: C_14  and  C_16
REMARK    4  A    between atoms: C_16  and  S_17
REMARK    5  A    between atoms: S_17  and  C_18
REMARK    6  A    between atoms: C_21  and  C_24
REMARK    7  A    between atoms: N_22  and  N_23
REMARK                            x       y       z     vdW  Elec       q    Type
REMARK                         _______ _______ _______ _____ _____    ______ ____
ROOT
ATOM      1  S   UNL     1       2.692   0.846   0.391  0.00  0.00    -0.075 S 
ENDROOT
BRANCH   1   2
ATOM      2  C   UNL     1       4.024   1.970   0.135  0.00  0.00    +0.209 A 
ATOM      3  N   UNL     1       3.947   3.282   0.124  0.00  0.00    -0.121 NA
ATOM      4  N   UNL     1       5.108   3.791  -0.088  0.00  0.00    -0.127 NA
ATOM      5  C   UNL     1       5.996   2.835  -0.234  0.00  0.00    +0.183 A 
ATOM      6  N   UNL     1       5.330   1.640  -0.096  0.00  0.00    -0.224 N 
BRANCH   5   7
ATOM      7  C   UNL     1       7.440   3.011  -0.498  0.00  0.00    +0.039 A 
ATOM      8  C   UNL     1       8.067   2.261  -1.494  0.00  0.00    +0.014 A 
ATOM      9  C   UNL     1       9.413   2.434  -1.740  0.00  0.00    +0.021 A 
ATOM     10  C   UNL     1      10.146   3.340  -0.992  0.00  0.00    +0.042 A 
ATOM     11  C   UNL     1       9.532   4.083   0.002  0.00  0.00    +0.040 A 
ATOM     12  C   UNL     1       8.184   3.924   0.253  0.00  0.00    +0.053 A 
ATOM     13 CL   UNL     1       7.415   4.856   1.500  0.00  0.00    -0.083 Cl
ATOM     14 CL   UNL     1      11.841   3.546  -1.302  0.00  0.00    -0.083 Cl
ENDBRANCH   5   7
BRANCH   6  15
ATOM     15  N   UNL     1       5.862   0.384  -0.174  0.00  0.00    -0.295 N 
ATOM     16  H   UNL     1       5.913   0.072  -1.132  0.00  0.00    +0.163 HD
ATOM     17  H   UNL     1       6.769   0.348   0.268  0.00  0.00    +0.163 HD
ENDBRANCH   6  15
ENDBRANCH   1   2
BRANCH   1  18
ATOM     18  C   UNL     1       1.332   2.019   0.620  0.00  0.00    +0.173 C 
BRANCH  18  23
ATOM     19  N   UNL     1      -3.401   1.926   1.459  0.00  0.00    -0.296 N 
ATOM     20  C   UNL     1      -2.248   1.255   1.266  0.00  0.00    +0.306 C 
ATOM     21  O   UNL     1      -2.242   0.040   1.282  0.00  0.00    -0.252 OA
ATOM     22  N   UNL     1      -1.102   1.932   1.055  0.00  0.00    -0.239 N 
ATOM     23  C   UNL     1       0.051   1.262   0.862  0.00  0.00    +0.231 C 
ATOM     24  O   UNL     1       0.058   0.050   0.878  0.00  0.00    -0.274 OA
ATOM     25  H   UNL     1      -3.406   2.896   1.446  0.00  0.00    +0.151 HD
ATOM     26  H   UNL     1      -1.107   2.902   1.042  0.00  0.00    +0.159 HD
BRANCH  19  33
ATOM     27  C   UNL     1      -5.713   2.401  -0.220  0.00  0.00    +0.009 C 
ATOM     28  C   UNL     1      -5.836   2.056   1.265  0.00  0.00    +0.006 C 
ATOM     29  C   UNL     1      -7.137   1.287   1.505  0.00  0.00    +0.005 C 
ATOM     30  C   UNL     1      -7.260   0.942   2.990  0.00  0.00    +0.000 C 
ATOM     31  C   UNL     1      -6.071   0.077   3.413  0.00  0.00    +0.002 C 
ATOM     32  C   UNL     1      -4.770   0.845   3.173  0.00  0.00    +0.022 C 
ATOM     33  C   UNL     1      -4.647   1.190   1.688  0.00  0.00    +0.077 C 
ENDBRANCH  19  33
ENDBRANCH  18  23
ENDBRANCH   1  18
TORSDOF 6
