REMARK  Name = ZINC11386825
REMARK  8 active torsions:
REMARK  status: ('A' for Active; 'I' for Inactive)
REMARK    1  A    between atoms: C_6  and  C_7
REMARK    2  A    between atoms: C_7  and  C_11
REMARK    3  A    between atoms: C_11  and  O_13
REMARK    4  A    between atoms: O_13  and  C_14
REMARK    5  A    between atoms: C_14  and  C_15
REMARK    6  A    between atoms: N_17  and  C_18
REMARK    7  A    between atoms: C_21  and  S_24
REMARK    8  A    between atoms: S_24  and  N_27
REMARK                            x       y       z     vdW  Elec       q    Type
REMARK                         _______ _______ _______ _____ _____    ______ ____
ROOT
ATOM      1  C   UNL     1      -5.064   0.886  -3.890  0.00  0.00    +0.255 C 
ATOM      2  O   UNL     1      -4.848   2.020  -4.262  0.00  0.00    -0.272 OA
ATOM      3  N   UNL     1      -6.117   0.204  -4.383  0.00  0.00    -0.283 N 
ATOM      4  H   UNL     1      -6.335  -0.672  -4.029  0.00  0.00    +0.155 HD
ENDROOT
BRANCH   3   5
ATOM      5  C   UNL     1      -6.895   0.760  -5.404  0.00  0.00    +0.034 A 
ATOM      6  C   UNL     1      -8.261   0.519  -5.448  0.00  0.00    +0.025 A 
ATOM      7  C   UNL     1      -9.027   1.075  -6.454  0.00  0.00    +0.030 A 
ATOM      8  C   UNL     1      -8.432   1.860  -7.425  0.00  0.00    +0.105 A 
ATOM      9  C   UNL     1      -7.070   2.097  -7.387  0.00  0.00    +0.030 A 
ATOM     10  C   UNL     1      -6.300   1.550  -6.380  0.00  0.00    +0.025 A 
BRANCH   8  11
ATOM     11  S   UNL     1      -9.412   2.561  -8.711  0.00  0.00    +0.056 S 
ATOM     12  O   UNL     1     -10.740   2.639  -8.213  0.00  0.00    -0.153 OA
ATOM     13  O   UNL     1      -8.707   3.701  -9.183  0.00  0.00    -0.153 OA
BRANCH  11  14
ATOM     14  N   UNL     1      -9.436   1.471  -9.957  0.00  0.00    -0.204 NA
ATOM     15  H   UNL     1      -8.958   0.630  -9.876  0.00  0.00    +0.144 HD
ATOM     16  H   UNL     1      -9.928   1.672 -10.768  0.00  0.00    +0.144 HD
ENDBRANCH  11  14
ENDBRANCH   8  11
ENDBRANCH   3   5
BRANCH   1  17
ATOM     17  C   UNL     1      -4.155   0.240  -2.876  0.00  0.00    +0.328 C 
BRANCH  17  18
ATOM     18  O   UNL     1      -3.106   1.172  -2.504  0.00  0.00    -0.455 OA
BRANCH  18  19
ATOM     19  C   UNL     1      -2.206   0.748  -1.603  0.00  0.00    +0.318 C 
ATOM     20  O   UNL     1      -2.292  -0.365  -1.140  0.00  0.00    -0.250 OA
BRANCH  19  21
ATOM     21  C   UNL     1      -1.087   1.659  -1.168  0.00  0.00    +0.093 C 
ATOM     22  C   UNL     1      -0.143   1.025  -0.133  0.00  0.00    +0.023 C 
ATOM     23  C   UNL     1      -1.083   1.578   0.951  0.00  0.00    +0.003 C 
ATOM     24  C   UNL     1      -1.496   2.655  -0.070  0.00  0.00    +0.023 C 
BRANCH  21  30
ATOM     25  C   UNL     1       0.536   1.563  -3.071  0.00  0.00    +0.006 A 
ATOM     26  C   UNL     1       1.190   2.147  -4.139  0.00  0.00    +0.020 A 
ATOM     27  C   UNL     1       0.949   3.471  -4.458  0.00  0.00    +0.041 A 
ATOM     28  C   UNL     1       0.048   4.209  -3.710  0.00  0.00    +0.020 A 
ATOM     29  C   UNL     1      -0.611   3.622  -2.646  0.00  0.00    +0.006 A 
ATOM     30  C   UNL     1      -0.369   2.298  -2.329  0.00  0.00    -0.031 A 
ATOM     31 CL   UNL     1       1.776   4.208  -5.795  0.00  0.00    -0.084 Cl
ENDBRANCH  21  30
ENDBRANCH  19  21
ENDBRANCH  18  19
ENDBRANCH  17  18
ENDBRANCH   1  17
TORSDOF 8
