REMARK  Name = ZINC61709066
REMARK  4 active torsions:
REMARK  status: ('A' for Active; 'I' for Inactive)
REMARK    1  A    between atoms: C_2  and  N_19
REMARK    2  A    between atoms: C_6  and  S_7
REMARK    3  A    between atoms: S_7  and  N_10
REMARK    4  A    between atoms: C_13  and  O_16
REMARK                            x       y       z     vdW  Elec       q    Type
REMARK                         _______ _______ _______ _____ _____    ______ ____
ROOT
ATOM      1  C   UNL     1      -0.092   1.425   0.039  0.00  0.00    +0.055 A 
ATOM      2  C   UNL     1       1.077   2.173   0.016  0.00  0.00    +0.062 A 
ATOM      3  C   UNL     1       2.309   1.532  -0.066  0.00  0.00    +0.145 A 
ATOM      4  C   UNL     1       2.365   0.152  -0.123  0.00  0.00    +0.062 A 
ATOM      5  C   UNL     1       1.197  -0.590  -0.100  0.00  0.00    +0.070 A 
ATOM      6  C   UNL     1      -0.029   0.046  -0.018  0.00  0.00    +0.126 A 
ATOM      7 CL   UNL     1       1.271  -2.323  -0.173  0.00  0.00    -0.081 Cl
ATOM      8  F   UNL     1       3.448   2.257  -0.089  0.00  0.00    -0.204 F 
ENDROOT
BRANCH   6   9
ATOM      9  S   UNL     1      -1.512  -0.904   0.012  0.00  0.00    +0.062 S 
ATOM     10  O   UNL     1      -1.301  -1.958   0.941  0.00  0.00    -0.153 OA
ATOM     11  O   UNL     1      -2.584   0.020   0.138  0.00  0.00    -0.153 OA
BRANCH   9  12
ATOM     12  N   UNL     1      -1.671  -1.612  -1.477  0.00  0.00    -0.174 NA
ATOM     13  C   UNL     1      -2.234  -0.968  -2.679  0.00  0.00    +0.112 C 
ATOM     14  C   UNL     1      -1.613  -1.741  -3.869  0.00  0.00    +0.050 C 
ATOM     15  C   UNL     1      -1.583  -3.191  -3.318  0.00  0.00    +0.131 C 
ATOM     16  C   UNL     1      -1.268  -2.983  -1.822  0.00  0.00    +0.140 C 
BRANCH  15  17
ATOM     17  O   UNL     1      -0.552  -3.951  -3.951  0.00  0.00    -0.390 OA
ATOM     18  H   UNL     1      -0.663  -4.044  -4.907  0.00  0.00    +0.210 HD
ENDBRANCH  15  17
ENDBRANCH   9  12
ENDBRANCH   6   9
BRANCH   2  19
ATOM     19  N   UNL     1       1.016   3.570   0.073  0.00  0.00    -0.356 N 
ATOM     20  H   UNL     1       0.157   4.016   0.130  0.00  0.00    +0.142 HD
ATOM     21  H   UNL     1       1.833   4.092   0.057  0.00  0.00    +0.142 HD
ENDBRANCH   2  19
TORSDOF 4
