REMARK  Name = ZINC01627050
REMARK  3 active torsions:
REMARK  status: ('A' for Active; 'I' for Inactive)
REMARK    1  A    between atoms: C_1  and  C_2
REMARK    2  A    between atoms: C_1  and  O_5
REMARK    3  A    between atoms: O_5  and  C_6
REMARK                            x       y       z     vdW  Elec       q    Type
REMARK                         _______ _______ _______ _____ _____    ______ ____
ROOT
ATOM      1  C   UNL     1      -1.202  -0.638   0.010  0.00  0.00    +0.197 A 
ATOM      2  C   UNL     1      -1.802  -0.973   1.216  0.00  0.00    +0.206 A 
ATOM      3  C   UNL     1      -3.030  -1.614   1.223  0.00  0.00    +0.200 A 
ATOM      4  C   UNL     1      -3.654  -1.931   0.027  0.00  0.00    +0.199 A 
ATOM      5  C   UNL     1      -3.053  -1.601  -1.178  0.00  0.00    +0.200 A 
ATOM      6  C   UNL     1      -1.827  -0.955  -1.187  0.00  0.00    +0.206 A 
ATOM      7  F   UNL     1      -1.242  -0.635  -2.362  0.00  0.00    -0.198 F 
ATOM      8  F   UNL     1      -3.663  -1.910  -2.343  0.00  0.00    -0.199 F 
ATOM      9  F   UNL     1      -4.849  -2.561   0.035  0.00  0.00    -0.199 F 
ATOM     10  F   UNL     1      -3.617  -1.935   2.396  0.00  0.00    -0.199 F 
ATOM     11  F   UNL     1      -1.191  -0.670   2.382  0.00  0.00    -0.198 F 
ENDROOT
BRANCH   1  12
ATOM     12  O   UNL     1       0.002  -0.004   0.002  0.00  0.00    -0.477 OA
BRANCH  12  13
ATOM     13  C   UNL     1      -0.017   1.425   0.010  0.00  0.00    +0.324 C 
BRANCH  13  14
ATOM     14  C   UNL     1       1.397   1.946  -0.001  0.00  0.00    +0.248 C 
ATOM     15  O   UNL     1       2.329   1.171  -0.014  0.00  0.00    -0.272 OA
ATOM     16  N   UNL     1       1.625   3.275   0.004  0.00  0.00    -0.327 N 
ATOM     17  H   UNL     1       0.879   3.895   0.015  0.00  0.00    +0.145 HD
ATOM     18  H   UNL     1       2.535   3.610  -0.003  0.00  0.00    +0.145 HD
ENDBRANCH  13  14
ENDBRANCH  12  13
ENDBRANCH   1  12
TORSDOF 3
