REMARK  Name = ZINC43664927
REMARK  3 active torsions:
REMARK  status: ('A' for Active; 'I' for Inactive)
REMARK    1  A    between atoms: C_1  and  C_2
REMARK    2  A    between atoms: C_4  and  N_15
REMARK    3  A    between atoms: N_5  and  C_7
REMARK                            x       y       z     vdW  Elec       q    Type
REMARK                         _______ _______ _______ _____ _____    ______ ____
ROOT
ATOM      1  C   UNL     1      -0.368   1.474   0.053  0.00  0.00    +0.069 C 
ATOM      2  C   UNL     1      -0.148  -0.017   0.021  0.00  0.00    +0.076 A 
ATOM      3  C   UNL     1      -0.177  -0.822  -1.122  0.00  0.00    +0.080 A 
ATOM      4  C   UNL     1       0.067  -2.105  -0.735  0.00  0.00    +0.134 A 
ATOM      5  N   UNL     1       0.242  -2.098   0.615  0.00  0.00    -0.216 N 
ATOM      6  N   UNL     1       0.107  -0.775   1.057  0.00  0.00    -0.169 NA
ATOM      7 BR   UNL     1      -0.498  -0.234  -2.890  0.00  0.00    -0.045 Br
ENDROOT
BRANCH   5   8
ATOM      8  C   UNL     1       0.515  -3.214   1.419  0.00  0.00    +0.086 A 
ATOM      9  C   UNL     1       1.515  -4.105   1.055  0.00  0.00    +0.031 A 
ATOM     10  C   UNL     1       1.782  -5.204   1.848  0.00  0.00    +0.022 A 
ATOM     11  C   UNL     1       1.053  -5.417   3.005  0.00  0.00    +0.042 A 
ATOM     12  C   UNL     1       0.056  -4.530   3.371  0.00  0.00    +0.042 A 
ATOM     13  C   UNL     1      -0.211  -3.426   2.584  0.00  0.00    +0.068 A 
ATOM     14 CL   UNL     1      -1.457  -2.310   3.047  0.00  0.00    -0.081 Cl
ATOM     15 CL   UNL     1       1.391  -6.800   3.999  0.00  0.00    -0.083 Cl
ENDBRANCH   5   8
BRANCH   4  16
ATOM     16  N   UNL     1       0.125  -3.220  -1.567  0.00  0.00    -0.342 N 
ATOM     17  H   UNL     1       0.071  -3.110  -2.530  0.00  0.00    +0.144 HD
ATOM     18  H   UNL     1       0.219  -4.106  -1.185  0.00  0.00    +0.144 HD
ENDBRANCH   4  16
TORSDOF 2
