REMARK  Name = ZINC59941798
REMARK  7 active torsions:
REMARK  status: ('A' for Active; 'I' for Inactive)
REMARK    1  A    between atoms: C_4  and  N_7
REMARK    2  A    between atoms: C_8  and  N_29
REMARK    3  A    between atoms: C_13  and  S_14
REMARK    4  A    between atoms: S_14  and  C_15
REMARK    5  A    between atoms: C_15  and  C_16
REMARK    6  A    between atoms: N_18  and  C_19
REMARK    7  A    between atoms: C_23  and  C_25
REMARK                            x       y       z     vdW  Elec       q    Type
REMARK                         _______ _______ _______ _____ _____    ______ ____
ROOT
ATOM      1  N   UNL     1       3.580  -0.607  -0.560  0.00  0.00    -0.277 N 
ATOM      2  C   UNL     1       3.563  -1.977  -0.485  0.00  0.00    +0.108 A 
ATOM      3  C   UNL     1       4.745  -2.648  -0.359  0.00  0.00    +0.114 A 
ATOM      4  C   UNL     1       5.945  -1.911  -0.309  0.00  0.00    +0.276 A 
ATOM      5  O   UNL     1       7.017  -2.489  -0.196  0.00  0.00    -0.266 OA
ATOM      6  N   UNL     1       5.908  -0.571  -0.387  0.00  0.00    -0.185 NA
ATOM      7  C   UNL     1       4.765   0.069  -0.514  0.00  0.00    +0.179 A 
ENDROOT
BRANCH   1  11
ATOM      8  C   UNL     1       0.002   1.495  -0.949  0.00  0.00    +0.000 A 
ATOM      9  C   UNL     1       0.885   1.435  -2.011  0.00  0.00    +0.002 A 
ATOM     10  C   UNL     1       2.072   0.739  -1.885  0.00  0.00    +0.026 A 
ATOM     11  C   UNL     1       2.377   0.100  -0.691  0.00  0.00    +0.050 A 
ATOM     12  C   UNL     1       1.488   0.163   0.374  0.00  0.00    +0.026 A 
ATOM     13  C   UNL     1       0.303   0.860   0.242  0.00  0.00    +0.002 A 
ENDBRANCH   1  11
BRANCH   2  14
ATOM     14  N   UNL     1       2.373  -2.665  -0.536  0.00  0.00    -0.344 N 
ATOM     15  H   UNL     1       1.546  -2.190  -0.717  0.00  0.00    +0.144 HD
ATOM     16  H   UNL     1       2.360  -3.624  -0.392  0.00  0.00    +0.144 HD
ENDBRANCH   2  14
BRANCH   7  17
ATOM     17  S   UNL     1       4.763   1.827  -0.619  0.00  0.00    -0.078 S 
BRANCH  17  18
ATOM     18  C   UNL     1       6.519   2.274  -0.517  0.00  0.00    +0.173 C 
BRANCH  18  19
ATOM     19  C   UNL     1       6.661   3.772  -0.596  0.00  0.00    +0.227 C 
ATOM     20  O   UNL     1       5.675   4.470  -0.710  0.00  0.00    -0.275 OA
ATOM     21  N   UNL     1       7.883   4.337  -0.540  0.00  0.00    -0.285 N 
ATOM     22  H   UNL     1       8.676   3.778  -0.518  0.00  0.00    +0.155 HD
BRANCH  21  23
ATOM     23  C   UNL     1       8.010   5.730  -0.514  0.00  0.00    +0.034 A 
ATOM     24  C   UNL     1       9.098   6.342  -1.124  0.00  0.00    +0.023 A 
ATOM     25  C   UNL     1       9.220   7.717  -1.097  0.00  0.00    +0.002 A 
ATOM     26  C   UNL     1       8.261   8.485  -0.462  0.00  0.00    +0.012 A 
ATOM     27  C   UNL     1       7.177   7.880   0.147  0.00  0.00    +0.057 A 
ATOM     28  C   UNL     1       7.046   6.505   0.117  0.00  0.00    +0.035 A 
BRANCH  27  29
ATOM     29  C   UNL     1       6.135   8.720   0.839  0.00  0.00    +0.417 C 
ATOM     30  F   UNL     1       6.480  10.072   0.731  0.00  0.00    -0.166 F 
ATOM     31  F   UNL     1       4.890   8.507   0.237  0.00  0.00    -0.166 F 
ATOM     32  F   UNL     1       6.068   8.363   2.189  0.00  0.00    -0.166 F 
ENDBRANCH  27  29
ENDBRANCH  21  23
ENDBRANCH  18  19
ENDBRANCH  17  18
ENDBRANCH   7  17
TORSDOF 7
