REMARK  Name = ZINC39545466
REMARK  5 active torsions:
REMARK  status: ('A' for Active; 'I' for Inactive)
REMARK    1  A    between atoms: C_1  and  S_2
REMARK    2  A    between atoms: S_2  and  N_3
REMARK    3  A    between atoms: N_3  and  C_4
REMARK    4  A    between atoms: C_9  and  O_10
REMARK    5  A    between atoms: C_11  and  C_13
REMARK                            x       y       z     vdW  Elec       q    Type
REMARK                         _______ _______ _______ _____ _____    ______ ____
ROOT
ATOM      1  C   UNL     1      -1.871  -0.465  -2.441  0.00  0.00    +0.152 C 
ATOM      2  C   UNL     1      -2.282   0.990  -2.144  0.00  0.00    +0.100 C 
ATOM      3  C   UNL     1      -3.266   1.327  -3.242  0.00  0.00    +0.137 C 
ATOM      4  C   UNL     1      -3.406   0.293  -4.033  0.00  0.00    +0.107 C 
ATOM      5  N   UNL     1      -4.268   0.211  -5.149  0.00  0.00    -0.302 N 
ATOM      6  C   UNL     1      -4.863  -1.046  -5.343  0.00  0.00    +0.037 A 
ATOM      7  C   UNL     1      -5.815  -1.212  -6.339  0.00  0.00    +0.023 A 
ATOM      8  C   UNL     1      -6.393  -2.451  -6.536  0.00  0.00    +0.002 A 
ATOM      9  C   UNL     1      -6.020  -3.519  -5.741  0.00  0.00    +0.000 A 
ATOM     10  C   UNL     1      -5.075  -3.353  -4.748  0.00  0.00    +0.007 A 
ATOM     11  C   UNL     1      -4.493  -2.114  -4.537  0.00  0.00    -0.010 A 
ATOM     12  C   UNL     1      -3.486  -1.959  -3.428  0.00  0.00    +0.124 C 
ATOM     13  N   UNL     1      -2.614  -0.807  -3.665  0.00  0.00    -0.368 NA
ATOM     14  F   UNL     1      -3.903   2.510  -3.384  0.00  0.00    -0.207 F 
ATOM     15  H   UNL     1      -4.436   0.965  -5.735  0.00  0.00    +0.153 HD
ATOM     16  H   UNL     1      -1.965  -1.023  -4.407  0.00  0.00    +0.129 HD
ENDROOT
BRANCH   1  18
ATOM     17  N   UNL     1       0.455  -0.726  -1.642  0.00  0.00    -0.209 N 
ATOM     18  C   UNL     1      -0.387  -0.556  -2.681  0.00  0.00    +0.249 C 
ATOM     19  O   UNL     1       0.051  -0.477  -3.810  0.00  0.00    -0.272 OA
BRANCH  17  20
ATOM     20  C   UNL     1      -0.039  -0.711  -0.331  0.00  0.00    +0.089 A 
ATOM     21  C   UNL     1      -0.548  -1.872   0.233  0.00  0.00    +0.028 A 
ATOM     22  C   UNL     1      -1.034  -1.855   1.526  0.00  0.00    +0.002 A 
ATOM     23  C   UNL     1      -1.015  -0.684   2.261  0.00  0.00    +0.004 A 
ATOM     24  C   UNL     1      -0.510   0.477   1.705  0.00  0.00    +0.047 A 
ATOM     25  C   UNL     1      -0.015   0.467   0.411  0.00  0.00    +0.139 A 
BRANCH  25  26
ATOM     26  O   UNL     1       0.488   1.606  -0.134  0.00  0.00    -0.505 OA
ATOM     27  H   UNL     1      -0.150   2.104  -0.664  0.00  0.00    +0.292 HD
ENDBRANCH  25  26
ENDBRANCH  17  20
BRANCH  17  29
ATOM     28  C   UNL     1       2.228  -2.739  -2.180  0.00  0.00    +0.107 C 
ATOM     29  S   UNL     1       2.073  -0.951  -1.915  0.00  0.00    -0.055 S 
ENDBRANCH  17  29
ENDBRANCH   1  18
TORSDOF 4
