REMARK  Name = ZINC01174878
REMARK  4 active torsions:
REMARK  status: ('A' for Active; 'I' for Inactive)
REMARK    1  A    between atoms: C_3  and  O_25
REMARK    2  A    between atoms: C_6  and  N_7
REMARK    3  A    between atoms: C_11  and  C_12
REMARK    4  A    between atoms: C_15  and  O_19
REMARK                            x       y       z     vdW  Elec       q    Type
REMARK                         _______ _______ _______ _____ _____    ______ ____
ROOT
ATOM      1  N   UNL     1       3.466   1.742  -0.481  0.00  0.00    -0.190 N 
ATOM      2  C   UNL     1       2.406   0.941  -0.714  0.00  0.00    +0.263 C 
ATOM      3  O   UNL     1       2.549  -0.259  -0.855  0.00  0.00    -0.269 OA
ATOM      4  C   UNL     1       1.069   1.561  -0.794  0.00  0.00    +0.100 C 
ATOM      5  C   UNL     1      -0.064   0.805  -1.030  0.00  0.00    +0.026 C 
ATOM      6  C   UNL     1       0.996   3.025  -0.617  0.00  0.00    +0.257 C 
ATOM      7  O   UNL     1      -0.069   3.609  -0.674  0.00  0.00    -0.270 OA
ATOM      8  N   UNL     1       2.143   3.696  -0.385  0.00  0.00    -0.235 N 
ATOM      9  C   UNL     1       3.324   3.066  -0.325  0.00  0.00    +0.320 C 
ATOM     10  O   UNL     1       4.320   3.730  -0.117  0.00  0.00    -0.251 OA
ATOM     11  H   UNL     1       2.112   4.658  -0.263  0.00  0.00    +0.159 HD
ENDROOT
BRANCH   5  12
ATOM     12  C   UNL     1      -1.389   1.393  -0.837  0.00  0.00    -0.023 A 
ATOM     13  C   UNL     1      -1.644   2.203   0.280  0.00  0.00    +0.011 A 
ATOM     14  C   UNL     1      -2.880   2.756   0.455  0.00  0.00    +0.047 A 
ATOM     15  C   UNL     1      -3.894   2.510  -0.465  0.00  0.00    +0.135 A 
ATOM     16  C   UNL     1      -3.656   1.703  -1.574  0.00  0.00    +0.083 A 
ATOM     17  C   UNL     1      -2.412   1.145  -1.765  0.00  0.00    +0.031 A 
ATOM     18 CL   UNL     1      -4.927   1.402  -2.718  0.00  0.00    -0.080 Cl
BRANCH  15  19
ATOM     19  O   UNL     1      -5.121   3.058  -0.279  0.00  0.00    -0.505 OA
ATOM     20  H   UNL     1      -5.724   2.507   0.238  0.00  0.00    +0.292 HD
ENDBRANCH  15  19
ENDBRANCH   5  12
BRANCH   1  26
ATOM     21  C   UNL     1       5.183   0.608   0.788  0.00  0.00    +0.027 A 
ATOM     22  C   UNL     1       6.442   0.046   0.864  0.00  0.00    +0.047 A 
ATOM     23  C   UNL     1       7.277   0.060  -0.243  0.00  0.00    +0.117 A 
ATOM     24  C   UNL     1       6.845   0.634  -1.430  0.00  0.00    +0.047 A 
ATOM     25  C   UNL     1       5.583   1.191  -1.510  0.00  0.00    +0.027 A 
ATOM     26  C   UNL     1       4.748   1.177  -0.401  0.00  0.00    +0.046 A 
BRANCH  23  27
ATOM     27  O   UNL     1       8.518  -0.488  -0.166  0.00  0.00    -0.507 OA
ATOM     28  H   UNL     1       9.205   0.132   0.114  0.00  0.00    +0.292 HD
ENDBRANCH  23  27
ENDBRANCH   1  26
TORSDOF 4
