REMARK  Name = ZINC16990426
REMARK  4 active torsions:
REMARK  status: ('A' for Active; 'I' for Inactive)
REMARK    1  A    between atoms: C_1  and  C_2
REMARK    2  A    between atoms: C_5  and  O_30
REMARK    3  A    between atoms: C_17  and  C_29
REMARK    4  A    between atoms: C_26  and  O_28
REMARK                            x       y       z     vdW  Elec       q    Type
REMARK                         _______ _______ _______ _____ _____    ______ ____
ROOT
ATOM      1  C   UNL     1      -3.230   1.903  -2.129  0.00  0.00    +0.016 C 
ATOM      2  C   UNL     1      -2.339   1.050  -1.224  0.00  0.00    -0.008 C 
ATOM      3  C   UNL     1      -2.348  -0.382  -1.753  0.00  0.00    +0.014 C 
ATOM      4  C   UNL     1      -3.495  -1.168  -1.119  0.00  0.00    +0.032 C 
ATOM      5  C   UNL     1      -4.708  -0.272  -0.877  0.00  0.00    +0.119 C 
ATOM      6  C   UNL     1      -4.405   0.705   0.268  0.00  0.00    +0.062 C 
ATOM      7  C   UNL     1      -2.933   1.071   0.158  0.00  0.00    -0.065 C 
ATOM      8  C   UNL     1      -2.260   1.345   1.229  0.00  0.00    -0.027 C 
ATOM      9  C   UNL     1      -0.785   1.636   1.242  0.00  0.00    +0.031 C 
ATOM     10  C   UNL     1      -0.139   1.095  -0.040  0.00  0.00    +0.001 C 
ATOM     11  C   UNL     1      -0.930   1.633  -1.251  0.00  0.00    +0.003 C 
ATOM     12  C   UNL     1      -0.271   1.271  -2.579  0.00  0.00    +0.005 C 
ATOM     13  C   UNL     1       1.209   1.691  -2.634  0.00  0.00    +0.013 C 
ATOM     14  C   UNL     1       1.879   1.067  -1.447  0.00  0.00    +0.013 C 
ATOM     15  C   UNL     1       1.266   1.658  -0.157  0.00  0.00    +0.005 C 
ATOM     16  C   UNL     1       2.286   1.209   0.907  0.00  0.00    +0.020 C 
ATOM     17  C   UNL     1       3.583   1.571   0.150  0.00  0.00    +0.108 C 
ATOM     18  C   UNL     1       3.347   1.025  -1.275  0.00  0.00    +0.073 C 
ATOM     19  N   UNL     1       4.509   0.736  -1.713  0.00  0.00    -0.090 NA
ATOM     20  O   UNL     1       5.501   0.696  -0.702  0.00  0.00    -0.361 OA
ATOM     21  C   UNL     1       4.817   0.775   0.576  0.00  0.00    +0.342 C 
ATOM     22  C   UNL     1       1.422  -0.393  -1.460  0.00  0.00    +0.018 C 
ENDROOT
BRANCH  21  23
ATOM     23  O   UNL     1       5.592   1.490   1.540  0.00  0.00    -0.356 OA
ATOM     24  H   UNL     1       6.383   1.020   1.836  0.00  0.00    +0.214 HD
ENDBRANCH  21  23
BRANCH   5  25
ATOM     25  O   UNL     1      -5.000   0.465  -2.067  0.00  0.00    -0.391 OA
ATOM     26  H   UNL     1      -5.728   1.094  -1.971  0.00  0.00    +0.210 HD
ENDBRANCH   5  25
TORSDOF 2
