REMARK  Name = ZINC51830011
REMARK  4 active torsions:
REMARK  status: ('A' for Active; 'I' for Inactive)
REMARK    1  A    between atoms: C_10  and  C_12
REMARK    2  A    between atoms: C_12  and  O_14
REMARK    3  A    between atoms: O_14  and  C_15
REMARK    4  A    between atoms: C_19  and  C_21
REMARK                            x       y       z     vdW  Elec       q    Type
REMARK                         _______ _______ _______ _____ _____    ______ ____
ROOT
ATOM      1  C   UNL     1       5.026  -2.475   0.564  0.00  0.00    +0.380 C 
ATOM      2  O   UNL     1       5.128  -3.648   0.863  0.00  0.00    -0.241 OA
ENDROOT
BRANCH   1  12
ATOM      3  C   UNL     1       0.005   1.405  -0.006  0.00  0.00    +0.001 A 
ATOM      4  C   UNL     1       1.200   2.111  -0.050  0.00  0.00    +0.004 A 
ATOM      5  C   UNL     1       2.409   1.451  -0.065  0.00  0.00    +0.047 A 
ATOM      6  C   UNL     1       2.440   0.060  -0.034  0.00  0.00    +0.140 A 
ATOM      7  C   UNL     1       1.226  -0.646   0.018  0.00  0.00    +0.064 A 
ATOM      8  C   UNL     1       0.012   0.037   0.027  0.00  0.00    +0.015 A 
ATOM      9  C   UNL     1       1.283  -2.121   0.068  0.00  0.00    +0.193 A 
ATOM     10  O   UNL     1       0.295  -2.812  -0.109  0.00  0.00    -0.287 OA
ATOM     11  C   UNL     1       2.606  -2.707   0.345  0.00  0.00    +0.105 A 
ATOM     12  C   UNL     1       3.693  -1.900   0.271  0.00  0.00    +0.216 A 
ATOM     13  O   UNL     1       3.612  -0.602  -0.055  0.00  0.00    -0.448 OA
ENDBRANCH   1  12
BRANCH   1  14
ATOM     14  O   UNL     1       6.124  -1.699   0.499  0.00  0.00    -0.420 OA
BRANCH  14  15
ATOM     15  C   UNL     1       7.312  -2.241   0.874  0.00  0.00    +0.133 A 
ATOM     16  C   UNL     1       7.983  -3.104   0.017  0.00  0.00    +0.046 A 
ATOM     17  C   UNL     1       9.192  -3.659   0.393  0.00  0.00    +0.004 A 
ATOM     18  C   UNL     1       9.741  -3.359   1.623  0.00  0.00    +0.013 A 
ATOM     19  C   UNL     1       9.074  -2.493   2.492  0.00  0.00    +0.040 A 
ATOM     20  C   UNL     1       7.857  -1.929   2.108  0.00  0.00    +0.059 A 
BRANCH  19  21
ATOM     21  C   UNL     1       9.659  -2.169   3.810  0.00  0.00    +0.242 C 
ATOM     22  O   UNL     1       9.077  -1.415   4.565  0.00  0.00    -0.270 OA
ATOM     23  N   UNL     1      10.838  -2.711   4.176  0.00  0.00    -0.325 N 
ATOM     24  H   UNL     1      11.303  -3.313   3.574  0.00  0.00    +0.145 HD
ATOM     25  H   UNL     1      11.222  -2.499   5.041  0.00  0.00    +0.145 HD
ENDBRANCH  19  21
ENDBRANCH  14  15
ENDBRANCH   1  14
TORSDOF 4
