REMARK  Name = ZINC23347957
REMARK  8 active torsions:
REMARK  status: ('A' for Active; 'I' for Inactive)
REMARK    1  A    between atoms: C_1  and  C_2
REMARK    2  A    between atoms: C_7  and  N_8
REMARK    3  A    between atoms: C_9  and  C_11
REMARK    4  A    between atoms: C_11  and  S_12
REMARK    5  A    between atoms: S_12  and  C_13
REMARK    6  A    between atoms: C_16  and  C_22
REMARK    7  A    between atoms: N_17  and  C_18
REMARK    8  A    between atoms: C_18  and  C_19
REMARK                            x       y       z     vdW  Elec       q    Type
REMARK                         _______ _______ _______ _____ _____    ______ ____
ROOT
ATOM      1  C   UNL     1       0.003  -0.004  -0.029  0.00  0.00    +0.193 A 
ATOM      2  N   UNL     1       1.071  -0.769  -0.056  0.00  0.00    -0.122 NA
ATOM      3  N   UNL     1       0.730  -2.007  -0.063  0.00  0.00    -0.125 NA
ATOM      4  C   UNL     1      -0.581  -2.111  -0.051  0.00  0.00    +0.201 A 
ATOM      5  N   UNL     1      -1.087  -0.830  -0.029  0.00  0.00    -0.291 N 
ENDROOT
BRANCH   4   6
ATOM      6  C   UNL     1      -1.360  -3.359  -0.061  0.00  0.00    +0.172 A 
ATOM      7  C   UNL     1      -0.884  -4.597  -0.373  0.00  0.00    +0.053 A 
ATOM      8  C   UNL     1      -1.966  -5.490  -0.250  0.00  0.00    +0.042 A 
ATOM      9  C   UNL     1      -3.040  -4.763   0.119  0.00  0.00    +0.196 A 
ATOM     10  O   UNL     1      -2.671  -3.477   0.232  0.00  0.00    -0.460 OA
ENDBRANCH   4   6
BRANCH   1  11
ATOM     11  S   UNL     1      -0.021   1.757  -0.005  0.00  0.00    -0.077 S 
BRANCH  11  12
ATOM     12  C   UNL     1       1.756   2.096  -0.019  0.00  0.00    +0.173 C 
BRANCH  12  14
ATOM     13  N   UNL     1       3.240   4.076  -0.007  0.00  0.00    -0.285 N 
ATOM     14  C   UNL     1       1.984   3.586  -0.001  0.00  0.00    +0.227 C 
ATOM     15  O   UNL     1       1.037   4.344   0.019  0.00  0.00    -0.275 OA
ATOM     16  H   UNL     1       4.098   3.391   0.067  0.00  0.00    +0.155 HD
BRANCH  13  23
ATOM     17  C   UNL     1       5.672   5.139   1.018  0.00  0.00    +0.045 C 
ATOM     18  C   UNL     1       4.625   6.016   0.380  0.00  0.00    -0.029 A 
ATOM     19  C   UNL     1       4.831   7.378   0.280  0.00  0.00    +0.005 A 
ATOM     20  C   UNL     1       3.871   8.183  -0.306  0.00  0.00    +0.000 A 
ATOM     21  C   UNL     1       2.702   7.627  -0.793  0.00  0.00    +0.002 A 
ATOM     22  C   UNL     1       2.492   6.266  -0.700  0.00  0.00    +0.023 A 
ATOM     23  C   UNL     1       3.452   5.455  -0.107  0.00  0.00    +0.036 A 
ENDBRANCH  13  23
ENDBRANCH  12  14
ENDBRANCH  11  12
ENDBRANCH   1  11
BRANCH   5  24
ATOM     24  C   UNL     1      -2.497  -0.435  -0.010  0.00  0.00    +0.221 C 
BRANCH  24  25
ATOM     25  C   UNL     1      -2.995  -0.281  -1.423  0.00  0.00    +0.230 C 
ATOM     26  O   UNL     1      -2.246  -0.481  -2.356  0.00  0.00    -0.274 OA
ATOM     27  N   UNL     1      -4.274   0.080  -1.652  0.00  0.00    -0.328 N 
ATOM     28  H   UNL     1      -4.637   0.193  -2.684  0.00  0.00    +0.145 HD
ATOM     29  H   UNL     1      -4.953   0.262  -0.807  0.00  0.00    +0.145 HD
ENDBRANCH  24  25
ENDBRANCH   5  24
TORSDOF 7
