REMARK  Name = ZINC04592577
REMARK  8 active torsions:
REMARK  status: ('A' for Active; 'I' for Inactive)
REMARK    1  A    between atoms: C_1  and  C_2
REMARK    2  A    between atoms: C_2  and  C_3
REMARK    3  A    between atoms: C_3  and  C_4
REMARK    4  A    between atoms: C_11  and  N_30
REMARK    5  A    between atoms: C_12  and  C_28
REMARK    6  A    between atoms: C_13  and  C_15
REMARK    7  A    between atoms: C_16  and  C_27
REMARK    8  A    between atoms: N_18  and  C_21
REMARK                            x       y       z     vdW  Elec       q    Type
REMARK                         _______ _______ _______ _____ _____    ______ ____
ROOT
ATOM      1  C   UNL     1       0.739  -2.004  -1.265  0.00  0.00    +0.071 A 
ATOM      2  C   UNL     1       1.726  -2.809  -0.712  0.00  0.00    +0.050 A 
ATOM      3  C   UNL     1       1.378  -4.114  -0.927  0.00  0.00    +0.222 A 
ATOM      4  N   UNL     1       0.212  -4.119  -1.594  0.00  0.00    -0.246 N 
ATOM      5  H   UNL     1      -0.276  -4.905  -1.884  0.00  0.00    +0.192 HD
ATOM      6  N   UNL     1      -0.176  -2.784  -1.791  0.00  0.00    -0.176 NA
ATOM      7  O   UNL     1       2.138  -5.154  -0.503  0.00  0.00    -0.423 OA
ATOM      8  C   UNL     1       3.120  -4.889   0.383  0.00  0.00    +0.200 C 
ATOM      9  C   UNL     1       3.559  -3.643   0.670  0.00  0.00    +0.098 C 
ATOM     10  C   UNL     1       2.986  -2.412   0.012  0.00  0.00    +0.106 C 
ENDROOT
BRANCH  10  11
ATOM     11  C   UNL     1       3.981  -1.851  -0.970  0.00  0.00    +0.025 A 
ATOM     12  C   UNL     1       4.532  -0.565  -0.939  0.00  0.00    +0.066 A 
ATOM     13  N   UNL     1       5.353  -0.444  -1.951  0.00  0.00    -0.170 NA
ATOM     14  N   UNL     1       5.354  -1.650  -2.664  0.00  0.00    -0.221 N 
ATOM     15  C   UNL     1       4.504  -2.503  -2.036  0.00  0.00    +0.137 A 
ATOM     16 CL   UNL     1       4.150  -4.134  -2.515  0.00  0.00    -0.062 Cl
ATOM     17  C   UNL     1       4.232   0.498   0.086  0.00  0.00    +0.068 C 
BRANCH  14  18
ATOM     18  C   UNL     1       6.101  -1.927  -3.817  0.00  0.00    +0.067 A 
ATOM     19  C   UNL     1       6.603  -3.205  -4.030  0.00  0.00    +0.028 A 
ATOM     20  C   UNL     1       7.338  -3.475  -5.167  0.00  0.00    +0.002 A 
ATOM     21  C   UNL     1       7.577  -2.476  -6.092  0.00  0.00    +0.000 A 
ATOM     22  C   UNL     1       7.079  -1.203  -5.882  0.00  0.00    +0.002 A 
ATOM     23  C   UNL     1       6.338  -0.927  -4.750  0.00  0.00    +0.028 A 
ENDBRANCH  14  18
ENDBRANCH  10  11
BRANCH   8  24
ATOM     24  N   UNL     1       3.708  -5.946   1.031  0.00  0.00    -0.328 N 
ATOM     25  H   UNL     1       3.415  -6.852   0.847  0.00  0.00    +0.145 HD
ATOM     26  H   UNL     1       4.417  -5.788   1.674  0.00  0.00    +0.145 HD
ENDBRANCH   8  24
BRANCH   9  27
ATOM     27  C   UNL     1       4.606  -3.486   1.633  0.00  0.00    +0.101 C 
ATOM     28  N   UNL     1       5.437  -3.361   2.398  0.00  0.00    -0.191 NA
ENDBRANCH   9  27
BRANCH   1  29
ATOM     29  C   UNL     1       0.718  -0.497  -1.257  0.00  0.00    +0.057 C 
BRANCH  29  31
ATOM     30  C   UNL     1      -0.019   1.526   0.010  0.00  0.00    +0.004 C 
ATOM     31  C   UNL     1       0.002  -0.004   0.002  0.00  0.00    +0.003 C 
ENDBRANCH  29  31
ENDBRANCH   1  29
TORSDOF 6
