REMARK  Name = ZINC57873677
REMARK  7 active torsions:
REMARK  status: ('A' for Active; 'I' for Inactive)
REMARK    1  A    between atoms: C_1  and  C_2
REMARK    2  A    between atoms: C_2  and  C_3
REMARK    3  A    between atoms: C_2  and  C_4
REMARK    4  A    between atoms: C_2  and  C_5
REMARK    5  A    between atoms: N_13  and  C_14
REMARK    6  A    between atoms: C_14  and  C_15
REMARK    7  A    between atoms: C_15  and  N_17
REMARK                            x       y       z     vdW  Elec       q    Type
REMARK                         _______ _______ _______ _____ _____    ______ ____
ROOT
ATOM      1  C   UNL     1       0.592  -0.476  -1.302  0.00  0.00    +0.118 A 
ATOM      2  N   UNL     1      -0.049  -1.154  -2.209  0.00  0.00    -0.230 NA
ATOM      3  C   UNL     1       0.790  -1.448  -3.233  0.00  0.00    +0.110 A 
ATOM      4  C   UNL     1       0.641  -2.138  -4.440  0.00  0.00    +0.053 A 
ATOM      5  C   UNL     1       1.743  -2.249  -5.268  0.00  0.00    +0.061 A 
ATOM      6  C   UNL     1       2.948  -1.680  -4.883  0.00  0.00    +0.133 A 
ATOM      7  N   UNL     1       3.067  -1.035  -3.741  0.00  0.00    -0.234 NA
ATOM      8  C   UNL     1       2.044  -0.899  -2.912  0.00  0.00    +0.161 A 
ATOM      9  N   UNL     1       1.884  -0.287  -1.687  0.00  0.00    -0.306 N 
ATOM     10 CL   UNL     1       1.619  -3.094  -6.780  0.00  0.00    -0.082 Cl
ENDROOT
BRANCH   1  12
ATOM     11  C   UNL     1      -0.043   1.560  -0.037  0.00  0.00    +0.019 C 
ATOM     12  C   UNL     1      -0.009   0.030  -0.016  0.00  0.00    +0.020 C 
ATOM     13  C   UNL     1       0.840  -0.445   1.165  0.00  0.00    +0.019 C 
ATOM     14  C   UNL     1      -1.433  -0.510   0.129  0.00  0.00    +0.019 C 
ENDBRANCH   1  12
BRANCH   9  15
ATOM     15  C   UNL     1       2.916   0.433  -0.936  0.00  0.00    +0.183 C 
BRANCH  15  16
ATOM     16  C   UNL     1       3.735  -0.550  -0.139  0.00  0.00    +0.066 C 
ATOM     17  S   UNL     1       3.401  -2.112  -0.210  0.00  0.00    -0.039 S 
BRANCH  16  18
ATOM     18  N   UNL     1       4.748  -0.112   0.634  0.00  0.00    -0.354 N 
ATOM     19  H   UNL     1       4.951   0.835   0.677  0.00  0.00    +0.143 HD
ATOM     20  H   UNL     1       5.275  -0.745   1.147  0.00  0.00    +0.143 HD
ENDBRANCH  16  18
ENDBRANCH  15  16
ENDBRANCH   9  15
TORSDOF 4
