REMARK  Name = ZINC25177425
REMARK  7 active torsions:
REMARK  status: ('A' for Active; 'I' for Inactive)
REMARK    1  A    between atoms: C_1  and  C_2
REMARK    2  A    between atoms: C_6  and  N_8
REMARK    3  A    between atoms: N_8  and  S_9
REMARK    4  A    between atoms: S_9  and  C_12
REMARK    5  A    between atoms: C_16  and  C_18
REMARK    6  A    between atoms: N_20  and  C_21
REMARK    7  A    between atoms: C_26  and  O_27
REMARK                            x       y       z     vdW  Elec       q    Type
REMARK                         _______ _______ _______ _____ _____    ______ ____
ROOT
ATOM      1  C   UNL     1       0.380   5.711  -2.625  0.00  0.00    +0.109 A 
ATOM      2  C   UNL     1       0.930   4.639  -3.307  0.00  0.00    +0.030 A 
ATOM      3  C   UNL     1       0.527   4.353  -4.599  0.00  0.00    +0.022 A 
ATOM      4  C   UNL     1      -0.421   5.143  -5.220  0.00  0.00    +0.053 A 
ATOM      5  C   UNL     1      -0.976   6.228  -4.538  0.00  0.00    +0.057 A 
ATOM      6  C   UNL     1      -0.567   6.507  -3.233  0.00  0.00    +0.043 A 
ATOM      7 CL   UNL     1      -0.922   4.786  -6.844  0.00  0.00    -0.083 Cl
ENDROOT
BRANCH   5   8
ATOM      8  C   UNL     1      -1.991   7.077  -5.196  0.00  0.00    +0.250 C 
ATOM      9  O   UNL     1      -2.344   6.832  -6.333  0.00  0.00    -0.270 OA
ATOM     10  N   UNL     1      -2.524   8.124  -4.535  0.00  0.00    -0.279 N 
ATOM     11  H   UNL     1      -2.260   8.303  -3.482  0.00  0.00    +0.155 HD
BRANCH  10  12
ATOM     12  C   UNL     1      -3.416   8.984  -5.189  0.00  0.00    +0.076 A 
ATOM     13  C   UNL     1      -4.293   8.484  -6.141  0.00  0.00    +0.027 A 
ATOM     14  C   UNL     1      -5.175   9.334  -6.780  0.00  0.00    +0.002 A 
ATOM     15  C   UNL     1      -5.179  10.684  -6.482  0.00  0.00    +0.004 A 
ATOM     16  C   UNL     1      -4.305  11.190  -5.538  0.00  0.00    +0.047 A 
ATOM     17  C   UNL     1      -3.421  10.344  -4.889  0.00  0.00    +0.138 A 
BRANCH  17  18
ATOM     18  O   UNL     1      -2.559  10.841  -3.961  0.00  0.00    -0.505 OA
ATOM     19  H   UNL     1      -2.564  11.915  -3.725  0.00  0.00    +0.292 HD
ENDBRANCH  17  18
ENDBRANCH  10  12
ENDBRANCH   5   8
BRANCH   1  20
ATOM     20  S   UNL     1       0.897   6.061  -0.977  0.00  0.00    +0.072 S 
ATOM     21  O   UNL     1       0.638   7.441  -0.755  0.00  0.00    -0.150 OA
ATOM     22  O   UNL     1       2.192   5.496  -0.828  0.00  0.00    -0.150 OA
BRANCH  20  23
ATOM     23  N   UNL     1      -0.106   5.222   0.039  0.00  0.00    -0.216 N 
ATOM     24  H   UNL     1      -0.778   5.765   0.720  0.00  0.00    +0.174 HD
BRANCH  23  30
ATOM     25  C   UNL     1      -2.582   0.977   0.021  0.00  0.00    +0.044 C 
ATOM     26  C   UNL     1      -1.283   1.741   0.024  0.00  0.00    -0.049 A 
ATOM     27  C   UNL     1      -0.081   1.059   0.018  0.00  0.00    +0.003 A 
ATOM     28  C   UNL     1       1.114   1.756   0.015  0.00  0.00    +0.002 A 
ATOM     29  C   UNL     1       1.109   3.137   0.022  0.00  0.00    +0.024 A 
ATOM     30  C   UNL     1      -0.097   3.826   0.033  0.00  0.00    +0.048 A 
ATOM     31  C   UNL     1      -1.295   3.122   0.036  0.00  0.00    +0.027 A 
ENDBRANCH  23  30
ENDBRANCH  20  23
ENDBRANCH   1  20
TORSDOF 6
