REMARK  Name = ZINC31808957
REMARK  2 active torsions:
REMARK  status: ('A' for Active; 'I' for Inactive)
REMARK    1  A    between atoms: C_1  and  C_2
REMARK    2  A    between atoms: C_17  and  C_19
REMARK                            x       y       z     vdW  Elec       q    Type
REMARK                         _______ _______ _______ _____ _____    ______ ____
ROOT
ATOM      1  C   UNL     1      -0.018   1.503   0.010  0.00  0.00    +0.065 C 
ATOM      2  C   UNL     1       0.002  -0.004   0.002  0.00  0.00    +0.039 A 
ATOM      3  C   UNL     1       0.023  -0.801   1.081  0.00  0.00    +0.027 A 
ATOM      4  C   UNL     1       0.034  -2.141   0.631  0.00  0.00    +0.150 A 
ATOM      5  N   UNL     1       0.024  -2.134  -0.669  0.00  0.00    -0.158 NA
ATOM      6  H   UNL     1      -0.021  -0.493  -2.016  0.00  0.00    +0.189 HD
ATOM      7  N   UNL     1      -0.003  -0.796  -1.095  0.00  0.00    -0.280 N 
ATOM      8  N   UNL     1       0.049  -3.208   1.539  0.00  0.00    -0.284 N 
ATOM      9  C   UNL     1      -0.234  -2.937   2.860  0.00  0.00    +0.115 A 
ATOM     10  C   UNL     1      -0.258  -1.674   3.366  0.00  0.00    +0.067 A 
ATOM     11  C   UNL     1      -0.568  -1.497   4.730  0.00  0.00    +0.260 A 
ATOM     12  N   UNL     1      -0.829  -2.565   5.504  0.00  0.00    -0.275 N 
ATOM     13  C   UNL     1      -0.795  -3.807   4.988  0.00  0.00    +0.328 A 
ATOM     14  N   UNL     1      -0.503  -4.004   3.691  0.00  0.00    -0.295 N 
ATOM     15  O   UNL     1      -1.032  -4.761   5.702  0.00  0.00    -0.247 OA
ATOM     16  O   UNL     1      -0.598  -0.375   5.207  0.00  0.00    -0.267 OA
ATOM     17  C   UNL     1       0.037  -0.445   2.542  0.00  0.00    +0.093 C 
ATOM     18  H   UNL     1       0.253  -4.111   1.247  0.00  0.00    +0.155 HD
ATOM     19  H   UNL     1      -1.044  -2.439   6.442  0.00  0.00    +0.173 HD
ATOM     20  H   UNL     1      -0.482  -4.907   3.336  0.00  0.00    +0.172 HD
ENDROOT
BRANCH  17  21
ATOM     21  C   UNL     1       1.393   0.096   2.915  0.00  0.00    -0.035 A 
ATOM     22  C   UNL     1       2.519  -0.688   2.746  0.00  0.00    +0.005 A 
ATOM     23  C   UNL     1       3.764  -0.192   3.087  0.00  0.00    +0.015 A 
ATOM     24  C   UNL     1       3.882   1.088   3.596  0.00  0.00    +0.018 A 
ATOM     25  C   UNL     1       2.755   1.872   3.765  0.00  0.00    +0.015 A 
ATOM     26  C   UNL     1       1.512   1.377   3.419  0.00  0.00    +0.005 A 
ATOM     27 BR   UNL     1       5.584   1.767   4.063  0.00  0.00    -0.050 Br
ENDBRANCH  17  21
TORSDOF 1
