REMARK  Name = ZINC16000538
REMARK  8 active torsions:
REMARK  status: ('A' for Active; 'I' for Inactive)
REMARK    1  A    between atoms: C_1  and  C_2
REMARK    2  A    between atoms: C_4  and  C_37
REMARK    3  A    between atoms: N_20  and  C_23
REMARK    4  A    between atoms: C_24  and  C_30
REMARK    5  A    between atoms: C_25  and  C_29
REMARK    6  A    between atoms: C_26  and  C_28
REMARK    7  A    between atoms: C_30  and  O_32
REMARK    8  A    between atoms: O_32  and  C_33
REMARK                            x       y       z     vdW  Elec       q    Type
REMARK                         _______ _______ _______ _____ _____    ______ ____
ROOT
ATOM      1  C   UNL     1      -1.310   1.965  -0.006  0.00  0.00    +0.044 C 
ATOM      2  C   UNL     1       0.023   1.262  -0.003  0.00  0.00    -0.050 A 
ATOM      3  C   UNL     1       0.077  -0.120   0.001  0.00  0.00    +0.008 A 
ATOM      4  C   UNL     1       1.294  -0.769  -0.002  0.00  0.00    -0.029 A 
ATOM      5  C   UNL     1       2.479  -0.037  -0.007  0.00  0.00    +0.039 A 
ATOM      6  C   UNL     1       2.412   1.353  -0.011  0.00  0.00    -0.027 A 
ATOM      7  C   UNL     1       1.195   1.997  -0.010  0.00  0.00    +0.008 A 
ATOM      8  C   UNL     1       3.836   1.833  -0.013  0.00  0.00    +0.053 C 
ATOM      9  C   UNL     1       4.157   2.768  -1.132  0.00  0.00    +0.089 C 
ATOM     10  C   UNL     1       5.515   3.348  -0.563  0.00  0.00    +0.074 C 
ATOM     11  C   UNL     1       5.099   3.711   0.827  0.00  0.00    -0.054 C 
ATOM     12  C   UNL     1       4.726   1.808   2.252  0.00  0.00    -0.076 C 
ATOM     13  C   UNL     1       5.706   2.759   2.983  0.00  0.00    -0.020 C 
ATOM     14  C   UNL     1       6.287   3.576   1.803  0.00  0.00    -0.016 C 
ATOM     15  C   UNL     1       5.895   4.190  -1.703  0.00  0.00    +0.229 C 
ATOM     16  O   UNL     1       6.447   5.269  -1.674  0.00  0.00    -0.275 OA
ATOM     17  N   UNL     1       5.490   3.488  -2.810  0.00  0.00    -0.203 N 
ATOM     18  C   UNL     1       4.618   2.475  -2.500  0.00  0.00    +0.230 C 
ATOM     19  O   UNL     1       4.296   1.540  -3.201  0.00  0.00    -0.275 OA
ATOM     20  C   UNL     1       4.671   0.581  -0.011  0.00  0.00    +0.212 C 
ATOM     21  O   UNL     1       5.882   0.518  -0.011  0.00  0.00    -0.277 OA
ATOM     22  N   UNL     1       3.811  -0.456  -0.010  0.00  0.00    -0.286 N 
ATOM     23  C   UNL     1       1.342  -2.276   0.002  0.00  0.00    +0.045 C 
ATOM     24  H   UNL     1       4.086  -1.386  -0.010  0.00  0.00    +0.155 HD
ATOM     25  N   UNL     1       4.133   2.659   1.195  0.00  0.00    +0.395 N 
ATOM     26  H   UNL     1       3.266   3.087   1.543  0.00  0.00    -0.079 HD
ENDROOT
BRANCH  17  27
ATOM     27  C   UNL     1       5.915   3.771  -4.103  0.00  0.00    +0.096 A 
ATOM     28  C   UNL     1       5.306   4.580  -5.055  0.00  0.00    +0.091 A 
ATOM     29  C   UNL     1       5.974   4.699  -6.329  0.00  0.00    -0.025 A 
ATOM     30  C   UNL     1       7.124   4.019  -6.486  0.00  0.00    -0.008 A 
ATOM     31  S   UNL     1       7.337   3.208  -4.915  0.00  0.00    -0.077 S 
ATOM     32  C   UNL     1       8.019   3.962  -7.697  0.00  0.00    +0.052 C 
ATOM     33  C   UNL     1       5.406   5.548  -7.437  0.00  0.00    +0.045 C 
BRANCH  28  34
ATOM     34  C   UNL     1       4.048   5.278  -4.778  0.00  0.00    +0.342 C 
ATOM     35  O   UNL     1       4.065   6.398  -4.303  0.00  0.00    -0.245 OA
BRANCH  34  36
ATOM     36  O   UNL     1       2.871   4.679  -5.050  0.00  0.00    -0.464 OA
ATOM     37  C   UNL     1       1.664   5.430  -4.750  0.00  0.00    +0.280 C 
ENDBRANCH  34  36
ENDBRANCH  28  34
ENDBRANCH  17  27
TORSDOF 3
