REMARK  Name = ZINC65987637
REMARK  7 active torsions:
REMARK  status: ('A' for Active; 'I' for Inactive)
REMARK    1  A    between atoms: C_1  and  C_2
REMARK    2  A    between atoms: C_2  and  C_3
REMARK    3  A    between atoms: C_2  and  N_12
REMARK    4  A    between atoms: N_5  and  C_6
REMARK    5  A    between atoms: C_6  and  C_7
REMARK    6  A    between atoms: N_15  and  N_16
REMARK    7  A    between atoms: C_17  and  C_19
REMARK                            x       y       z     vdW  Elec       q    Type
REMARK                         _______ _______ _______ _____ _____    ______ ____
ROOT
ATOM      1  N   UNL     1       0.711  -0.489   1.189  0.00  0.00    -0.287 N 
ATOM      2  C   UNL     1       2.054  -0.600   1.174  0.00  0.00    +0.317 C 
ATOM      3  O   UNL     1       2.677  -0.297   0.175  0.00  0.00    -0.251 OA
ATOM      4  N   UNL     1       2.706  -1.046   2.266  0.00  0.00    -0.218 N 
ATOM      5  H   UNL     1       0.213  -0.731   1.986  0.00  0.00    +0.151 HD
ATOM      6  H   UNL     1       3.672  -1.126   2.255  0.00  0.00    +0.174 HD
ENDROOT
BRANCH   4   7
ATOM      7  N   UNL     1       1.987  -1.396   3.416  0.00  0.00    -0.228 N 
ATOM      8  C   UNL     1       2.639  -1.842   4.508  0.00  0.00    +0.276 C 
ATOM      9  O   UNL     1       3.852  -1.942   4.495  0.00  0.00    -0.267 OA
ATOM     10  H   UNL     1       1.020  -1.316   3.427  0.00  0.00    +0.173 HD
BRANCH   8  11
ATOM     11  C   UNL     1       1.887  -2.208   5.713  0.00  0.00    +0.104 A 
ATOM     12  C   UNL     1       2.420  -2.671   6.897  0.00  0.00    +0.047 A 
ATOM     13  C   UNL     1       1.350  -2.892   7.771  0.00  0.00    +0.036 A 
ATOM     14  C   UNL     1       0.207  -2.568   7.119  0.00  0.00    +0.098 A 
ATOM     15  N   UNL     1       0.520  -2.146   5.869  0.00  0.00    -0.356 N 
ATOM     16  H   UNL     1      -0.113  -1.851   5.196  0.00  0.00    +0.166 HD
ATOM     17 BR   UNL     1       1.476  -3.532   9.546  0.00  0.00    -0.049 Br
ENDBRANCH   8  11
ENDBRANCH   4   7
BRANCH   1  19
ATOM     18  C   UNL     1      -0.019   1.526   0.010  0.00  0.00    +0.038 C 
ATOM     19  C   UNL     1       0.002  -0.004   0.002  0.00  0.00    +0.157 C 
BRANCH  19  20
ATOM     20  C   UNL     1      -1.412  -0.526   0.013  0.00  0.00    +0.233 C 
ATOM     21  O   UNL     1      -1.790  -1.233   0.922  0.00  0.00    -0.274 OA
ATOM     22  N   UNL     1      -2.256  -0.206  -0.988  0.00  0.00    -0.307 N 
ATOM     23  H   UNL     1      -1.953   0.360  -1.716  0.00  0.00    +0.149 HD
BRANCH  22  24
ATOM     24  C   UNL     1      -3.630  -0.713  -0.978  0.00  0.00    +0.178 C 
BRANCH  24  25
ATOM     25  C   UNL     1      -4.359  -0.214  -2.199  0.00  0.00    +0.122 A 
ATOM     26  C   UNL     1      -4.422  -0.840  -3.388  0.00  0.00    +0.046 A 
ATOM     27  C   UNL     1      -5.202  -0.024  -4.239  0.00  0.00    +0.041 A 
ATOM     28  C   UNL     1      -5.569   1.052  -3.519  0.00  0.00    +0.195 A 
ATOM     29  O   UNL     1      -5.060   0.928  -2.283  0.00  0.00    -0.466 OA
ENDBRANCH  24  25
ENDBRANCH  22  24
ENDBRANCH  19  20
ENDBRANCH   1  19
TORSDOF 6
