REMARK  Name = ZINC15230242
REMARK  7 active torsions:
REMARK  status: ('A' for Active; 'I' for Inactive)
REMARK    1  A    between atoms: C_1  and  C_2
REMARK    2  A    between atoms: C_2  and  C_4
REMARK    3  A    between atoms: C_2  and  S_10
REMARK    4  A    between atoms: S_10  and  C_11
REMARK    5  A    between atoms: C_14  and  C_23
REMARK    6  A    between atoms: N_15  and  C_16
REMARK    7  A    between atoms: C_16  and  C_17
REMARK                            x       y       z     vdW  Elec       q    Type
REMARK                         _______ _______ _______ _____ _____    ______ ____
ROOT
ATOM      1  C   UNL     1      -3.718   7.457  -0.567  0.00  0.00    +0.193 A 
ATOM      2  N   UNL     1      -2.597   8.061  -0.247  0.00  0.00    -0.122 NA
ATOM      3  N   UNL     1      -2.723   9.332  -0.386  0.00  0.00    -0.128 NA
ATOM      4  C   UNL     1      -3.937   9.620  -0.804  0.00  0.00    +0.172 A 
ATOM      5  N   UNL     1      -4.609   8.425  -0.939  0.00  0.00    -0.299 N 
ENDROOT
BRANCH   4   6
ATOM      6  C   UNL     1      -4.472  10.962  -1.082  0.00  0.00    +0.056 A 
ATOM      7  C   UNL     1      -3.797  12.147  -1.238  0.00  0.00    +0.019 A 
ATOM      8  C   UNL     1      -4.520  13.289  -1.500  0.00  0.00    +0.008 A 
ATOM      9  C   UNL     1      -5.873  13.211  -1.585  0.00  0.00    +0.046 A 
ATOM     10  S   UNL     1      -6.168  11.475  -1.297  0.00  0.00    -0.094 S 
ENDBRANCH   4   6
BRANCH   1  11
ATOM     11  S   UNL     1      -4.017   5.721  -0.531  0.00  0.00    -0.074 S 
BRANCH  11  13
ATOM     12  C   UNL     1      -2.152   5.642   1.464  0.00  0.00    +0.029 C 
ATOM     13  C   UNL     1      -2.402   5.136   0.041  0.00  0.00    +0.137 C 
BRANCH  13  14
ATOM     14  C   UNL     1      -2.382   3.629   0.033  0.00  0.00    +0.233 C 
ATOM     15  O   UNL     1      -3.423   3.009   0.035  0.00  0.00    -0.274 OA
ATOM     16  N   UNL     1      -1.206   2.971   0.024  0.00  0.00    -0.239 N 
ATOM     17  C   UNL     1      -1.187   1.624   0.017  0.00  0.00    +0.303 C 
ATOM     18  O   UNL     1      -2.232   1.002   0.018  0.00  0.00    -0.253 OA
ATOM     19  N   UNL     1      -0.011   0.966   0.007  0.00  0.00    -0.313 N 
ATOM     20  H   UNL     1      -0.372   3.468   0.023  0.00  0.00    +0.159 HD
ATOM     21  H   UNL     1       0.002  -0.004   0.002  0.00  0.00    +0.146 HD
ATOM     22  H   UNL     1       0.822   1.462   0.002  0.00  0.00    +0.146 HD
ENDBRANCH  13  14
ENDBRANCH  11  13
ENDBRANCH   1  11
BRANCH   5  23
ATOM     23  C   UNL     1      -5.992   8.233  -1.383  0.00  0.00    +0.157 C 
BRANCH  23  24
ATOM     24  C   UNL     1      -6.927   8.273  -0.173  0.00  0.00    +0.138 C 
ATOM     25  C   UNL     1      -8.401   8.125  -0.628  0.00  0.00    +0.035 C 
ATOM     26  C   UNL     1      -9.051   7.553   0.661  0.00  0.00    +0.031 C 
ATOM     27  C   UNL     1      -7.918   6.677   1.238  0.00  0.00    +0.160 C 
ATOM     28  O   UNL     1      -6.684   7.144   0.682  0.00  0.00    -0.375 OA
ENDBRANCH  23  24
ENDBRANCH   5  23
TORSDOF 6
