REMARK  Name = ZINC43365038
REMARK  9 active torsions:
REMARK  status: ('A' for Active; 'I' for Inactive)
REMARK    1  A    between atoms: C_1  and  C_2
REMARK    2  A    between atoms: C_2  and  C_3
REMARK    3  A    between atoms: C_3  and  C_5
REMARK    4  A    between atoms: C_3  and  N_24
REMARK    5  A    between atoms: C_5  and  C_7
REMARK    6  A    between atoms: C_5  and  N_13
REMARK    7  A    between atoms: C_10  and  C_12
REMARK    8  A    between atoms: C_18  and  C_20
REMARK    9  A    between atoms: N_22  and  C_23
REMARK                            x       y       z     vdW  Elec       q    Type
REMARK                         _______ _______ _______ _____ _____    ______ ____
ROOT
ATOM      1  C   UNL     1       0.621  -1.328   0.728  0.00  0.00    +0.109 C 
ENDROOT
BRANCH   1   2
ATOM      2  C   UNL     1       1.604  -1.424   1.866  0.00  0.00    +0.121 A 
ATOM      3  C   UNL     1       2.923  -1.657   1.748  0.00  0.00    +0.046 A 
ATOM      4  C   UNL     1       3.456  -1.665   3.058  0.00  0.00    +0.045 A 
ATOM      5  C   UNL     1       2.431  -1.435   3.897  0.00  0.00    +0.102 A 
ATOM      6  O   UNL     1       1.312  -1.284   3.170  0.00  0.00    -0.463 OA
ATOM      7  C   UNL     1       2.522  -1.355   5.399  0.00  0.00    +0.086 C 
ENDBRANCH   1   2
BRANCH   1   8
ATOM      8  N   UNL     1      -0.580  -2.110   1.051  0.00  0.00    -0.283 NA
ATOM      9  C   UNL     1      -1.525  -1.317   1.849  0.00  0.00    +0.086 C 
ATOM     10  C   UNL     1      -2.692  -2.204   2.289  0.00  0.00    +0.015 C 
ATOM     11  C   UNL     1      -3.391  -2.771   1.050  0.00  0.00    +0.003 C 
ATOM     12  C   UNL     1      -2.375  -3.551   0.212  0.00  0.00    +0.028 C 
ATOM     13  C   UNL     1      -1.217  -2.625  -0.168  0.00  0.00    +0.144 C 
BRANCH  13  14
ATOM     14  C   UNL     1      -0.204  -3.394  -0.976  0.00  0.00    +0.230 C 
ATOM     15  O   UNL     1       0.733  -3.930  -0.423  0.00  0.00    -0.274 OA
ATOM     16  N   UNL     1      -0.339  -3.486  -2.314  0.00  0.00    -0.317 N 
ATOM     17  C   UNL     1       0.646  -4.234  -3.100  0.00  0.00    +0.128 C 
ATOM     18  H   UNL     1      -1.088  -3.057  -2.757  0.00  0.00    +0.148 HD
ENDBRANCH  13  14
ENDBRANCH   1   8
BRANCH   1  19
ATOM     19  C   UNL     1       0.234   0.136   0.510  0.00  0.00    -0.050 C 
BRANCH  19  20
ATOM     20  N   UNL     1       1.446   0.936   0.293  0.00  0.00    +0.381 N 
ATOM     21  H   UNL     1       1.190   1.902   0.150  0.00  0.00    -0.090 HD
ATOM     22  H   UNL     1       2.046   0.864   1.101  0.00  0.00    -0.090 HD
ATOM     23  H   UNL     1       1.935   0.593  -0.520  0.00  0.00    -0.090 HD
ENDBRANCH  19  20
BRANCH  19  25
ATOM     24  C   UNL     1      -1.024   1.715  -0.962  0.00  0.00    +0.002 C 
ATOM     25  C   UNL     1      -0.676   0.246  -0.716  0.00  0.00    -0.018 C 
ENDBRANCH  19  25
ENDBRANCH   1  19
TORSDOF 6
