REMARK  Name = ZINC16923248
REMARK  7 active torsions:
REMARK  status: ('A' for Active; 'I' for Inactive)
REMARK    1  A    between atoms: C_1  and  S_2
REMARK    2  A    between atoms: S_2  and  C_3
REMARK    3  A    between atoms: N_11  and  C1*_12
REMARK    4  A    between atoms: C2*_14  and  O2*_24
REMARK    5  A    between atoms: C3*_16  and  O3*_23
REMARK    6  A    between atoms: C4*_18  and  C5*_21
REMARK    7  A    between atoms: C5*_21  and  O5*_22
REMARK                            x       y       z     vdW  Elec       q    Type
REMARK                         _______ _______ _______ _____ _____    ______ ____
ROOT
ATOM      1  C1* UNL     1       1.504   4.356   1.951  0.00  0.00    +0.252 C 
ATOM      2  C2* UNL     1       2.421   4.949   0.851  0.00  0.00    +0.195 C 
ATOM      3  C3* UNL     1       2.537   3.741  -0.118  0.00  0.00    +0.178 C 
ATOM      4  C4* UNL     1       1.145   3.085   0.008  0.00  0.00    +0.177 C 
ATOM      5  O4* UNL     1       0.576   3.513   1.251  0.00  0.00    -0.346 OA
ENDROOT
BRANCH   1  14
ATOM      6  C   UNL     1       2.394   6.112   4.532  0.00  0.00    +0.126 A 
ATOM      7  C   UNL     1       1.239   6.131   3.747  0.00  0.00    +0.122 A 
ATOM      8  C   UNL     1       0.224   7.049   4.064  0.00  0.00    +0.182 A 
ATOM      9  N   UNL     1       0.404   7.869   5.104  0.00  0.00    -0.214 NA
ATOM     10  C   UNL     1       1.509   7.816   5.815  0.00  0.00    +0.224 A 
ATOM     11  N   UNL     1       2.485   6.967   5.549  0.00  0.00    -0.227 NA
ATOM     12  N   UNL     1      -0.763   6.864   3.168  0.00  0.00    -0.216 NA
ATOM     13  C   UNL     1      -0.431   5.917   2.334  0.00  0.00    +0.204 A 
ATOM     14  N   UNL     1       0.790   5.428   2.649  0.00  0.00    -0.298 N 
BRANCH   6  16
ATOM     15  C   UNL     1       4.863   5.434   5.498  0.00  0.00    +0.091 C 
ATOM     16  S   UNL     1       3.701   4.983   4.186  0.00  0.00    -0.107 S 
ENDBRANCH   6  16
ENDBRANCH   1  14
BRANCH   3  17
ATOM     17  O3* UNL     1       2.771   4.184  -1.456  0.00  0.00    -0.386 OA
ATOM     18  H3* UNL     1       2.764   3.474  -2.113  0.00  0.00    +0.210 HD
ENDBRANCH   3  17
BRANCH   2  19
ATOM     19  O2* UNL     1       3.698   5.307   1.383  0.00  0.00    -0.385 OA
ATOM     20  H2* UNL     1       4.305   5.682   0.731  0.00  0.00    +0.210 HD
ENDBRANCH   2  19
BRANCH   4  21
ATOM     21  C5* UNL     1       1.286   1.562  -0.002  0.00  0.00    +0.190 C 
BRANCH  21  22
ATOM     22  O5* UNL     1      -0.011   0.963   0.007  0.00  0.00    -0.392 OA
ATOM     23  H5* UNL     1       0.002  -0.004   0.002  0.00  0.00    +0.210 HD
ENDBRANCH  21  22
ENDBRANCH   4  21
TORSDOF 6
