REMARK  Name = ZINC13301439
REMARK  7 active torsions:
REMARK  status: ('A' for Active; 'I' for Inactive)
REMARK    1  A    between atoms: C_1  and  C_2
REMARK    2  A    between atoms: C_2  and  O_3
REMARK    3  A    between atoms: O_3  and  C_4
REMARK    4  A    between atoms: C_4  and  C_6
REMARK    5  A    between atoms: C_7  and  C_22
REMARK    6  A    between atoms: C_12  and  C_14
REMARK    7  A    between atoms: C_19  and  O_20
REMARK                            x       y       z     vdW  Elec       q    Type
REMARK                         _______ _______ _______ _____ _____    ______ ____
ROOT
ATOM      1  C   UNL     1      -3.538   1.465  -0.032  0.00  0.00    +0.083 C 
ATOM      2  C   UNL     1      -2.559   0.578  -0.378  0.00  0.00    +0.054 C 
ATOM      3  N   UNL     1      -2.804  -0.775  -0.374  0.00  0.00    -0.268 N 
ATOM      4  C   UNL     1      -3.986  -1.312  -0.046  0.00  0.00    +0.305 C 
ATOM      5  O   UNL     1      -4.107  -2.521  -0.073  0.00  0.00    -0.252 OA
ATOM      6  N   UNL     1      -5.045  -0.561   0.311  0.00  0.00    -0.288 N 
ATOM      7  C   UNL     1      -4.895   0.903   0.341  0.00  0.00    +0.147 C 
ATOM      8  H   UNL     1      -2.081  -1.373  -0.623  0.00  0.00    +0.156 HD
ATOM      9  H   UNL     1      -5.890  -0.976   0.544  0.00  0.00    +0.151 HD
ENDROOT
BRANCH   7  10
ATOM     10  C   UNL     1      -5.920   1.494  -0.593  0.00  0.00    +0.020 A 
ATOM     11  C   UNL     1      -6.689   2.567  -0.185  0.00  0.00    +0.024 A 
ATOM     12  C   UNL     1      -7.625   3.114  -1.044  0.00  0.00    +0.018 A 
ATOM     13  C   UNL     1      -7.802   2.580  -2.309  0.00  0.00    +0.019 A 
ATOM     14  C   UNL     1      -7.039   1.504  -2.717  0.00  0.00    +0.047 A 
ATOM     15  C   UNL     1      -6.095   0.958  -1.859  0.00  0.00    +0.122 A 
ATOM     16 BR   UNL     1      -8.671   4.588  -0.487  0.00  0.00    -0.050 Br
BRANCH  15  17
ATOM     17  O   UNL     1      -5.343  -0.101  -2.260  0.00  0.00    -0.506 OA
ATOM     18  H   UNL     1      -5.771  -0.959  -2.131  0.00  0.00    +0.292 HD
ENDBRANCH  15  17
ENDBRANCH   7  10
BRANCH   2  19
ATOM     19  C   UNL     1      -1.222   1.077  -0.754  0.00  0.00    -0.003 A 
ATOM     20  C   UNL     1      -0.606   0.621  -1.922  0.00  0.00    +0.010 A 
ATOM     21  C   UNL     1       0.641   1.096  -2.271  0.00  0.00    +0.001 A 
ATOM     22  C   UNL     1       1.285   2.017  -1.464  0.00  0.00    +0.000 A 
ATOM     23  C   UNL     1       0.683   2.468  -0.302  0.00  0.00    +0.001 A 
ATOM     24  C   UNL     1      -0.563   2.002   0.059  0.00  0.00    +0.010 A 
ENDBRANCH   2  19
BRANCH   1  25
ATOM     25  C   UNL     1      -3.296   2.853  -0.027  0.00  0.00    +0.339 C 
ATOM     26  O   UNL     1      -3.157   3.442   1.029  0.00  0.00    -0.245 OA
BRANCH  25  27
ATOM     27  O   UNL     1      -3.219   3.529  -1.193  0.00  0.00    -0.462 OA
BRANCH  27  29
ATOM     28  C   UNL     1      -3.135   5.548  -2.519  0.00  0.00    +0.048 C 
ATOM     29  C   UNL     1      -3.083   4.949  -1.112  0.00  0.00    +0.229 C 
ENDBRANCH  27  29
ENDBRANCH  25  27
ENDBRANCH   1  25
TORSDOF 6
