REMARK  Name = ZINC40824469
REMARK  9 active torsions:
REMARK  status: ('A' for Active; 'I' for Inactive)
REMARK    1  A    between atoms: C_1  and  C_2
REMARK    2  A    between atoms: C_5  and  O_26
REMARK    3  A    between atoms: C_6  and  N_8
REMARK    4  A    between atoms: C_9  and  C_11
REMARK    5  A    between atoms: C_12  and  C_25
REMARK    6  A    between atoms: N_20  and  N_21
REMARK    7  A    between atoms: N_21  and  C_22
REMARK    8  A    between atoms: C_22  and  N_24
REMARK    9  A    between atoms: O_26  and  C_27
REMARK                            x       y       z     vdW  Elec       q    Type
REMARK                         _______ _______ _______ _____ _____    ______ ____
ROOT
ATOM      1  C   UNL     1       0.278  -2.873   4.825  0.00  0.00    +0.193 A 
ATOM      2  C   UNL     1       0.379  -2.321   6.072  0.00  0.00    +0.009 A 
ATOM      3  C   UNL     1       0.480  -3.393   6.967  0.00  0.00    +0.042 A 
ATOM      4  C   UNL     1       0.437  -4.553   6.230  0.00  0.00    +0.115 A 
ATOM      5  O   UNL     1       0.308  -4.220   4.947  0.00  0.00    -0.454 OA
ATOM      6  C   UNL     1       0.524  -5.924   6.851  0.00  0.00    +0.075 C 
ATOM      7  C   UNL     1       1.161  -5.814   8.239  0.00  0.00    +0.014 C 
ATOM      8  C   UNL     1       0.425  -4.774   9.090  0.00  0.00    +0.058 C 
ATOM      9  C   UNL     1       0.609  -3.410   8.442  0.00  0.00    +0.070 C 
ATOM     10  N   UNL     1       0.861  -2.340   9.130  0.00  0.00    -0.185 NA
ATOM     11  C   UNL     1       0.382  -0.854   6.414  0.00  0.00    +0.048 C 
ENDROOT
BRANCH   1  13
ATOM     12  N   UNL     1       0.052  -2.794   2.398  0.00  0.00    -0.276 N 
ATOM     13  C   UNL     1       0.151  -2.130   3.567  0.00  0.00    +0.284 C 
ATOM     14  O   UNL     1       0.134  -0.913   3.578  0.00  0.00    -0.266 OA
ATOM     15  H   UNL     1      -0.015  -3.762   2.395  0.00  0.00    +0.155 HD
BRANCH  12  21
ATOM     16  C   UNL     1       1.263   1.227  -0.158  0.00  0.00    +0.044 C 
ATOM     17  C   UNL     1       0.627  -0.137  -0.079  0.00  0.00    -0.048 A 
ATOM     18  C   UNL     1       0.040  -0.689  -1.202  0.00  0.00    +0.007 A 
ATOM     19  C   UNL     1      -0.545  -1.940  -1.136  0.00  0.00    +0.048 A 
ATOM     20  C   UNL     1      -0.544  -2.644   0.058  0.00  0.00    +0.141 A 
ATOM     21  C   UNL     1       0.048  -2.088   1.189  0.00  0.00    +0.076 A 
ATOM     22  C   UNL     1       0.638  -0.834   1.114  0.00  0.00    +0.030 A 
BRANCH  20  23
ATOM     23  O   UNL     1      -1.119  -3.874   0.124  0.00  0.00    -0.493 OA
ATOM     24  C   UNL     1      -1.707  -4.381  -1.076  0.00  0.00    +0.277 C 
ENDBRANCH  20  23
ENDBRANCH  12  21
ENDBRANCH   1  13
BRANCH  10  25
ATOM     25  N   UNL     1       0.973  -2.415  10.525  0.00  0.00    -0.218 N 
ATOM     26  H   UNL     1       0.862  -3.267  10.976  0.00  0.00    +0.176 HD
BRANCH  25  27
ATOM     27  C   UNL     1       1.235  -1.303  11.241  0.00  0.00    +0.147 C 
ATOM     28  S   UNL     1       1.371  -1.395  12.945  0.00  0.00    -0.017 S 
BRANCH  27  29
ATOM     29  N   UNL     1       1.389  -0.120  10.615  0.00  0.00    -0.339 N 
ATOM     30  H   UNL     1       1.311  -0.068   9.649  0.00  0.00    +0.144 HD
ATOM     31  H   UNL     1       1.577   0.680  11.130  0.00  0.00    +0.144 HD
ENDBRANCH  27  29
ENDBRANCH  25  27
ENDBRANCH  10  25
TORSDOF 6
