REMARK  Name = ZINC45263672
REMARK  10 active torsions:
REMARK  status: ('A' for Active; 'I' for Inactive)
REMARK    1  A    between atoms: C_1  and  C_2
REMARK    2  A    between atoms: C_2  and  O_3
REMARK    3  A    between atoms: O_3  and  C_4
REMARK    4  A    between atoms: C_4  and  C_6
REMARK    5  A    between atoms: C_7  and  C_27
REMARK    6  A    between atoms: C_8  and  C_13
REMARK    7  A    between atoms: C_11  and  C_12
REMARK    8  A    between atoms: N_15  and  N_16
REMARK    9  A    between atoms: C_17  and  C_19
REMARK   10  A    between atoms: C_24  and  O_25
REMARK                            x       y       z     vdW  Elec       q    Type
REMARK                         _______ _______ _______ _____ _____    ______ ____
ROOT
ATOM      1  C   UNL     1       1.774  -3.668   5.888  0.00  0.00    +0.277 C 
ATOM      2  O   UNL     1       0.682  -3.653   6.423  0.00  0.00    -0.267 OA
ATOM      3  N   UNL     1       2.849  -4.120   6.563  0.00  0.00    -0.229 N 
ATOM      4  H   UNL     1       3.720  -4.133   6.136  0.00  0.00    +0.173 HD
ENDROOT
BRANCH   1   7
ATOM      5  C   UNL     1       1.500  -2.373   2.473  0.00  0.00    +0.083 A 
ATOM      6  C   UNL     1       0.919  -2.714   3.716  0.00  0.00    -0.006 A 
ATOM      7  C   UNL     1       1.921  -3.194   4.506  0.00  0.00    +0.107 A 
ATOM      8  N   UNL     1       3.096  -3.157   3.786  0.00  0.00    -0.354 N 
ATOM      9  H   UNL     1       3.963  -3.443   4.112  0.00  0.00    +0.166 HD
ATOM     10  C   UNL     1       2.848  -2.670   2.560  0.00  0.00    +0.028 A 
ATOM     11  C   UNL     1       3.866  -2.475   1.467  0.00  0.00    +0.064 C 
ATOM     12  C   UNL     1      -0.532  -2.573   4.096  0.00  0.00    +0.047 C 
BRANCH   5  13
ATOM     13  C   UNL     1       0.801  -1.813   1.304  0.00  0.00    +0.341 C 
ATOM     14  O   UNL     1       0.321  -2.555   0.470  0.00  0.00    -0.245 OA
BRANCH  13  15
ATOM     15  O   UNL     1       0.693  -0.477   1.160  0.00  0.00    -0.461 OA
BRANCH  15  17
ATOM     16  C   UNL     1      -0.019   1.526   0.010  0.00  0.00    +0.048 C 
ATOM     17  C   UNL     1       0.002  -0.004   0.002  0.00  0.00    +0.229 C 
ENDBRANCH  15  17
ENDBRANCH  13  15
ENDBRANCH   5  13
ENDBRANCH   1   7
BRANCH   3  18
ATOM     18  N   UNL     1       2.709  -4.573   7.881  0.00  0.00    -0.230 N 
ATOM     19  C   UNL     1       3.784  -5.025   8.557  0.00  0.00    +0.264 C 
ATOM     20  O   UNL     1       4.876  -5.040   8.021  0.00  0.00    -0.269 OA
ATOM     21  H   UNL     1       1.838  -4.561   8.308  0.00  0.00    +0.173 HD
BRANCH  19  22
ATOM     22  C   UNL     1       3.636  -5.502   9.945  0.00  0.00    +0.081 A 
ATOM     23  C   UNL     1       2.383  -5.491  10.562  0.00  0.00    +0.032 A 
ATOM     24  C   UNL     1       2.252  -5.939  11.859  0.00  0.00    +0.019 A 
ATOM     25  C   UNL     1       3.359  -6.398  12.556  0.00  0.00    +0.019 A 
ATOM     26  C   UNL     1       4.603  -6.414  11.957  0.00  0.00    +0.047 A 
ATOM     27  C   UNL     1       4.752  -5.973  10.651  0.00  0.00    +0.129 A 
ATOM     28 BR   UNL     1       0.554  -5.924  12.693  0.00  0.00    -0.050 Br
BRANCH  27  29
ATOM     29  O   UNL     1       5.973  -5.993  10.060  0.00  0.00    -0.506 OA
ATOM     30  H   UNL     1       6.484  -5.182  10.186  0.00  0.00    +0.292 HD
ENDBRANCH  27  29
ENDBRANCH  19  22
ENDBRANCH   3  18
TORSDOF 7
