REMARK  Name = ZINC44327344
REMARK  9 active torsions:
REMARK  status: ('A' for Active; 'I' for Inactive)
REMARK    1  A    between atoms: C_1  and  O_2
REMARK    2  A    between atoms: O_2  and  C_3
REMARK    3  A    between atoms: C_7  and  C_10
REMARK    4  A    between atoms: C_8  and  O_9
REMARK    5  A    between atoms: C_10  and  C_11
REMARK    6  A    between atoms: C_11  and  C_13
REMARK    7  A    between atoms: C_11  and  N_17
REMARK    8  A    between atoms: C_13  and  O_15
REMARK    9  A    between atoms: O_15  and  C_16
REMARK                            x       y       z     vdW  Elec       q    Type
REMARK                         _______ _______ _______ _____ _____    ______ ____
ROOT
ATOM      1  C   UNL     1      -1.201  -0.638   0.010  0.00  0.00    +0.162 A 
ATOM      2  C   UNL     1      -2.374   0.100   0.019  0.00  0.00    +0.050 A 
ATOM      3  C   UNL     1      -3.597  -0.546   0.028  0.00  0.00    +0.019 A 
ATOM      4  C   UNL     1      -3.652  -1.928   0.027  0.00  0.00    +0.025 A 
ATOM      5  C   UNL     1      -2.485  -2.670   0.018  0.00  0.00    +0.011 A 
ATOM      6  C   UNL     1      -1.257  -2.028   0.003  0.00  0.00    +0.163 A 
ATOM      7 BR   UNL     1      -5.327  -2.805   0.038  0.00  0.00    -0.050 Br
ENDROOT
BRANCH   1   9
ATOM      8  C   UNL     1      -0.017   1.425   0.010  0.00  0.00    +0.277 C 
ATOM      9  O   UNL     1       0.002  -0.004   0.002  0.00  0.00    -0.491 OA
ENDBRANCH   1   9
BRANCH   6  10
ATOM     10  O   UNL     1      -0.108  -2.756  -0.012  0.00  0.00    -0.503 OA
ATOM     11  H   UNL     1       0.233  -2.971   0.867  0.00  0.00    +0.292 HD
ENDBRANCH   6  10
BRANCH   5  12
ATOM     12  C   UNL     1      -2.549  -4.176   0.017  0.00  0.00    +0.035 C 
BRANCH  12  13
ATOM     13  C   UNL     1      -2.580  -4.684  -1.426  0.00  0.00    +0.040 C 
BRANCH  13  14
ATOM     14  N   UNL     1      -1.315  -4.348  -2.091  0.00  0.00    +0.387 N 
ATOM     15  H   UNL     1      -1.189  -3.347  -2.090  0.00  0.00    -0.089 HD
ATOM     16  H   UNL     1      -0.550  -4.784  -1.598  0.00  0.00    -0.089 HD
ATOM     17  H   UNL     1      -1.336  -4.683  -3.043  0.00  0.00    -0.089 HD
ENDBRANCH  13  14
BRANCH  13  18
ATOM     18  C   UNL     1      -2.768  -6.179  -1.427  0.00  0.00    +0.292 C 
ATOM     19  O   UNL     1      -1.817  -6.907  -1.587  0.00  0.00    -0.253 OA
BRANCH  18  20
ATOM     20  O   UNL     1      -3.991  -6.703  -1.251  0.00  0.00    -0.469 OA
ATOM     21  C   UNL     1      -4.095  -8.128  -1.264  0.00  0.00    +0.280 C 
ENDBRANCH  18  20
ENDBRANCH  13  18
ENDBRANCH  12  13
ENDBRANCH   5  12
TORSDOF 7
