REMARK  Name = ZINC37367872
REMARK  5 active torsions:
REMARK  status: ('A' for Active; 'I' for Inactive)
REMARK    1  A    between atoms: C_1  and  C_2
REMARK    2  A    between atoms: C_7  and  N_8
REMARK    3  A    between atoms: N_8  and  S_9
REMARK    4  A    between atoms: S_9  and  C_12
REMARK    5  A    between atoms: C_13  and  N_20
REMARK                            x       y       z     vdW  Elec       q    Type
REMARK                         _______ _______ _______ _____ _____    ______ ____
ROOT
ATOM      1  S   UNL     1       1.053  -1.228   4.481  0.00  0.00    +0.076 S 
ATOM      2  O   UNL     1       1.036  -0.601   5.756  0.00  0.00    -0.150 OA
ATOM      3  O   UNL     1       0.829  -2.621   4.315  0.00  0.00    -0.150 OA
ENDROOT
BRANCH   1   4
ATOM      4  C   UNL     1       2.627  -0.882   3.770  0.00  0.00    +0.147 A 
ATOM      5  C   UNL     1       3.104  -1.661   2.723  0.00  0.00    +0.054 A 
ATOM      6  C   UNL     1       4.345  -1.385   2.164  0.00  0.00    +0.044 A 
ATOM      7  C   UNL     1       5.103  -0.336   2.651  0.00  0.00    +0.044 A 
ATOM      8  C   UNL     1       4.626   0.439   3.693  0.00  0.00    +0.042 A 
ATOM      9  C   UNL     1       3.387   0.169   4.249  0.00  0.00    +0.071 A 
ATOM     10 CL   UNL     1       2.789   1.148   5.552  0.00  0.00    -0.081 Cl
ATOM     11 CL   UNL     1       6.655   0.009   1.954  0.00  0.00    -0.083 Cl
BRANCH   5  12
ATOM     12  N   UNL     1       2.336  -2.720   2.234  0.00  0.00    -0.356 N 
ATOM     13  H   UNL     1       1.395  -2.781   2.458  0.00  0.00    +0.142 HD
ATOM     14  H   UNL     1       2.745  -3.396   1.670  0.00  0.00    +0.142 HD
ENDBRANCH   5  12
ENDBRANCH   1   4
BRANCH   1  15
ATOM     15  N   UNL     1      -0.083  -0.453   3.558  0.00  0.00    -0.216 N 
ATOM     16  H   UNL     1      -0.623   0.253   3.945  0.00  0.00    +0.174 HD
BRANCH  15  23
ATOM     17  C   UNL     1      -2.136  -2.322   2.940  0.00  0.00    +0.046 C 
ATOM     18  C   UNL     1      -1.253  -1.726   1.874  0.00  0.00    -0.028 A 
ATOM     19  C   UNL     1      -1.431  -2.079   0.551  0.00  0.00    +0.006 A 
ATOM     20  C   UNL     1      -0.622  -1.533  -0.428  0.00  0.00    +0.015 A 
ATOM     21  C   UNL     1       0.370  -0.630  -0.085  0.00  0.00    +0.020 A 
ATOM     22  C   UNL     1       0.554  -0.273   1.237  0.00  0.00    +0.040 A 
ATOM     23  C   UNL     1      -0.262  -0.816   2.221  0.00  0.00    +0.052 A 
ATOM     24 BR   UNL     1       1.474   0.114  -1.428  0.00  0.00    -0.050 Br
ENDBRANCH  15  23
ENDBRANCH   1  15
TORSDOF 4
