REMARK  Name = ZINC55270832
REMARK  9 active torsions:
REMARK  status: ('A' for Active; 'I' for Inactive)
REMARK    1  A    between atoms: C_1  and  C_2
REMARK    2  A    between atoms: C_2  and  C_3
REMARK    3  A    between atoms: C_2  and  C_4
REMARK    4  A    between atoms: C_2  and  N_13
REMARK    5  A    between atoms: C_4  and  N_5
REMARK    6  A    between atoms: N_5  and  C_6
REMARK    7  A    between atoms: C_14  and  C_16
REMARK    8  A    between atoms: N_21  and  C_23
REMARK    9  A    between atoms: C_23  and  C_24
REMARK                            x       y       z     vdW  Elec       q    Type
REMARK                         _______ _______ _______ _____ _____    ______ ____
ROOT
ATOM      1  N   UNL     1       0.688  -0.476  -1.203  0.00  0.00    -0.309 N 
ATOM      2  C   UNL     1       1.972  -0.132  -1.427  0.00  0.00    +0.215 C 
ATOM      3  O   UNL     1       2.559   0.569  -0.630  0.00  0.00    -0.276 OA
ATOM      4  H   UNL     1       0.218  -1.037  -1.840  0.00  0.00    +0.149 HD
ENDROOT
BRANCH   2   5
ATOM      5  C   UNL     1       2.677  -0.618  -2.667  0.00  0.00    +0.058 C 
ATOM      6  C   UNL     1       1.938  -0.110  -3.908  0.00  0.00    +0.009 C 
ATOM      7  C   UNL     1       2.706  -0.543  -5.160  0.00  0.00    -0.018 C 
ATOM      8  C   UNL     1       4.140  -0.013  -5.081  0.00  0.00    -0.078 C 
ATOM      9  N   UNL     1       4.800  -0.556  -3.888  0.00  0.00    +0.386 N 
ATOM     10  C   UNL     1       4.112  -0.087  -2.680  0.00  0.00    -0.065 C 
ATOM     11  H   UNL     1       4.773  -1.565  -3.919  0.00  0.00    -0.081 HD
BRANCH   9  12
ATOM     12  C   UNL     1       6.199  -0.108  -3.858  0.00  0.00    +0.018 C 
BRANCH  12  13
ATOM     13  C   UNL     1       6.941  -0.699  -5.029  0.00  0.00    +0.194 C 
ATOM     14  O   UNL     1       6.362  -1.422  -5.812  0.00  0.00    -0.278 OA
ATOM     15  N   UNL     1       8.248  -0.424  -5.207  0.00  0.00    -0.331 N 
ATOM     16  H   UNL     1       8.712   0.154  -4.581  0.00  0.00    +0.145 HD
ATOM     17  H   UNL     1       8.726  -0.804  -5.961  0.00  0.00    +0.145 HD
ENDBRANCH  12  13
ENDBRANCH   9  12
ENDBRANCH   2   5
BRANCH   1  19
ATOM     18  C   UNL     1      -0.019   1.526   0.010  0.00  0.00    +0.033 C 
ATOM     19  C   UNL     1       0.002  -0.004   0.002  0.00  0.00    +0.044 C 
ATOM     20  C   UNL     1       0.742  -0.511   1.242  0.00  0.00    +0.033 C 
BRANCH  19  21
ATOM     21  C   UNL     1      -1.433  -0.534   0.013  0.00  0.00    +0.126 C 
BRANCH  21  22
ATOM     22  N   UNL     1      -1.413  -1.998   0.005  0.00  0.00    -0.342 N 
ATOM     23  H   UNL     1      -0.567  -2.472  -0.006  0.00  0.00    +0.146 HD
BRANCH  22  24
ATOM     24  C   UNL     1      -2.613  -2.713   0.012  0.00  0.00    +0.029 A 
ATOM     25  C   UNL     1      -3.827  -2.036   0.022  0.00  0.00    +0.023 A 
ATOM     26  C   UNL     1      -5.012  -2.745   0.029  0.00  0.00    +0.003 A 
ATOM     27  C   UNL     1      -4.992  -4.128   0.027  0.00  0.00    +0.020 A 
ATOM     28  C   UNL     1      -3.786  -4.806   0.018  0.00  0.00    +0.043 A 
ATOM     29  C   UNL     1      -2.596  -4.102   0.005  0.00  0.00    +0.043 A 
ATOM     30 CL   UNL     1      -3.766  -6.542   0.016  0.00  0.00    -0.083 Cl
ENDBRANCH  22  24
ENDBRANCH  21  22
ENDBRANCH  19  21
ENDBRANCH   1  19
TORSDOF 7
