REMARK  Name = ZINC01160868
REMARK  5 active torsions:
REMARK  status: ('A' for Active; 'I' for Inactive)
REMARK    1  A    between atoms: C_1  and  C_2
REMARK    2  A    between atoms: C_7  and  C_16
REMARK    3  A    between atoms: C_7  and  O_20
REMARK    4  A    between atoms: C_9  and  C_11
REMARK    5  A    between atoms: C_9  and  O_15
REMARK                            x       y       z     vdW  Elec       q    Type
REMARK                         _______ _______ _______ _____ _____    ______ ____
ROOT
ATOM      1  C   UNL     1      -0.018   1.503   0.010  0.00  0.00    +0.067 C 
ATOM      2  C   UNL     1       0.002  -0.004   0.002  0.00  0.00    +0.062 A 
ATOM      3  C   UNL     1       0.008  -0.817  -1.139  0.00  0.00    +0.068 A 
ATOM      4  C   UNL     1       0.027  -2.103  -0.724  0.00  0.00    +0.123 A 
ATOM      5  N   UNL     1       0.035  -2.104   0.635  0.00  0.00    -0.210 N 
ATOM      6  N   UNL     1       0.023  -0.777   1.061  0.00  0.00    -0.172 NA
ATOM      7  C   UNL     1       0.059  -3.323   1.448  0.00  0.00    +0.261 C 
ATOM      8  C   UNL     1       0.552  -4.488   0.583  0.00  0.00    +0.133 C 
ATOM      9  C   UNL     1      -0.231  -4.527  -0.734  0.00  0.00    +0.234 C 
ATOM     10  N   UNL     1       0.037  -3.280  -1.476  0.00  0.00    -0.295 N 
ATOM     11  H   UNL     1       0.210  -3.277  -2.431  0.00  0.00    +0.150 HD
ENDROOT
BRANCH   9  12
ATOM     12  C   UNL     1       0.222  -5.728  -1.566  0.00  0.00    +0.436 C 
ATOM     13  F   UNL     1      -0.013  -6.907  -0.851  0.00  0.00    -0.166 F 
ATOM     14  F   UNL     1      -0.495  -5.761  -2.767  0.00  0.00    -0.166 F 
ATOM     15  F   UNL     1       1.589  -5.615  -1.842  0.00  0.00    -0.166 F 
ENDBRANCH   9  12
BRANCH   7  16
ATOM     16  C   UNL     1       1.006  -3.128   2.634  0.00  0.00    +0.440 C 
ATOM     17  F   UNL     1       0.561  -2.056   3.415  0.00  0.00    -0.166 F 
ATOM     18  F   UNL     1       1.028  -4.293   3.409  0.00  0.00    -0.166 F 
ATOM     19  F   UNL     1       2.295  -2.858   2.162  0.00  0.00    -0.166 F 
ENDBRANCH   7  16
BRANCH   9  20
ATOM     20  O   UNL     1      -1.629  -4.630  -0.458  0.00  0.00    -0.364 OA
ATOM     21  H   UNL     1      -2.186  -4.660  -1.248  0.00  0.00    +0.212 HD
ENDBRANCH   9  20
BRANCH   7  22
ATOM     22  O   UNL     1      -1.258  -3.606   1.926  0.00  0.00    -0.361 OA
ATOM     23  H   UNL     1      -1.636  -2.905   2.475  0.00  0.00    +0.213 HD
ENDBRANCH   7  22
TORSDOF 4
