REMARK  Name = ZINC40346595
REMARK  4 active torsions:
REMARK  status: ('A' for Active; 'I' for Inactive)
REMARK    1  A    between atoms: C_3  and  C_6
REMARK    2  A    between atoms: N_11  and  S_12
REMARK    3  A    between atoms: S_12  and  C_15
REMARK    4  A    between atoms: C_19  and  N_21
REMARK                            x       y       z     vdW  Elec       q    Type
REMARK                         _______ _______ _______ _____ _____    ______ ____
ROOT
ATOM      1  S   UNL     1       4.396   0.806   2.477  0.00  0.00    +0.061 S 
ATOM      2  O   UNL     1       5.661   0.424   2.999  0.00  0.00    -0.153 OA
ATOM      3  O   UNL     1       3.693   1.949   2.944  0.00  0.00    -0.153 OA
ENDROOT
BRANCH   1   4
ATOM      4  C   UNL     1       3.322  -0.572   2.701  0.00  0.00    +0.107 A 
ATOM      5  C   UNL     1       1.954  -0.379   2.756  0.00  0.00    +0.031 A 
ATOM      6  C   UNL     1       1.106  -1.458   2.931  0.00  0.00    +0.042 A 
ATOM      7  C   UNL     1       1.625  -2.734   3.052  0.00  0.00    +0.144 A 
ATOM      8  C   UNL     1       3.001  -2.930   2.997  0.00  0.00    +0.062 A 
ATOM      9  C   UNL     1       3.847  -1.845   2.815  0.00  0.00    +0.054 A 
ATOM     10  F   UNL     1       0.797  -3.787   3.224  0.00  0.00    -0.204 F 
BRANCH   8  11
ATOM     11  N   UNL     1       3.530  -4.219   3.119  0.00  0.00    -0.356 N 
ATOM     12  H   UNL     1       2.937  -4.977   3.242  0.00  0.00    +0.142 HD
ATOM     13  H   UNL     1       4.490  -4.355   3.080  0.00  0.00    +0.142 HD
ENDBRANCH   8  11
ENDBRANCH   1   4
BRANCH   1  18
ATOM     14  C   UNL     1       3.761   1.845  -0.024  0.00  0.00    +0.116 C 
ATOM     15  C   UNL     1       4.340   1.753  -1.452  0.00  0.00    +0.027 C 
ATOM     16  C   UNL     1       5.809   1.318  -1.203  0.00  0.00    +0.019 C 
ATOM     17  C   UNL     1       5.652   0.381   0.021  0.00  0.00    +0.110 C 
ATOM     18  N   UNL     1       4.600   1.009   0.846  0.00  0.00    -0.169 NA
BRANCH  14  21
ATOM     19  C   UNL     1      -0.016   1.351   0.009  0.00  0.00    +0.008 A 
ATOM     20  C   UNL     1       1.183   2.038   0.002  0.00  0.00    +0.013 A 
ATOM     21  C   UNL     1       2.343   1.336  -0.013  0.00  0.00    +0.009 A 
ATOM     22  S   UNL     1       1.754  -0.349  -0.017  0.00  0.00    -0.100 S 
ATOM     23  C   UNL     1       0.002  -0.004   0.002  0.00  0.00    +0.045 A 
ENDBRANCH  14  21
ENDBRANCH   1  18
TORSDOF 4
