REMARK  Name = ZINC37494739
REMARK  3 active torsions:
REMARK  status: ('A' for Active; 'I' for Inactive)
REMARK    1  A    between atoms: C_6  and  C_7
REMARK    2  A    between atoms: N_9  and  C_10
REMARK    3  A    between atoms: C_11  and  C_19
REMARK                            x       y       z     vdW  Elec       q    Type
REMARK                         _______ _______ _______ _____ _____    ______ ____
ROOT
ATOM      1  C   UNL     1      -1.169  -0.886   0.009  0.00  0.00    +0.265 C 
ATOM      2  O   UNL     1      -2.289  -0.411   0.023  0.00  0.00    -0.268 OA
ATOM      3  N   UNL     1      -1.004  -2.224   0.000  0.00  0.00    -0.274 N 
ATOM      4  H   UNL     1      -0.111  -2.603  -0.011  0.00  0.00    +0.156 HD
ENDROOT
BRANCH   3   5
ATOM      5  C   UNL     1      -2.112  -3.059   0.007  0.00  0.00    +0.090 A 
ATOM      6  C   UNL     1      -2.134  -4.444   0.006  0.00  0.00    +0.084 A 
ATOM      7  C   UNL     1      -3.436  -5.088   0.015  0.00  0.00    -0.018 A 
ATOM      8  C   UNL     1      -4.477  -4.227   0.023  0.00  0.00    -0.004 A 
ATOM      9  S   UNL     1      -3.733  -2.623   0.026  0.00  0.00    -0.077 S 
ATOM     10  C   UNL     1      -5.933  -4.577   0.032  0.00  0.00    +0.043 C 
ATOM     11  C   UNL     1      -6.075  -6.058  -0.351  0.00  0.00    +0.005 C 
ATOM     12  C   UNL     1      -5.085  -6.881   0.477  0.00  0.00    +0.005 C 
ATOM     13  C   UNL     1      -3.654  -6.593   0.016  0.00  0.00    +0.037 C 
BRANCH   6  14
ATOM     14  C   UNL     1      -0.924  -5.210  -0.005  0.00  0.00    +0.102 C 
ATOM     15  N   UNL     1       0.036  -5.817  -0.013  0.00  0.00    -0.191 NA
ENDBRANCH   6  14
ENDBRANCH   3   5
BRANCH   1  21
ATOM     16  C   UNL     1      -0.017   1.375   0.010  0.00  0.00    +0.047 A 
ATOM     17  C   UNL     1       1.315   1.804  -0.001  0.00  0.00    +0.036 A 
ATOM     18  C   UNL     1       2.106   0.704  -0.014  0.00  0.00    +0.098 A 
ATOM     19  N   UNL     1       1.320  -0.401  -0.013  0.00  0.00    -0.356 N 
ATOM     20  H   UNL     1       1.634  -1.319  -0.021  0.00  0.00    +0.165 HD
ATOM     21  C   UNL     1       0.002  -0.004   0.002  0.00  0.00    +0.103 A 
ATOM     22 BR   UNL     1       1.905   3.601   0.003  0.00  0.00    -0.049 Br
ENDBRANCH   1  21
TORSDOF 3
