REMARK  Name = ZINC35523107
REMARK  7 active torsions:
REMARK  status: ('A' for Active; 'I' for Inactive)
REMARK    1  A    between atoms: C_1  and  C_2
REMARK    2  A    between atoms: C_5  and  C_8
REMARK    3  A    between atoms: N_17  and  C_18
REMARK    4  A    between atoms: C_18  and  C_19
REMARK    5  A    between atoms: N_21  and  C_22
REMARK    6  A    between atoms: C_22  and  C_23
REMARK    7  A    between atoms: C_22  and  C_29
REMARK                            x       y       z     vdW  Elec       q    Type
REMARK                         _______ _______ _______ _____ _____    ______ ____
ROOT
ATOM      1  C   UNL     1      -2.211  -4.500   0.727  0.00  0.00    +0.020 C 
ENDROOT
BRANCH   1  10
ATOM      2  C   UNL     1       0.059  -4.275  -0.021  0.00  0.00    +0.011 C 
ATOM      3  C   UNL     1       1.464  -4.768   0.230  0.00  0.00    +0.009 A 
ATOM      4  C   UNL     1       2.610  -4.316  -0.298  0.00  0.00    +0.021 A 
ATOM      5  C   UNL     1       3.657  -5.090   0.246  0.00  0.00    +0.019 A 
ATOM      6  C   UNL     1       3.103  -5.989   1.088  0.00  0.00    +0.086 A 
ATOM      7  N   UNL     1       1.759  -5.800   1.082  0.00  0.00    -0.353 N 
ATOM      8  C   UNL     1       0.734  -6.540   1.829  0.00  0.00    +0.103 C 
ATOM      9  C   UNL     1      -0.627  -6.242   1.189  0.00  0.00    -0.055 C 
ATOM     10  N   UNL     1      -0.808  -4.790   1.052  0.00  0.00    +0.395 N 
ATOM     11  H   UNL     1      -0.567  -4.339   1.922  0.00  0.00    -0.080 HD
BRANCH   2  16
ATOM     12  C   UNL     1      -0.018   1.503   0.010  0.00  0.00    +0.044 C 
ATOM     13  C   UNL     1       0.002  -0.004   0.002  0.00  0.00    -0.050 A 
ATOM     14  C   UNL     1       0.006  -0.689  -1.199  0.00  0.00    +0.003 A 
ATOM     15  C   UNL     1       0.025  -2.071  -1.206  0.00  0.00    +0.002 A 
ATOM     16  C   UNL     1       0.040  -2.768  -0.013  0.00  0.00    -0.055 A 
ATOM     17  C   UNL     1       0.037  -2.084   1.188  0.00  0.00    +0.002 A 
ATOM     18  C   UNL     1       0.023  -0.702   1.195  0.00  0.00    +0.003 A 
ENDBRANCH   2  16
ENDBRANCH   1  10
BRANCH   1  19
ATOM     19  C   UNL     1      -3.089  -4.915   1.879  0.00  0.00    +0.197 C 
ATOM     20  O   UNL     1      -2.595  -5.403   2.873  0.00  0.00    -0.278 OA
ATOM     21  N   UNL     1      -4.424  -4.742   1.804  0.00  0.00    -0.306 N 
ATOM     22  H   UNL     1      -4.819  -4.352   1.009  0.00  0.00    +0.150 HD
BRANCH  21  23
ATOM     23  C   UNL     1      -5.278  -5.146   2.924  0.00  0.00    +0.133 C 
BRANCH  23  24
ATOM     24  C   UNL     1      -6.553  -4.342   2.898  0.00  0.00    -0.023 A 
ATOM     25  C   UNL     1      -7.176  -4.074   1.694  0.00  0.00    +0.006 A 
ATOM     26  C   UNL     1      -8.346  -3.337   1.670  0.00  0.00    +0.000 A 
ATOM     27  C   UNL     1      -8.892  -2.869   2.851  0.00  0.00    +0.000 A 
ATOM     28  C   UNL     1      -8.268  -3.137   4.055  0.00  0.00    +0.000 A 
ATOM     29  C   UNL     1      -7.101  -3.878   4.079  0.00  0.00    +0.006 A 
ENDBRANCH  23  24
BRANCH  23  30
ATOM     30  C   UNL     1      -5.606  -6.612   2.804  0.00  0.00    -0.023 A 
ATOM     31  C   UNL     1      -5.879  -7.159   1.565  0.00  0.00    +0.006 A 
ATOM     32  C   UNL     1      -6.179  -8.504   1.454  0.00  0.00    +0.000 A 
ATOM     33  C   UNL     1      -6.207  -9.301   2.583  0.00  0.00    +0.000 A 
ATOM     34  C   UNL     1      -5.933  -8.754   3.822  0.00  0.00    +0.000 A 
ATOM     35  C   UNL     1      -5.628  -7.410   3.932  0.00  0.00    +0.006 A 
ENDBRANCH  23  30
ENDBRANCH  21  23
ENDBRANCH   1  19
TORSDOF 6
