REMARK  Name = ZINC00442994
REMARK  4 active torsions:
REMARK  status: ('A' for Active; 'I' for Inactive)
REMARK    1  A    between atoms: C_3  and  S_8
REMARK    2  A    between atoms: S_8  and  N_11
REMARK    3  A    between atoms: N_11  and  C_12
REMARK    4  A    between atoms: C_15  and  O_19
REMARK                            x       y       z     vdW  Elec       q    Type
REMARK                         _______ _______ _______ _____ _____    ______ ____
ROOT
ATOM      1  N   UNL     1      -0.006   1.652   0.004  0.00  0.00    -0.216 N 
ATOM      2  H   UNL     1       0.381   2.123  -0.750  0.00  0.00    +0.174 HD
ENDROOT
BRANCH   1   3
ATOM      3  C   UNL     1      -0.634   2.368   1.029  0.00  0.00    +0.050 A 
ATOM      4  C   UNL     1      -1.861   1.944   1.522  0.00  0.00    +0.028 A 
ATOM      5  C   UNL     1      -2.478   2.648   2.537  0.00  0.00    +0.049 A 
ATOM      6  C   UNL     1      -1.878   3.785   3.057  0.00  0.00    +0.135 A 
ATOM      7  C   UNL     1      -0.655   4.214   2.562  0.00  0.00    +0.084 A 
ATOM      8  C   UNL     1      -0.034   3.507   1.549  0.00  0.00    +0.048 A 
ATOM      9 CL   UNL     1       0.095   5.638   3.212  0.00  0.00    -0.080 Cl
BRANCH   6  10
ATOM     10  O   UNL     1      -2.489   4.481   4.054  0.00  0.00    -0.505 OA
ATOM     11  H   UNL     1      -3.083   5.177   3.740  0.00  0.00    +0.292 HD
ENDBRANCH   6  10
ENDBRANCH   1   3
BRANCH   1  12
ATOM     12  S   UNL     1       0.081  -0.000   0.082  0.00  0.00    +0.072 S 
ATOM     13  O   UNL     1      -1.238  -0.465   0.337  0.00  0.00    -0.150 OA
ATOM     14  O   UNL     1       0.831  -0.421  -1.049  0.00  0.00    -0.150 OA
BRANCH  12  17
ATOM     15  C   UNL     1       1.166  -1.016   3.814  0.00  0.00    +0.040 A 
ATOM     16  C   UNL     1       0.414  -0.698   2.699  0.00  0.00    +0.031 A 
ATOM     17  C   UNL     1       1.041  -0.405   1.502  0.00  0.00    +0.109 A 
ATOM     18  C   UNL     1       2.420  -0.436   1.418  0.00  0.00    +0.031 A 
ATOM     19  C   UNL     1       3.175  -0.748   2.533  0.00  0.00    +0.040 A 
ATOM     20  C   UNL     1       2.548  -1.042   3.732  0.00  0.00    +0.124 A 
ATOM     21  F   UNL     1       3.284  -1.352   4.822  0.00  0.00    -0.205 F 
ENDBRANCH  12  17
ENDBRANCH   1  12
TORSDOF 4
