REMARK  Name = ZINC49990632
REMARK  7 active torsions:
REMARK  status: ('A' for Active; 'I' for Inactive)
REMARK    1  A    between atoms: C_1  and  C_2
REMARK    2  A    between atoms: C_4  and  C_16
REMARK    3  A    between atoms: C_6  and  N_8
REMARK    4  A    between atoms: N_8  and  C_9
REMARK    5  A    between atoms: C_10  and  C_12
REMARK    6  A    between atoms: C_12  and  C_13
REMARK    7  A    between atoms: C_13  and  N_15
REMARK                            x       y       z     vdW  Elec       q    Type
REMARK                         _______ _______ _______ _____ _____    ______ ____
ROOT
ATOM      1  N   UNL     1       0.095  -2.859   2.368  0.00  0.00    -0.274 N 
ATOM      2  C   UNL     1       1.239  -2.747   3.276  0.00  0.00    +0.138 C 
ATOM      3  C   UNL     1      -0.967  -3.615   2.712  0.00  0.00    +0.226 C 
ATOM      4  O   UNL     1      -1.873  -3.782   1.923  0.00  0.00    -0.275 OA
ENDROOT
BRANCH   1  10
ATOM      5  C   UNL     1       0.085   1.379  -0.124  0.00  0.00    +0.044 C 
ATOM      6  C   UNL     1       0.099  -0.128  -0.093  0.00  0.00    -0.048 A 
ATOM      7  C   UNL     1       0.122  -0.843  -1.277  0.00  0.00    +0.006 A 
ATOM      8  C   UNL     1       0.136  -2.225  -1.253  0.00  0.00    -0.048 A 
ATOM      9  C   UNL     1       0.127  -2.897  -0.046  0.00  0.00    +0.027 A 
ATOM     10  C   UNL     1       0.104  -2.182   1.144  0.00  0.00    +0.036 A 
ATOM     11  C   UNL     1       0.096  -0.793   1.117  0.00  0.00    +0.027 A 
ATOM     12  C   UNL     1       0.160  -3.000  -2.546  0.00  0.00    +0.044 C 
ENDBRANCH   1  10
BRANCH   3  13
ATOM     13  C   UNL     1      -1.029  -4.252   4.077  0.00  0.00    +0.154 C 
BRANCH  13  14
ATOM     14  C   UNL     1      -2.232  -5.156   4.155  0.00  0.00    +0.055 C 
ATOM     15  S   UNL     1      -3.291  -5.184   2.958  0.00  0.00    -0.040 S 
BRANCH  14  16
ATOM     16  N   UNL     1      -2.415  -5.942   5.235  0.00  0.00    -0.355 N 
ATOM     17  H   UNL     1      -1.772  -5.925   5.961  0.00  0.00    +0.143 HD
ATOM     18  H   UNL     1      -3.189  -6.524   5.285  0.00  0.00    +0.143 HD
ENDBRANCH  14  16
ENDBRANCH  13  14
ENDBRANCH   3  13
TORSDOF 4
