REMARK  Name = ZINC40752476
REMARK  11 active torsions:
REMARK  status: ('A' for Active; 'I' for Inactive)
REMARK    1  A    between atoms: C_1  and  C_2
REMARK    2  A    between atoms: C_2  and  O_3
REMARK    3  A    between atoms: O_3  and  C_4
REMARK    4  A    between atoms: C_4  and  C_6
REMARK    5  A    between atoms: C_13  and  N_29
REMARK    6  A    between atoms: C_14  and  N_18
REMARK    7  A    between atoms: N_18  and  C_19
REMARK    8  A    between atoms: C_21  and  C_27
REMARK    9  A    between atoms: C_21  and  C_28
REMARK   10  A    between atoms: C_23  and  C_25
REMARK   11  A    between atoms: C_23  and  C_26
REMARK                            x       y       z     vdW  Elec       q    Type
REMARK                         _______ _______ _______ _____ _____    ______ ____
ROOT
ATOM      1  C   UNL     1       1.540  -1.349   4.268  0.00  0.00    +0.101 C 
ATOM      2  C   UNL     1       2.486  -1.810   5.379  0.00  0.00    +0.033 C 
ATOM      3  C   UNL     1       2.565  -3.340   5.374  0.00  0.00    +0.107 C 
ATOM      4  N   UNL     1       1.204  -3.885   5.475  0.00  0.00    -0.314 N 
ATOM      5  C   UNL     1       0.191  -3.437   4.510  0.00  0.00    +0.107 C 
ATOM      6  C   UNL     1       0.138  -1.906   4.524  0.00  0.00    +0.033 C 
ATOM      7  C   UNL     1       0.882  -4.806   6.465  0.00  0.00    +0.147 A 
ATOM      8  C   UNL     1       0.946  -6.176   6.205  0.00  0.00    +0.105 A 
ATOM      9  C   UNL     1       0.612  -7.058   7.234  0.00  0.00    +0.145 A 
ATOM     10  N   UNL     1       0.248  -6.563   8.415  0.00  0.00    -0.219 NA
ATOM     11  C   UNL     1       0.200  -5.262   8.618  0.00  0.00    +0.225 A 
ATOM     12  N   UNL     1       0.512  -4.396   7.675  0.00  0.00    -0.219 NA
ENDROOT
BRANCH   8  13
ATOM     13  N   UNL     1       1.336  -6.654   4.943  0.00  0.00    -0.353 N 
ATOM     14  H   UNL     1       1.646  -6.035   4.265  0.00  0.00    +0.143 HD
ATOM     15  H   UNL     1       1.294  -7.604   4.750  0.00  0.00    +0.143 HD
ENDBRANCH   8  13
BRANCH   1  16
ATOM     16  C   UNL     1       1.486   0.157   4.248  0.00  0.00    +0.310 C 
ATOM     17  O   UNL     1       0.434   0.726   4.421  0.00  0.00    -0.251 OA
BRANCH  16  18
ATOM     18  O   UNL     1       2.606   0.866   4.037  0.00  0.00    -0.465 OA
BRANCH  18  20
ATOM     19  C   UNL     1       3.852   2.921   3.779  0.00  0.00    +0.048 C 
ATOM     20  C   UNL     1       2.481   2.290   4.031  0.00  0.00    +0.229 C 
ENDBRANCH  18  20
ENDBRANCH  16  18
ENDBRANCH   1  16
BRANCH   9  21
ATOM     21  N   UNL     1       0.659  -8.432   7.029  0.00  0.00    -0.325 N 
ATOM     22  H   UNL     1       0.925  -8.785   6.166  0.00  0.00    +0.148 HD
BRANCH  21  23
ATOM     23  C   UNL     1       0.305  -9.349   8.120  0.00  0.00    +0.069 C 
ATOM     24  C   UNL     1       1.546  -9.617   8.974  0.00  0.00    +0.009 C 
ATOM     25  C   UNL     1       1.197 -10.581  10.107  0.00  0.00    -0.072 C 
ATOM     26  N   UNL     1       0.583 -11.806   9.616  0.00  0.00    +0.386 N 
ATOM     27  C   UNL     1      -0.482 -11.680   8.633  0.00  0.00    -0.072 C 
ATOM     28  C   UNL     1      -0.166 -10.678   7.528  0.00  0.00    +0.009 C 
ATOM     29  C   UNL     1      -1.820 -11.330   9.289  0.00  0.00    -0.010 C 
ATOM     30  C   UNL     1      -0.658 -13.063   7.961  0.00  0.00    -0.010 C 
ATOM     31  C   UNL     1       0.327  -9.879  11.149  0.00  0.00    -0.010 C 
ATOM     32  C   UNL     1       2.522 -10.970  10.803  0.00  0.00    -0.010 C 
ATOM     33  H   UNL     1       1.318 -12.396   9.220  0.00  0.00    -0.084 HD
ATOM     34  H   UNL     1       0.222 -12.328  10.418  0.00  0.00    -0.084 HD
ENDBRANCH  21  23
ENDBRANCH   9  21
TORSDOF 6
