REMARK  Name = ZINC02041697
REMARK  2 active torsions:
REMARK  status: ('A' for Active; 'I' for Inactive)
REMARK    1  A    between atoms: C_10  and  C_13
REMARK    2  A    between atoms: C_16  and  O_19
REMARK                            x       y       z     vdW  Elec       q    Type
REMARK                         _______ _______ _______ _____ _____    ______ ____
ROOT
ATOM      1  C   UNL     1       1.208  -0.688  -0.014  0.00  0.00    +0.001 A 
ATOM      2  C   UNL     1       0.002  -0.004   0.002  0.00  0.00    +0.001 A 
ATOM      3  C   UNL     1      -0.017   1.373   0.010  0.00  0.00    +0.015 A 
ATOM      4  C   UNL     1       1.177   2.093   0.002  0.00  0.00    +0.026 A 
ATOM      5  C   UNL     1       2.397   1.405  -0.006  0.00  0.00    +0.073 A 
ATOM      6  C   UNL     1       2.398   0.003  -0.018  0.00  0.00    +0.016 A 
ATOM      7  C   UNL     1       3.686   2.114   0.003  0.00  0.00    +0.342 C 
ATOM      8  O   UNL     1       4.713   1.496   0.201  0.00  0.00    -0.245 OA
ATOM      9  O   UNL     1       3.736   3.445  -0.209  0.00  0.00    -0.442 OA
ATOM     10  C   UNL     1       2.791   4.233   0.573  0.00  0.00    +0.269 C 
ATOM     11  S   UNL     1       1.117   3.853  -0.002  0.00  0.00    -0.076 S 
ENDROOT
BRANCH  10  12
ATOM     12  C   UNL     1       3.073   5.701   0.380  0.00  0.00    +0.004 A 
ATOM     13  C   UNL     1       3.030   6.251  -0.888  0.00  0.00    +0.012 A 
ATOM     14  C   UNL     1       3.282   7.598  -1.067  0.00  0.00    +0.046 A 
ATOM     15  C   UNL     1       3.591   8.395   0.026  0.00  0.00    +0.117 A 
ATOM     16  C   UNL     1       3.640   7.840   1.296  0.00  0.00    +0.046 A 
ATOM     17  C   UNL     1       3.380   6.494   1.470  0.00  0.00    +0.012 A 
BRANCH  15  18
ATOM     18  O   UNL     1       3.846   9.719  -0.148  0.00  0.00    -0.507 OA
ATOM     19  H   UNL     1       4.778   9.922  -0.310  0.00  0.00    +0.292 HD
ENDBRANCH  15  18
ENDBRANCH  10  12
TORSDOF 2
