REMARK  Name = ZINC44783060
REMARK  8 active torsions:
REMARK  status: ('A' for Active; 'I' for Inactive)
REMARK    1  A    between atoms: C_1  and  C_2
REMARK    2  A    between atoms: C_2  and  C_3
REMARK    3  A    between atoms: C_3  and  C_4
REMARK    4  A    between atoms: C_3  and  C_6
REMARK    5  A    between atoms: C_3  and  C_10
REMARK    6  A    between atoms: C_4  and  C_5
REMARK    7  A    between atoms: N_7  and  O_8
REMARK    8  A    between atoms: N_12  and  C_13
REMARK                            x       y       z     vdW  Elec       q    Type
REMARK                         _______ _______ _______ _____ _____    ______ ____
ROOT
ATOM      1  C   UNL     1       2.363  -0.731  -1.952  0.00  0.00    +0.231 C 
ATOM      2  O   UNL     1       2.748  -0.613  -3.096  0.00  0.00    -0.274 OA
ATOM      3  N   UNL     1       3.242  -0.655  -0.933  0.00  0.00    -0.282 N 
ATOM      4  H   UNL     1       2.942  -0.793  -0.021  0.00  0.00    +0.155 HD
ENDROOT
BRANCH   3   5
ATOM      5  C   UNL     1       4.591  -0.378  -1.192  0.00  0.00    +0.071 A 
ATOM      6  C   UNL     1       4.936   0.593  -2.124  0.00  0.00    +0.065 A 
ATOM      7  C   UNL     1       6.267   0.864  -2.377  0.00  0.00    +0.037 A 
ATOM      8  C   UNL     1       7.256   0.170  -1.702  0.00  0.00    +0.021 A 
ATOM      9  C   UNL     1       6.916  -0.797  -0.773  0.00  0.00    +0.037 A 
ATOM     10  C   UNL     1       5.586  -1.069  -0.512  0.00  0.00    +0.065 A 
ATOM     11 CL   UNL     1       5.160  -2.277   0.660  0.00  0.00    -0.082 Cl
ATOM     12 BR   UNL     1       9.076   0.545  -2.051  0.00  0.00    -0.050 Br
ATOM     13 CL   UNL     1       3.695   1.463  -2.971  0.00  0.00    -0.082 Cl
ENDBRANCH   3   5
BRANCH   1  14
ATOM     14  C   UNL     1       0.901  -0.964  -1.669  0.00  0.00    +0.105 C 
BRANCH  14  15
ATOM     15  C   UNL     1       0.139  -1.007  -2.968  0.00  0.00    +0.147 C 
ATOM     16  N   UNL     1      -0.874  -0.226  -3.150  0.00  0.00    -0.076 NA
ATOM     17  N   UNL     1       0.522  -1.880  -3.963  0.00  0.00    -0.343 N 
ATOM     18  H   UNL     1       1.316  -2.425  -3.850  0.00  0.00    +0.144 HD
ATOM     19  H   UNL     1      -0.002  -1.949  -4.776  0.00  0.00    +0.144 HD
BRANCH  16  20
ATOM     20  O   UNL     1      -1.590  -0.267  -4.370  0.00  0.00    -0.408 OA
ATOM     21  H   UNL     1      -2.331   0.353  -4.413  0.00  0.00    +0.328 HD
ENDBRANCH  16  20
ENDBRANCH  14  15
BRANCH  14  23
ATOM     22  C   UNL     1       0.534   1.504  -1.536  0.00  0.00    +0.005 C 
ATOM     23  C   UNL     1       0.362   0.174  -0.799  0.00  0.00    +0.020 C 
ENDBRANCH  14  23
BRANCH  14  24
ATOM     24  C   UNL     1       0.729  -2.294  -0.932  0.00  0.00    +0.020 C 
ATOM     25  C   UNL     1      -0.761  -2.590  -0.755  0.00  0.00    +0.005 C 
ENDBRANCH  14  24
ENDBRANCH   1  14
TORSDOF 6
