REMARK  Name = ZINC06589079
REMARK  3 active torsions:
REMARK  status: ('A' for Active; 'I' for Inactive)
REMARK    1  A    between atoms: N_13  and  C_17
REMARK    2  A    between atoms: C_17  and  C_18
REMARK    3  A    between atoms: C_18  and  C_20
REMARK                            x       y       z     vdW  Elec       q    Type
REMARK                         _______ _______ _______ _____ _____    ______ ____
ROOT
ATOM      1  C   UNL     1       7.579  -7.135   1.780  0.00  0.00    +0.000 A 
ATOM      2  C   UNL     1       7.460  -6.214   0.754  0.00  0.00    +0.000 A 
ATOM      3  C   UNL     1       6.212  -5.765   0.378  0.00  0.00    +0.006 A 
ATOM      4  C   UNL     1       5.071  -6.230   1.020  0.00  0.00    -0.012 A 
ATOM      5  C   UNL     1       5.189  -7.151   2.038  0.00  0.00    -0.042 A 
ATOM      6  C   UNL     1       6.447  -7.600   2.417  0.00  0.00    +0.004 A 
ATOM      7  C   UNL     1       3.994  -7.707   2.767  0.00  0.00    +0.035 C 
ATOM      8  C   UNL     1       2.769  -6.820   2.555  0.00  0.00    +0.008 C 
ATOM      9  C   UNL     1       2.596  -6.582   1.050  0.00  0.00    +0.040 C 
ATOM     10  C   UNL     1       3.740  -5.698   0.569  0.00  0.00    +0.138 C 
ATOM     11  C   UNL     1       3.555  -4.280   1.062  0.00  0.00    +0.251 C 
ATOM     12  O   UNL     1       3.519  -3.903   2.213  0.00  0.00    -0.272 OA
ATOM     13  N   UNL     1       3.435  -3.525  -0.049  0.00  0.00    -0.216 N 
ATOM     14  C   UNL     1       3.528  -4.264  -1.161  0.00  0.00    +0.310 C 
ATOM     15  O   UNL     1       3.456  -3.807  -2.284  0.00  0.00    -0.252 OA
ATOM     16  N   UNL     1       3.710  -5.572  -0.894  0.00  0.00    -0.281 N 
ATOM     17  H   UNL     1       3.803  -6.288  -1.541  0.00  0.00    +0.152 HD
ENDROOT
BRANCH  13  18
ATOM     18  C   UNL     1       3.235  -2.073  -0.040  0.00  0.00    +0.199 C 
BRANCH  18  19
ATOM     19  C   UNL     1       1.759  -1.770  -0.024  0.00  0.00    +0.197 C 
ATOM     20  O   UNL     1       0.953  -2.678  -0.021  0.00  0.00    -0.289 OA
BRANCH  19  21
ATOM     21  C   UNL     1       1.314  -0.428  -0.013  0.00  0.00    +0.084 A 
ATOM     22  C   UNL     1       2.114   0.701  -0.014  0.00  0.00    +0.030 A 
ATOM     23  C   UNL     1       1.260   1.805  -0.000  0.00  0.00    +0.020 A 
ATOM     24  C   UNL     1      -0.016   1.345   0.009  0.00  0.00    +0.083 A 
ATOM     25  N   UNL     1       0.002  -0.004   0.002  0.00  0.00    -0.358 N 
ATOM     26  H   UNL     1      -0.778  -0.580   0.006  0.00  0.00    +0.165 HD
ENDBRANCH  19  21
ENDBRANCH  18  19
ENDBRANCH  13  18
TORSDOF 3
