REMARK  Name = ZINC08855660
REMARK  5 active torsions:
REMARK  status: ('A' for Active; 'I' for Inactive)
REMARK    1  A    between atoms: C_1  and  C_2
REMARK    2  A    between atoms: C_14  and  C_16
REMARK    3  A    between atoms: C_16  and  N_17
REMARK    4  A    between atoms: C_20  and  C_24
REMARK    5  A    between atoms: C_20  and  C_25
REMARK                            x       y       z     vdW  Elec       q    Type
REMARK                         _______ _______ _______ _____ _____    ______ ____
ROOT
ATOM      1  N   UNL     1       4.006   3.619   3.257  0.00  0.00    -0.215 N 
ATOM      2  C   UNL     1       4.949   3.134   4.088  0.00  0.00    +0.251 C 
ATOM      3  O   UNL     1       5.351   1.992   4.152  0.00  0.00    -0.272 OA
ATOM      4  C   UNL     1       5.404   4.313   4.925  0.00  0.00    +0.135 C 
ATOM      5  N   UNL     1       4.582   5.429   4.426  0.00  0.00    -0.281 N 
ATOM      6  C   UNL     1       3.799   4.926   3.455  0.00  0.00    +0.310 C 
ATOM      7  O   UNL     1       2.993   5.585   2.828  0.00  0.00    -0.252 OA
ATOM      8  C   UNL     1       6.891   4.596   4.700  0.00  0.00    +0.047 C 
ATOM      9  H   UNL     1       4.603   6.348   4.737  0.00  0.00    +0.152 HD
ENDROOT
BRANCH   4  10
ATOM     10  C   UNL     1       5.126   4.061   6.384  0.00  0.00    -0.015 A 
ATOM     11  C   UNL     1       5.221   2.779   6.894  0.00  0.00    +0.007 A 
ATOM     12  C   UNL     1       4.972   2.549   8.234  0.00  0.00    +0.020 A 
ATOM     13  C   UNL     1       4.616   3.598   9.062  0.00  0.00    +0.041 A 
ATOM     14  C   UNL     1       4.516   4.880   8.550  0.00  0.00    +0.020 A 
ATOM     15  C   UNL     1       4.771   5.110   7.212  0.00  0.00    +0.007 A 
ATOM     16 CL   UNL     1       4.297   3.308  10.744  0.00  0.00    -0.084 Cl
ENDBRANCH   4  10
BRANCH   1  17
ATOM     17  C   UNL     1       3.292   2.814   2.263  0.00  0.00    +0.214 C 
BRANCH  17  30
ATOM     18  C   UNL     1       5.810  -1.341  -1.874  0.00  0.00    +0.019 C 
ATOM     19  C   UNL     1       4.704  -0.339  -1.536  0.00  0.00    +0.050 C 
ATOM     20  C   UNL     1       5.295   1.061  -1.470  0.00  0.00    +0.033 C 
ATOM     21  C   UNL     1       4.292   2.182  -1.390  0.00  0.00    +0.115 C 
ATOM     22  N   UNL     1       3.571   2.167  -0.108  0.00  0.00    -0.269 N 
ATOM     23  C   UNL     1       2.381   1.433  -0.021  0.00  0.00    +0.050 A 
ATOM     24  C   UNL     1       1.162   2.102   0.002  0.00  0.00    +0.024 A 
ATOM     25  C   UNL     1      -0.017   1.379   0.010  0.00  0.00    +0.002 A 
ATOM     26  C   UNL     1       0.002  -0.004   0.002  0.00  0.00    +0.001 A 
ATOM     27  C   UNL     1       1.212  -0.679   0.008  0.00  0.00    +0.016 A 
ATOM     28  C   UNL     1       2.388   0.046   0.002  0.00  0.00    +0.030 A 
ATOM     29  S   UNL     1       3.961  -0.779   0.063  0.00  0.00    -0.120 S 
ATOM     30  C   UNL     1       4.045   2.842   0.958  0.00  0.00    +0.238 C 
ATOM     31  O   UNL     1       5.077   3.473   0.867  0.00  0.00    -0.274 OA
ENDBRANCH  17  30
ENDBRANCH   1  17
TORSDOF 3
