REMARK  Name = ZINC05266639
REMARK  6 active torsions:
REMARK  status: ('A' for Active; 'I' for Inactive)
REMARK    1  A    between atoms: C_5  and  N_7
REMARK    2  A    between atoms: N_19  and  C_20
REMARK    3  A    between atoms: C_20  and  C_22
REMARK    4  A    between atoms: C_22  and  O_23
REMARK    5  A    between atoms: O_23  and  C_24
REMARK    6  A    between atoms: C_24  and  C_25
REMARK                            x       y       z     vdW  Elec       q    Type
REMARK                         _______ _______ _______ _____ _____    ______ ____
ROOT
ATOM      1  N   UNL     1      -1.238   2.069   0.019  0.00  0.00    -0.273 N 
ATOM      2  C   UNL     1      -1.908   2.455  -1.176  0.00  0.00    +0.116 C 
ATOM      3  C   UNL     1      -1.304   2.422  -2.572  0.00  0.00    +0.190 C 
ATOM      4  S   UNL     1      -2.747   3.139  -3.493  0.00  0.00    -0.028 S 
ATOM      5  O   UNL     1      -3.588   2.082  -3.934  0.00  0.00    -0.174 OA
ATOM      6  O   UNL     1      -2.271   4.093  -4.433  0.00  0.00    -0.174 OA
ATOM      7  C   UNL     1      -3.577   4.029  -2.099  0.00  0.00    +0.182 C 
ATOM      8  C   UNL     1      -2.534   3.881  -0.991  0.00  0.00    +0.097 C 
ATOM      9  S   UNL     1      -3.207   3.532   0.674  0.00  0.00    -0.086 S 
ATOM     10  C   UNL     1      -1.885   2.430   1.199  0.00  0.00    +0.154 C 
ATOM     11  N   UNL     1      -1.591   2.045   2.436  0.00  0.00    -0.157 NA
ENDROOT
BRANCH   1  16
ATOM     12  C   UNL     1       1.208  -0.677  -0.013  0.00  0.00    +0.002 A 
ATOM     13  C   UNL     1       2.397   0.029  -0.021  0.00  0.00    +0.003 A 
ATOM     14  C   UNL     1       2.384   1.411  -0.013  0.00  0.00    +0.040 A 
ATOM     15  C   UNL     1       1.180   2.092   0.002  0.00  0.00    +0.145 A 
ATOM     16  C   UNL     1      -0.017   1.384   0.010  0.00  0.00    +0.071 A 
ATOM     17  C   UNL     1       0.002  -0.004   0.002  0.00  0.00    +0.026 A 
ATOM     18  F   UNL     1       1.167   3.443   0.009  0.00  0.00    -0.204 F 
ENDBRANCH   1  16
BRANCH  11  19
ATOM     19  C   UNL     1      -2.317   2.487   3.460  0.00  0.00    +0.264 C 
ATOM     20  O   UNL     1      -3.249   3.243   3.263  0.00  0.00    -0.271 OA
BRANCH  19  21
ATOM     21  C   UNL     1      -1.984   2.051   4.863  0.00  0.00    +0.258 C 
BRANCH  21  22
ATOM     22  O   UNL     1      -2.900   2.655   5.779  0.00  0.00    -0.359 OA
BRANCH  22  23
ATOM     23  C   UNL     1      -2.671   2.304   7.146  0.00  0.00    +0.285 C 
BRANCH  23  24
ATOM     24  C   UNL     1      -3.688   2.994   8.018  0.00  0.00    +0.381 C 
ATOM     25  O   UNL     1      -4.524   3.711   7.521  0.00  0.00    -0.244 OA
ATOM     26  O   UNL     1      -3.666   2.810   9.348  0.00  0.00    -0.244 OA
ENDBRANCH  23  24
ENDBRANCH  22  23
ENDBRANCH  21  22
ENDBRANCH  19  21
ENDBRANCH  11  19
TORSDOF 6
