REMARK  Name = ZINC58108295
REMARK  4 active torsions:
REMARK  status: ('A' for Active; 'I' for Inactive)
REMARK    1  A    between atoms: C_3  and  S_17
REMARK    2  A    between atoms: C_6  and  N_7
REMARK    3  A    between atoms: C_14  and  O_16
REMARK    4  A    between atoms: S_17  and  C_18
REMARK                            x       y       z     vdW  Elec       q    Type
REMARK                         _______ _______ _______ _____ _____    ______ ____
ROOT
ATOM      1  C   UNL     1      -0.049   1.357  -0.328  0.00  0.00    +0.024 A 
ATOM      2  C   UNL     1       1.125   2.078  -0.414  0.00  0.00    +0.016 A 
ATOM      3  C   UNL     1       2.344   1.451  -0.188  0.00  0.00    +0.008 A 
ATOM      4  C   UNL     1       2.381   0.098   0.125  0.00  0.00    +0.016 A 
ATOM      5  C   UNL     1       1.206  -0.623   0.211  0.00  0.00    +0.024 A 
ATOM      6  C   UNL     1      -0.012   0.004  -0.015  0.00  0.00    +0.035 A 
ENDROOT
BRANCH   6   7
ATOM      7  N   UNL     1      -1.204  -0.728   0.073  0.00  0.00    -0.269 N 
ATOM      8  C   UNL     1      -1.188  -2.065  -0.099  0.00  0.00    +0.307 C 
ATOM      9  O   UNL     1      -0.128  -2.656  -0.170  0.00  0.00    -0.252 OA
ATOM     10  N   UNL     1      -2.347  -2.746  -0.194  0.00  0.00    -0.283 N 
ATOM     11  C   UNL     1      -3.628  -2.033  -0.295  0.00  0.00    +0.109 C 
ATOM     12  C   UNL     1      -4.380  -2.545  -1.527  0.00  0.00    +0.022 C 
ATOM     13  C   UNL     1      -4.513  -4.067  -1.444  0.00  0.00    +0.034 C 
ATOM     14  C   UNL     1      -3.120  -4.702  -1.430  0.00  0.00    +0.132 C 
ATOM     15  C   UNL     1      -2.353  -4.215  -0.203  0.00  0.00    +0.140 C 
ATOM     16  H   UNL     1      -2.040  -0.273   0.258  0.00  0.00    +0.156 HD
BRANCH  14  17
ATOM     17  O   UNL     1      -3.245  -6.125  -1.384  0.00  0.00    -0.390 OA
ATOM     18  H   UNL     1      -2.400  -6.594  -1.373  0.00  0.00    +0.210 HD
ENDBRANCH  14  17
ENDBRANCH   6   7
BRANCH   3  19
ATOM     19  S   UNL     1       3.842   2.372  -0.299  0.00  0.00    -0.122 S 
BRANCH  19  20
ATOM     20  C   UNL     1       5.134   1.153   0.068  0.00  0.00    +0.051 C 
ATOM     21  C   UNL     1       5.266   0.137  -1.093  0.00  0.00    +0.014 C 
ATOM     22  C   UNL     1       6.713  -0.390  -0.924  0.00  0.00    +0.001 C 
ATOM     23  C   UNL     1       7.520   0.854  -0.497  0.00  0.00    +0.001 C 
ATOM     24  C   UNL     1       6.516   1.834   0.134  0.00  0.00    +0.014 C 
ENDBRANCH  19  20
ENDBRANCH   3  19
TORSDOF 4
