REMARK  Name = ZINC54398226
REMARK  5 active torsions:
REMARK  status: ('A' for Active; 'I' for Inactive)
REMARK    1  A    between atoms: C_1  and  C_2
REMARK    2  A    between atoms: C_7  and  C_9
REMARK    3  A    between atoms: C_7  and  C_10
REMARK    4  A    between atoms: C_12  and  C_17
REMARK    5  A    between atoms: C_17  and  N_19
REMARK                            x       y       z     vdW  Elec       q    Type
REMARK                         _______ _______ _______ _____ _____    ______ ____
ROOT
ATOM      1  C   UNL     1       0.033   1.471   0.101  0.00  0.00    +0.039 C 
ATOM      2  C   UNL     1       0.041  -0.059   0.061  0.00  0.00    +0.133 C 
ATOM      3  C   UNL     1      -1.401  -0.579   0.072  0.00  0.00    +0.138 C 
ATOM      4  N   UNL     1      -1.366  -2.042   0.222  0.00  0.00    -0.308 N 
ATOM      5  C   UNL     1      -0.554  -2.606   1.312  0.00  0.00    +0.141 C 
ATOM      6  C   UNL     1       0.847  -1.987   1.242  0.00  0.00    +0.080 C 
ATOM      7  O   UNL     1       0.732  -0.562   1.207  0.00  0.00    -0.368 OA
ATOM      8  C   UNL     1       1.653  -2.405   2.473  0.00  0.00    +0.043 C 
ATOM      9  C   UNL     1       1.557  -2.473  -0.024  0.00  0.00    +0.043 C 
ATOM     10  C   UNL     1      -2.075  -2.864  -0.636  0.00  0.00    +0.149 A 
ATOM     11  C   UNL     1      -3.368  -3.295  -0.293  0.00  0.00    +0.131 A 
ATOM     12  N   UNL     1      -4.040  -4.085  -1.126  0.00  0.00    -0.248 NA
ATOM     13  C   UNL     1      -3.493  -4.459  -2.265  0.00  0.00    +0.131 A 
ATOM     14  C   UNL     1      -2.217  -4.033  -2.603  0.00  0.00    +0.132 A 
ATOM     15  N   UNL     1      -1.540  -3.244  -1.789  0.00  0.00    -0.237 NA
ENDROOT
BRANCH  11  16
ATOM     16  C   UNL     1      -3.976  -2.875   0.983  0.00  0.00    +0.099 C 
ATOM     17  S   UNL     1      -3.178  -1.731   1.976  0.00  0.00    -0.033 S 
BRANCH  16  18
ATOM     18  N   UNL     1      -5.160  -3.392   1.368  0.00  0.00    -0.350 N 
ATOM     19  H   UNL     1      -5.612  -4.040   0.806  0.00  0.00    +0.143 HD
ATOM     20  H   UNL     1      -5.560  -3.115   2.208  0.00  0.00    +0.143 HD
ENDBRANCH  16  18
ENDBRANCH  11  16
TORSDOF 2
