REMARK  Name = ZINC49540496
REMARK  8 active torsions:
REMARK  status: ('A' for Active; 'I' for Inactive)
REMARK    1  A    between atoms: C_1  and  C_2
REMARK    2  A    between atoms: C_5  and  C_7
REMARK    3  A    between atoms: C_7  and  N_8
REMARK    4  A    between atoms: N_8  and  S_9
REMARK    5  A    between atoms: S_9  and  C_12
REMARK    6  A    between atoms: C_15  and  C_18
REMARK    7  A    between atoms: C_19  and  C_20
REMARK    8  A    between atoms: C_20  and  N_21
REMARK                            x       y       z     vdW  Elec       q    Type
REMARK                         _______ _______ _______ _____ _____    ______ ____
ROOT
ATOM      1  C   UNL     1      -0.887  -4.193   5.230  0.00  0.00    +0.105 A 
ATOM      2  C   UNL     1       0.425  -4.554   5.482  0.00  0.00    +0.030 A 
ATOM      3  C   UNL     1       1.002  -4.264   6.701  0.00  0.00    +0.019 A 
ATOM      4  C   UNL     1       0.259  -3.604   7.681  0.00  0.00    +0.025 A 
ATOM      5  C   UNL     1      -1.063  -3.243   7.421  0.00  0.00    +0.019 A 
ATOM      6  C   UNL     1      -1.627  -3.535   6.196  0.00  0.00    +0.030 A 
ENDROOT
BRANCH   1   7
ATOM      7  S   UNL     1      -1.616  -4.567   3.670  0.00  0.00    +0.059 S 
ATOM      8  O   UNL     1      -3.021  -4.606   3.878  0.00  0.00    -0.153 OA
ATOM      9  O   UNL     1      -0.893  -5.670   3.139  0.00  0.00    -0.153 OA
BRANCH   7  10
ATOM     10  N   UNL     1      -1.320  -3.281   2.671  0.00  0.00    -0.184 NA
ATOM     11  H   UNL     1      -2.057  -2.743   2.341  0.00  0.00    +0.148 HD
BRANCH  10  12
ATOM     12  C   UNL     1       0.055  -2.955   2.284  0.00  0.00    +0.168 C 
BRANCH  12  17
ATOM     13  C   UNL     1      -0.018   1.503   0.010  0.00  0.00    +0.066 C 
ATOM     14  C   UNL     1       0.002  -0.004   0.002  0.00  0.00    +0.046 A 
ATOM     15  C   UNL     1       0.006  -0.708  -1.159  0.00  0.00    +0.070 A 
ATOM     16  S   UNL     1       0.032  -2.379  -0.531  0.00  0.00    -0.079 S 
ATOM     17  C   UNL     1       0.036  -2.009   1.111  0.00  0.00    +0.094 A 
ATOM     18  N   UNL     1       0.023  -0.699   1.122  0.00  0.00    -0.248 NA
ENDBRANCH  12  17
ENDBRANCH  10  12
ENDBRANCH   7  10
ENDBRANCH   1   7
BRANCH   4  19
ATOM     19  C   UNL     1       0.852  -3.300   8.949  0.00  0.00    -0.068 C 
ATOM     20  C   UNL     1       1.337  -3.051   9.988  0.00  0.00    -0.117 C 
BRANCH  20  21
ATOM     21  C   UNL     1       1.946  -2.739  11.292  0.00  0.00    +0.005 C 
BRANCH  21  22
ATOM     22  N   UNL     1       0.964  -2.049  12.138  0.00  0.00    +0.385 N 
ATOM     23  H   UNL     1       1.381  -1.834  13.031  0.00  0.00    -0.089 HD
ATOM     24  H   UNL     1       0.674  -1.193  11.688  0.00  0.00    -0.089 HD
ATOM     25  H   UNL     1       0.162  -2.644  12.276  0.00  0.00    -0.089 HD
ENDBRANCH  21  22
ENDBRANCH  20  21
ENDBRANCH   4  19
TORSDOF 7
