REMARK  Name = ZINC59884401
REMARK  10 active torsions:
REMARK  status: ('A' for Active; 'I' for Inactive)
REMARK    1  A    between atoms: C_1  and  C_2
REMARK    2  A    between atoms: C_2  and  C_4
REMARK    3  A    between atoms: C_2  and  S_13
REMARK    4  A    between atoms: N_6  and  N_7
REMARK    5  A    between atoms: C_8  and  C_10
REMARK    6  A    between atoms: C_10  and  C_11
REMARK    7  A    between atoms: C_10  and  C_12
REMARK    8  A    between atoms: S_13  and  C_14
REMARK    9  A    between atoms: C_17  and  C_20
REMARK   10  A    between atoms: N_18  and  N_19
REMARK                            x       y       z     vdW  Elec       q    Type
REMARK                         _______ _______ _______ _____ _____    ______ ____
ROOT
ATOM      1  C   UNL     1      -0.019   1.526   0.010  0.00  0.00    +0.029 C 
ATOM      2  C   UNL     1       0.002  -0.004   0.002  0.00  0.00    +0.138 C 
ENDROOT
BRANCH   2   3
ATOM      3  C   UNL     1      -1.412  -0.526   0.013  0.00  0.00    +0.242 C 
ATOM      4  O   UNL     1      -1.927  -0.901  -1.019  0.00  0.00    -0.273 OA
ATOM      5  N   UNL     1      -2.103  -0.575   1.169  0.00  0.00    -0.233 N 
ATOM      6  H   UNL     1      -1.691  -0.275   1.994  0.00  0.00    +0.173 HD
BRANCH   5   7
ATOM      7  N   UNL     1      -3.417  -1.060   1.179  0.00  0.00    -0.234 N 
ATOM      8  C   UNL     1      -4.109  -1.109   2.334  0.00  0.00    +0.232 C 
ATOM      9  O   UNL     1      -3.593  -0.734   3.366  0.00  0.00    -0.274 OA
ATOM     10  H   UNL     1      -3.830  -1.360   0.353  0.00  0.00    +0.173 HD
BRANCH   8  11
ATOM     11  C   UNL     1      -5.523  -1.631   2.345  0.00  0.00    +0.070 C 
ATOM     12  C   UNL     1      -6.074  -1.580   3.771  0.00  0.00    +0.017 C 
ATOM     13  C   UNL     1      -6.392  -0.766   1.431  0.00  0.00    +0.017 C 
ENDBRANCH   8  11
ENDBRANCH   5   7
ENDBRANCH   2   3
BRANCH   2  14
ATOM     14  S   UNL     1       0.851  -0.589  -1.490  0.00  0.00    -0.072 S 
BRANCH  14  15
ATOM     15  C   UNL     1       2.509  -0.029  -1.285  0.00  0.00    +0.209 A 
ATOM     16  N   UNL     1       2.983   0.649  -0.266  0.00  0.00    -0.121 NA
ATOM     17  N   UNL     1       4.232   0.891  -0.446  0.00  0.00    -0.132 NA
ATOM     18  C   UNL     1       4.627   0.387  -1.581  0.00  0.00    +0.154 A 
ATOM     19  N   UNL     1       3.545  -0.222  -2.153  0.00  0.00    -0.228 N 
BRANCH  19  20
ATOM     20  N   UNL     1       3.507  -0.884  -3.348  0.00  0.00    -0.295 N 
ATOM     21  H   UNL     1       3.280  -0.255  -4.103  0.00  0.00    +0.163 HD
ATOM     22  H   UNL     1       4.379  -1.361  -3.524  0.00  0.00    +0.163 HD
ENDBRANCH  19  20
BRANCH  18  23
ATOM     23  C   UNL     1       6.019   0.457  -2.153  0.00  0.00    +0.059 C 
ATOM     24  C   UNL     1       7.127   1.005  -1.251  0.00  0.00    +0.012 C 
ATOM     25  C   UNL     1       6.605   1.845  -2.419  0.00  0.00    +0.012 C 
ENDBRANCH  18  23
ENDBRANCH  14  15
ENDBRANCH   2  14
TORSDOF 7
