REMARK  Name = ZINC44514775
REMARK  5 active torsions:
REMARK  status: ('A' for Active; 'I' for Inactive)
REMARK    1  A    between atoms: C_4  and  S_15
REMARK    2  A    between atoms: C_5  and  N_7
REMARK    3  A    between atoms: C_10  and  C_13
REMARK    4  A    between atoms: C_13  and  N_14
REMARK    5  A    between atoms: S_15  and  N_18
REMARK                            x       y       z     vdW  Elec       q    Type
REMARK                         _______ _______ _______ _____ _____    ______ ____
ROOT
ATOM      1  C   UNL     1       2.386   1.389   0.141  0.00  0.00    +0.002 A 
ATOM      2  C   UNL     1       1.192   2.083   0.082  0.00  0.00    +0.002 A 
ATOM      3  C   UNL     1      -0.002   1.400  -0.064  0.00  0.00    +0.030 A 
ATOM      4  C   UNL     1      -0.004   0.022  -0.152  0.00  0.00    +0.126 A 
ATOM      5  C   UNL     1       1.194  -0.678  -0.094  0.00  0.00    +0.056 A 
ATOM      6  C   UNL     1       2.392   0.011   0.053  0.00  0.00    +0.025 A 
ENDROOT
BRANCH   5   7
ATOM      7  N   UNL     1       1.196  -2.072  -0.182  0.00  0.00    -0.328 N 
ATOM      8  C   UNL     1       1.147  -2.899   1.031  0.00  0.00    +0.105 C 
ATOM      9  C   UNL     1       2.315  -3.890   0.999  0.00  0.00    +0.020 C 
ATOM     10  C   UNL     1       2.268  -4.686  -0.307  0.00  0.00    -0.026 C 
ATOM     11  C   UNL     1       2.413  -3.731  -1.494  0.00  0.00    +0.020 C 
ATOM     12  C   UNL     1       1.240  -2.739  -1.491  0.00  0.00    +0.105 C 
BRANCH  10  13
ATOM     13  C   UNL     1       3.413  -5.701  -0.327  0.00  0.00    -0.083 C 
BRANCH  13  14
ATOM     14  N   UNL     1       3.298  -6.546  -1.523  0.00  0.00    +0.378 N 
ATOM     15  H   UNL     1       2.416  -7.035  -1.506  0.00  0.00    -0.090 HD
ATOM     16  H   UNL     1       3.346  -5.968  -2.349  0.00  0.00    -0.090 HD
ATOM     17  H   UNL     1       4.053  -7.215  -1.536  0.00  0.00    -0.090 HD
ENDBRANCH  13  14
ENDBRANCH  10  13
ENDBRANCH   5   7
BRANCH   4  18
ATOM     18  S   UNL     1      -1.525  -0.848  -0.337  0.00  0.00    +0.058 S 
ATOM     19  O   UNL     1      -1.509  -1.901   0.617  0.00  0.00    -0.153 OA
ATOM     20  O   UNL     1      -2.552   0.133  -0.371  0.00  0.00    -0.153 OA
BRANCH  18  21
ATOM     21  N   UNL     1      -1.502  -1.562  -1.831  0.00  0.00    -0.203 NA
ATOM     22  H   UNL     1      -0.733  -1.449  -2.411  0.00  0.00    +0.144 HD
ATOM     23  H   UNL     1      -2.258  -2.093  -2.126  0.00  0.00    +0.144 HD
ENDBRANCH  18  21
ENDBRANCH   4  18
TORSDOF 5
