REMARK  Name = ZINC48705634
REMARK  6 active torsions:
REMARK  status: ('A' for Active; 'I' for Inactive)
REMARK    1  A    between atoms: C_1  and  C_2
REMARK    2  A    between atoms: C_2  and  C_4
REMARK    3  A    between atoms: C_2  and  S_12
REMARK    4  A    between atoms: S_12  and  C_13
REMARK    5  A    between atoms: C_16  and  C_20
REMARK    6  A    between atoms: C_17  and  N_19
REMARK                            x       y       z     vdW  Elec       q    Type
REMARK                         _______ _______ _______ _____ _____    ______ ____
ROOT
ATOM      1  S   UNL     1       0.851  -0.589  -1.490  0.00  0.00    -0.078 S 
ENDROOT
BRANCH   1   2
ATOM      2  C   UNL     1      -0.189  -0.057  -2.809  0.00  0.00    +0.191 A 
ATOM      3  N   UNL     1      -1.298   0.616  -2.523  0.00  0.00    -0.229 NA
ATOM      4  C   UNL     1      -2.108   1.035  -3.478  0.00  0.00    +0.136 A 
ATOM      5  C   UNL     1      -1.785   0.761  -4.811  0.00  0.00    +0.109 A 
ATOM      6  C   UNL     1      -0.599   0.044  -5.077  0.00  0.00    +0.138 A 
ATOM      7  N   UNL     1       0.162  -0.335  -4.056  0.00  0.00    -0.206 NA
BRANCH   6   8
ATOM      8  N   UNL     1      -0.233  -0.254  -6.374  0.00  0.00    -0.342 N 
ATOM      9  H   UNL     1      -0.793   0.030  -7.113  0.00  0.00    +0.144 HD
ATOM     10  H   UNL     1       0.584  -0.747  -6.546  0.00  0.00    +0.144 HD
ENDBRANCH   6   8
BRANCH   5  11
ATOM     11  C   UNL     1      -2.636   1.196  -5.878  0.00  0.00    +0.104 C 
ATOM     12  N   UNL     1      -3.311   1.542  -6.724  0.00  0.00    -0.191 NA
ENDBRANCH   5  11
ENDBRANCH   1   2
BRANCH   1  14
ATOM     13  C   UNL     1      -0.019   1.526   0.010  0.00  0.00    +0.024 C 
ATOM     14  C   UNL     1       0.002  -0.004   0.002  0.00  0.00    +0.081 C 
BRANCH  14  15
ATOM     15  C   UNL     1       0.731  -0.503   1.223  0.00  0.00    -0.033 A 
ATOM     16  C   UNL     1       2.050  -0.148   1.433  0.00  0.00    +0.006 A 
ATOM     17  C   UNL     1       2.720  -0.605   2.553  0.00  0.00    +0.022 A 
ATOM     18  C   UNL     1       2.070  -1.419   3.463  0.00  0.00    +0.059 A 
ATOM     19  C   UNL     1       0.749  -1.775   3.252  0.00  0.00    +0.060 A 
ATOM     20  C   UNL     1       0.079  -1.312   2.134  0.00  0.00    +0.026 A 
ATOM     21 CL   UNL     1      -0.068  -2.797   4.394  0.00  0.00    -0.082 Cl
ATOM     22 CL   UNL     1       2.911  -1.994   4.869  0.00  0.00    -0.082 Cl
ENDBRANCH  14  15
ENDBRANCH   1  14
TORSDOF 5
