REMARK  Name = ZINC42404302
REMARK  4 active torsions:
REMARK  status: ('A' for Active; 'I' for Inactive)
REMARK    1  A    between atoms: C_1  and  C_2
REMARK    2  A    between atoms: C_5  and  S_8
REMARK    3  A    between atoms: S_8  and  C_9
REMARK    4  A    between atoms: C_10  and  N_16
REMARK                            x       y       z     vdW  Elec       q    Type
REMARK                         _______ _______ _______ _____ _____    ______ ____
ROOT
ATOM      1  C   UNL     1       0.078  -4.878   1.685  0.00  0.00    +0.054 A 
ATOM      2  C   UNL     1       1.290  -5.029   2.358  0.00  0.00    +0.040 A 
ATOM      3  C   UNL     1       1.294  -5.371   3.702  0.00  0.00    +0.024 A 
ATOM      4  C   UNL     1       0.099  -5.563   4.371  0.00  0.00    +0.003 A 
ATOM      5  C   UNL     1      -1.103  -5.414   3.704  0.00  0.00    +0.021 A 
ATOM      6  C   UNL     1      -1.117  -5.067   2.365  0.00  0.00    +0.057 A 
ATOM      7 CL   UNL     1      -2.629  -4.874   1.534  0.00  0.00    -0.082 Cl
ENDROOT
BRANCH   2   8
ATOM      8  N   UNL     1       2.499  -4.835   1.680  0.00  0.00    -0.357 N 
ATOM      9  H   UNL     1       2.494  -4.596   0.740  0.00  0.00    +0.142 HD
ATOM     10  H   UNL     1       3.341  -4.940   2.150  0.00  0.00    +0.142 HD
ENDBRANCH   2   8
BRANCH   1  11
ATOM     11  S   UNL     1       0.064  -4.443  -0.022  0.00  0.00    -0.047 S 
BRANCH  11  16
ATOM     12  C   UNL     1      -0.018   1.503   0.010  0.00  0.00    +0.047 C 
ATOM     13  C   UNL     1       0.002  -0.004   0.002  0.00  0.00    -0.014 A 
ATOM     14  C   UNL     1       0.006  -0.706  -1.194  0.00  0.00    +0.118 A 
ATOM     15  N   UNL     1       0.025  -2.028  -1.166  0.00  0.00    -0.230 NA
ATOM     16  C   UNL     1       0.039  -2.681  -0.013  0.00  0.00    +0.193 A 
ATOM     17  N   UNL     1       0.035  -2.040   1.148  0.00  0.00    -0.230 NA
ATOM     18  C   UNL     1       0.023  -0.719   1.190  0.00  0.00    +0.118 A 
ENDBRANCH  11  16
ENDBRANCH   1  11
TORSDOF 3
