REMARK  Name = ZINC48786670
REMARK  6 active torsions:
REMARK  status: ('A' for Active; 'I' for Inactive)
REMARK    1  A    between atoms: C_1  and  O_2
REMARK    2  A    between atoms: O_2  and  C_3
REMARK    3  A    between atoms: C_8  and  C_9
REMARK    4  A    between atoms: C_9  and  O_10
REMARK    5  A    between atoms: O_10  and  C_11
REMARK    6  A    between atoms: C_14  and  C_18
REMARK                            x       y       z     vdW  Elec       q    Type
REMARK                         _______ _______ _______ _____ _____    ______ ____
ROOT
ATOM      1  C   UNL     1       0.744  -5.091  -0.033  0.00  0.00    +0.139 A 
ATOM      2  C   UNL     1       2.048  -4.610  -0.038  0.00  0.00    +0.048 A 
ATOM      3  C   UNL     1       3.108  -5.488  -0.053  0.00  0.00    +0.015 A 
ATOM      4  C   UNL     1       2.873  -6.865  -0.064  0.00  0.00    +0.014 A 
ATOM      5  C   UNL     1       1.562  -7.346  -0.059  0.00  0.00    +0.035 A 
ATOM      6  C   UNL     1       0.505  -6.461  -0.038  0.00  0.00    +0.083 A 
ATOM      7 CL   UNL     1      -1.125  -7.057  -0.026  0.00  0.00    -0.080 Cl
ENDROOT
BRANCH   4   8
ATOM      8  C   UNL     1       4.008  -7.810  -0.081  0.00  0.00    +0.094 C 
ATOM      9  N   UNL     1       3.782  -9.123  -0.091  0.00  0.00    -0.387 N 
ATOM     10  N   UNL     1       5.259  -7.350  -0.086  0.00  0.00    -0.345 N 
ATOM     11  H   UNL     1       2.872  -9.459  -0.087  0.00  0.00    +0.157 HD
ATOM     12  H   UNL     1       5.424  -6.394  -0.079  0.00  0.00    +0.144 HD
ATOM     13  H   UNL     1       6.004  -7.970  -0.097  0.00  0.00    +0.144 HD
ATOM     14  H   UNL     1       4.528  -9.744  -0.102  0.00  0.00    +0.157 HD
ENDBRANCH   4   8
BRANCH   1  15
ATOM     15  O   UNL     1      -0.298  -4.222  -0.018  0.00  0.00    -0.486 OA
BRANCH  15  16
ATOM     16  C   UNL     1       0.019  -2.828  -0.014  0.00  0.00    +0.268 C 
BRANCH  16  22
ATOM     17  C   UNL     1      -1.200  -0.638   0.010  0.00  0.00    +0.127 A 
ATOM     18  C   UNL     1      -2.375   0.101   0.019  0.00  0.00    +0.047 A 
ATOM     19  C   UNL     1      -3.596  -0.544   0.028  0.00  0.00    +0.023 A 
ATOM     20  C   UNL     1      -3.648  -1.927   0.027  0.00  0.00    +0.042 A 
ATOM     21  C   UNL     1      -2.479  -2.666   0.018  0.00  0.00    +0.030 A 
ATOM     22  C   UNL     1      -1.255  -2.023   0.003  0.00  0.00    +0.033 A 
ATOM     23 CL   UNL     1      -5.184  -2.736   0.038  0.00  0.00    -0.084 Cl
BRANCH  17  25
ATOM     24  C   UNL     1      -0.017   1.425   0.010  0.00  0.00    +0.277 C 
ATOM     25  O   UNL     1       0.002  -0.004   0.002  0.00  0.00    -0.495 OA
ENDBRANCH  17  25
ENDBRANCH  16  22
ENDBRANCH  15  16
ENDBRANCH   1  15
TORSDOF 5
