REMARK  Name = ZINC00718173
REMARK  2 active torsions:
REMARK  status: ('A' for Active; 'I' for Inactive)
REMARK    1  A    between atoms: C_5  and  C_7
REMARK    2  A    between atoms: C_12  and  C_22
REMARK                            x       y       z     vdW  Elec       q    Type
REMARK                         _______ _______ _______ _____ _____    ______ ____
ROOT
ATOM      1  C   UNL     1       0.316   7.953   2.840  0.00  0.00    +0.033 C 
ATOM      2  C   UNL     1      -0.052   7.584   1.404  0.00  0.00    +0.059 C 
ATOM      3  C   UNL     1       0.638   6.290   1.006  0.00  0.00    +0.017 C 
ATOM      4  C   UNL     1       1.840   5.973   1.518  0.00  0.00    +0.036 C 
ATOM      5  C   UNL     1       2.634   4.727   1.206  0.00  0.00    +0.136 C 
ATOM      6  N   UNL     1       2.136   3.963   0.082  0.00  0.00    -0.331 N 
ATOM      7  C   UNL     1       0.883   3.355   0.128  0.00  0.00    +0.049 A 
ATOM      8  C   UNL     1       0.750   1.976   0.140  0.00  0.00    +0.025 A 
ATOM      9  C   UNL     1      -0.511   1.415   0.251  0.00  0.00    +0.002 A 
ATOM     10  C   UNL     1      -1.629   2.222   0.360  0.00  0.00    +0.002 A 
ATOM     11  C   UNL     1      -1.499   3.600   0.349  0.00  0.00    +0.025 A 
ATOM     12  C   UNL     1      -0.242   4.162   0.211  0.00  0.00    +0.052 A 
ATOM     13  N   UNL     1      -0.047   5.535   0.110  0.00  0.00    -0.316 N 
ATOM     14  C   UNL     1       2.473   6.839   2.440  0.00  0.00    +0.163 C 
ATOM     15  O   UNL     1       3.569   6.537   2.870  0.00  0.00    -0.292 OA
ATOM     16  C   UNL     1       1.839   8.116   2.904  0.00  0.00    +0.088 C 
ATOM     17  H   UNL     1       2.683   3.873  -0.714  0.00  0.00    +0.147 HD
ATOM     18  H   UNL     1      -0.428   5.987  -0.659  0.00  0.00    +0.152 HD
ENDROOT
BRANCH   1  23
ATOM     19  C   UNL     1      -0.727  11.582   2.834  0.00  0.00    +0.000 A 
ATOM     20  C   UNL     1      -1.580  11.626   3.921  0.00  0.00    +0.001 A 
ATOM     21  C   UNL     1      -1.820  10.482   4.659  0.00  0.00    +0.020 A 
ATOM     22  C   UNL     1      -1.211   9.291   4.306  0.00  0.00    +0.044 A 
ATOM     23  C   UNL     1      -0.353   9.249   3.221  0.00  0.00    -0.025 A 
ATOM     24  C   UNL     1      -0.113  10.394   2.485  0.00  0.00    +0.005 A 
ATOM     25 CL   UNL     1      -1.518   7.852   5.227  0.00  0.00    -0.083 Cl
ENDBRANCH   1  23
BRANCH   5  26
ATOM     26  C   UNL     1       2.628   3.842   2.425  0.00  0.00    -0.016 A 
ATOM     27  C   UNL     1       3.790   3.626   3.142  0.00  0.00    +0.013 A 
ATOM     28  C   UNL     1       3.750   2.825   4.234  0.00  0.00    +0.045 A 
ATOM     29  S   UNL     1       2.031   2.346   4.278  0.00  0.00    -0.105 S 
ATOM     30  C   UNL     1       1.481   3.251   2.840  0.00  0.00    +0.051 A 
ENDBRANCH   5  26
TORSDOF 2
