REMARK  Name = ZINC11898437
REMARK  9 active torsions:
REMARK  status: ('A' for Active; 'I' for Inactive)
REMARK    1  A    between atoms: C_1  and  N_2
REMARK    2  A    between atoms: C_6  and  C_7
REMARK    3  A    between atoms: C_7  and  C_9
REMARK    4  A    between atoms: C_7  and  N_60
REMARK    5  A    between atoms: C_9  and  N_10
REMARK    6  A    between atoms: C_11  and  C_13
REMARK    7  A    between atoms: N_15  and  C_16
REMARK    8  A    between atoms: C_19  and  O_22
REMARK    9  A    between atoms: O_22  and  C_23
REMARK                            x       y       z     vdW  Elec       q    Type
REMARK                         _______ _______ _______ _____ _____    ______ ____
ROOT
ATOM      1  C   UNL     1      -1.460   1.434   1.079  0.00  0.00    +0.095 C 
ENDROOT
BRANCH   1   2
ATOM      2  N   UNL     1      -2.516   0.572   0.544  0.00  0.00    -0.309 N 
ATOM      3  C   UNL     1      -3.680   0.440   1.211  0.00  0.00    +0.299 C 
ATOM      4  O   UNL     1      -3.853   1.036   2.255  0.00  0.00    -0.265 OA
ATOM      5  H   UNL     1      -2.379   0.096  -0.290  0.00  0.00    +0.149 HD
BRANCH   3   6
ATOM      6  C   UNL     1      -4.758  -0.439   0.666  0.00  0.00    +0.303 C 
ATOM      7  O   UNL     1      -4.585  -1.035  -0.377  0.00  0.00    -0.265 OA
ATOM      8  N   UNL     1      -5.921  -0.571   1.333  0.00  0.00    -0.278 N 
ATOM      9  H   UNL     1      -6.088  -0.039   2.127  0.00  0.00    +0.155 HD
BRANCH   8  10
ATOM     10  C   UNL     1      -6.888  -1.474   0.881  0.00  0.00    +0.034 A 
ATOM     11  C   UNL     1      -8.238  -1.187   1.042  0.00  0.00    +0.027 A 
ATOM     12  C   UNL     1      -9.191  -2.077   0.591  0.00  0.00    +0.048 A 
ATOM     13  C   UNL     1      -8.802  -3.264  -0.014  0.00  0.00    +0.130 A 
ATOM     14  C   UNL     1      -7.455  -3.554  -0.170  0.00  0.00    +0.048 A 
ATOM     15  C   UNL     1      -6.500  -2.663   0.276  0.00  0.00    +0.027 A 
BRANCH  13  16
ATOM     16  O   UNL     1      -9.742  -4.142  -0.454  0.00  0.00    -0.406 OA
BRANCH  16  17
ATOM     17  C   UNL     1     -11.111  -3.779  -0.260  0.00  0.00    +0.575 C 
ATOM     18  F   UNL     1     -11.374  -2.580  -0.931  0.00  0.00    -0.133 F 
ATOM     19  F   UNL     1     -11.937  -4.788  -0.767  0.00  0.00    -0.133 F 
ATOM     20  F   UNL     1     -11.361  -3.614   1.106  0.00  0.00    -0.133 F 
ENDBRANCH  16  17
ENDBRANCH  13  16
ENDBRANCH   8  10
ENDBRANCH   3   6
ENDBRANCH   1   2
BRANCH   1  21
ATOM     21  C   UNL     1      -0.211   1.313   0.203  0.00  0.00    -0.003 C 
BRANCH  21  31
ATOM     22  C   UNL     1       0.291  -0.716   1.430  0.00  0.00    -0.073 C 
ATOM     23  C   UNL     1       0.330  -2.235   1.260  0.00  0.00    +0.017 C 
ATOM     24  C   UNL     1       1.365  -2.612   0.231  0.00  0.00    -0.048 A 
ATOM     25  C   UNL     1       1.802  -3.927   0.184  0.00  0.00    +0.004 A 
ATOM     26  C   UNL     1       2.746  -4.315  -0.746  0.00  0.00    +0.000 A 
ATOM     27  C   UNL     1       3.258  -3.387  -1.634  0.00  0.00    +0.000 A 
ATOM     28  C   UNL     1       2.825  -2.078  -1.586  0.00  0.00    +0.002 A 
ATOM     29  C   UNL     1       1.877  -1.686  -0.652  0.00  0.00    -0.061 A 
ATOM     30  C   UNL     1       1.439  -0.245  -0.636  0.00  0.00    -0.042 C 
ATOM     31  N   UNL     1       0.163  -0.115   0.087  0.00  0.00    +0.389 N 
ATOM     32  H   UNL     1      -0.570  -0.611  -0.434  0.00  0.00    -0.080 HD
ENDBRANCH  21  31
BRANCH  21  38
ATOM     33  C   UNL     1      -0.893   4.252  -0.509  0.00  0.00    +0.148 C 
ATOM     34  N   UNL     1      -0.805   3.152  -1.472  0.00  0.00    -0.355 N 
ATOM     35  C   UNL     1      -1.008   3.254  -2.816  0.00  0.00    +0.085 A 
ATOM     36  C   UNL     1      -0.839   2.033  -3.362  0.00  0.00    +0.019 A 
ATOM     37  C   UNL     1      -0.515   1.145  -2.317  0.00  0.00    +0.021 A 
ATOM     38  C   UNL     1      -0.506   1.856  -1.171  0.00  0.00    +0.006 A 
ENDBRANCH  21  38
ENDBRANCH   1  21
TORSDOF 8
