REMARK  Name = ZINC41637267
REMARK  5 active torsions:
REMARK  status: ('A' for Active; 'I' for Inactive)
REMARK    1  A    between atoms: C_1  and  C_2
REMARK    2  A    between atoms: C_3  and  C_19
REMARK    3  A    between atoms: C_7  and  S_11
REMARK    4  A    between atoms: S_11  and  C_12
REMARK    5  A    between atoms: C_17  and  N_18
REMARK                            x       y       z     vdW  Elec       q    Type
REMARK                         _______ _______ _______ _____ _____    ______ ____
ROOT
ATOM      1  C   UNL     1      -0.045   1.527   0.013  0.00  0.00    +0.045 C 
ATOM      2  C   UNL     1       0.132   0.031  -0.024  0.00  0.00    -0.029 A 
ATOM      3  C   UNL     1       0.096  -0.628  -1.192  0.00  0.00    -0.008 A 
ATOM      4  S   UNL     1       0.349  -2.328  -0.720  0.00  0.00    -0.074 S 
ATOM      5  C   UNL     1       0.496  -2.108   1.034  0.00  0.00    +0.113 A 
ATOM      6  C   UNL     1       0.350  -0.714   1.203  0.00  0.00    +0.043 A 
ATOM      7  C   UNL     1       0.432  -0.251   2.546  0.00  0.00    +0.113 A 
ATOM      8  N   UNL     1       0.639  -1.126   3.519  0.00  0.00    -0.228 NA
ATOM      9  C   UNL     1       0.772  -2.419   3.285  0.00  0.00    +0.223 A 
ATOM     10  N   UNL     1       0.695  -2.909   2.062  0.00  0.00    -0.228 NA
ATOM     11  C   UNL     1      -0.110  -0.065  -2.575  0.00  0.00    +0.052 C 
ENDROOT
BRANCH   7  12
ATOM     12  S   UNL     1       0.263   1.464   2.910  0.00  0.00    -0.067 S 
BRANCH  12  13
ATOM     13  C   UNL     1       0.578   1.566   4.641  0.00  0.00    +0.035 A 
ATOM     14  C   UNL     1       1.794   2.049   5.100  0.00  0.00    +0.017 A 
ATOM     15  C   UNL     1       2.039   2.128   6.458  0.00  0.00    +0.001 A 
ATOM     16  C   UNL     1       1.074   1.726   7.363  0.00  0.00    +0.002 A 
ATOM     17  C   UNL     1      -0.141   1.242   6.915  0.00  0.00    +0.024 A 
ATOM     18  C   UNL     1      -0.398   1.165   5.555  0.00  0.00    +0.039 A 
BRANCH  18  19
ATOM     19  N   UNL     1      -1.630   0.682   5.099  0.00  0.00    -0.357 N 
ATOM     20  H   UNL     1      -1.806   0.625   4.147  0.00  0.00    +0.142 HD
ATOM     21  H   UNL     1      -2.307   0.404   5.735  0.00  0.00    +0.142 HD
ENDBRANCH  18  19
ENDBRANCH  12  13
ENDBRANCH   7  12
TORSDOF 3
