REMARK  Name = ZINC03814314
REMARK  5 active torsions:
REMARK  status: ('A' for Active; 'I' for Inactive)
REMARK    1  A    between atoms: N_7  and  C1*_10
REMARK    2  A    between atoms: C2*_12  and  O2*_22
REMARK    3  A    between atoms: C3*_14  and  O3*_21
REMARK    4  A    between atoms: C4*_16  and  C5*_19
REMARK    5  A    between atoms: C5*_19  and  O5*_20
REMARK                            x       y       z     vdW  Elec       q    Type
REMARK                         _______ _______ _______ _____ _____    ______ ____
ROOT
ATOM      1  C1* UNL     1       4.848   1.852  -0.034  0.00  0.00    +0.253 C 
ATOM      2  C2* UNL     1       5.343   1.661  -1.485  0.00  0.00    +0.195 C 
ATOM      3  C3* UNL     1       6.755   2.287  -1.485  0.00  0.00    +0.178 C 
ATOM      4  C4* UNL     1       6.947   2.782  -0.035  0.00  0.00    +0.177 C 
ATOM      5  O4* UNL     1       5.607   2.971   0.473  0.00  0.00    -0.346 OA
ENDROOT
BRANCH   1  12
ATOM      6  C   UNL     1      -0.016   1.318   0.009  0.00  0.00    +0.144 A 
ATOM      7  C   UNL     1       1.200   2.003   0.001  0.00  0.00    +0.126 A 
ATOM      8  C   UNL     1       2.390   1.247  -0.014  0.00  0.00    +0.165 A 
ATOM      9  N   UNL     1       2.312  -0.076  -0.020  0.00  0.00    -0.216 NA
ATOM     10  C   UNL     1       1.139  -0.676  -0.012  0.00  0.00    +0.223 A 
ATOM     11  N   UNL     1       0.002  -0.004   0.002  0.00  0.00    -0.241 NA
ATOM     12  N   UNL     1       3.416   2.159  -0.019  0.00  0.00    -0.286 N 
ATOM     13  C   UNL     1       2.858   3.402  -0.007  0.00  0.00    +0.203 A 
ATOM     14  N   UNL     1       1.560   3.309   0.005  0.00  0.00    -0.232 NA
ENDBRANCH   1  12
BRANCH   3  15
ATOM     15  O3* UNL     1       7.738   1.304  -1.816  0.00  0.00    -0.386 OA
ATOM     16  H3* UNL     1       8.644   1.643  -1.831  0.00  0.00    +0.210 HD
ENDBRANCH   3  15
BRANCH   2  17
ATOM     17  O2* UNL     1       5.407   0.272  -1.813  0.00  0.00    -0.385 OA
ATOM     18  H2* UNL     1       5.712   0.094  -2.713  0.00  0.00    +0.210 HD
ENDBRANCH   2  17
BRANCH   4  19
ATOM     19  C5* UNL     1       7.717   4.104  -0.021  0.00  0.00    +0.190 C 
BRANCH  19  20
ATOM     20  O5* UNL     1       7.985   4.485   1.331  0.00  0.00    -0.392 OA
ATOM     21  H5* UNL     1       8.472   5.316   1.416  0.00  0.00    +0.210 HD
ENDBRANCH  19  20
ENDBRANCH   4  19
TORSDOF 5
