REMARK  Name = ZINC35329844
REMARK  7 active torsions:
REMARK  status: ('A' for Active; 'I' for Inactive)
REMARK    1  A    between atoms: C_1  and  C_2
REMARK    2  A    between atoms: C_6  and  C_20
REMARK    3  A    between atoms: C_7  and  O_8
REMARK    4  A    between atoms: O_8  and  C_9
REMARK    5  A    between atoms: C_12  and  S_16
REMARK    6  A    between atoms: C_14  and  N_15
REMARK    7  A    between atoms: S_16  and  C_19
REMARK                            x       y       z     vdW  Elec       q    Type
REMARK                         _______ _______ _______ _____ _____    ______ ____
ROOT
ATOM      1  C   UNL     1      -1.175   0.266   2.947  0.00  0.00    +0.149 A 
ATOM      2  C   UNL     1      -2.352  -0.118   2.324  0.00  0.00    +0.050 A 
ATOM      3  C   UNL     1      -3.571   0.186   2.901  0.00  0.00    +0.030 A 
ATOM      4  C   UNL     1      -3.621   0.873   4.100  0.00  0.00    +0.090 A 
ATOM      5  C   UNL     1      -2.451   1.259   4.728  0.00  0.00    +0.053 A 
ATOM      6  C   UNL     1      -1.224   0.953   4.158  0.00  0.00    +0.069 A 
ENDROOT
BRANCH   4   7
ATOM      7  S   UNL     1      -5.178   1.257   4.829  0.00  0.00    -0.006 S 
ATOM      8  O   UNL     1      -4.933   2.412   5.620  0.00  0.00    -0.170 OA
ATOM      9  O   UNL     1      -6.087   1.307   3.737  0.00  0.00    -0.170 OA
ATOM     10  C   UNL     1      -5.557  -0.161   5.894  0.00  0.00    +0.200 C 
ENDBRANCH   4   7
BRANCH   6  11
ATOM     11  N   UNL     1      -0.039   1.339   4.795  0.00  0.00    -0.355 N 
ATOM     12  H   UNL     1       0.818   1.127   4.393  0.00  0.00    +0.142 HD
ATOM     13  H   UNL     1      -0.075   1.817   5.638  0.00  0.00    +0.142 HD
ENDBRANCH   6  11
BRANCH   1  14
ATOM     14  O   UNL     1       0.025  -0.033   2.381  0.00  0.00    -0.454 OA
BRANCH  14  21
ATOM     15  C   UNL     1      -0.018   1.503   0.010  0.00  0.00    +0.047 C 
ATOM     16  C   UNL     1       0.002  -0.004   0.002  0.00  0.00    -0.007 A 
ATOM     17  C   UNL     1       0.006  -0.689  -1.198  0.00  0.00    +0.027 A 
ATOM     18  C   UNL     1       0.025  -2.072  -1.206  0.00  0.00    +0.042 A 
ATOM     19  C   UNL     1       0.041  -2.773  -0.013  0.00  0.00    +0.027 A 
ATOM     20  C   UNL     1       0.036  -2.092   1.189  0.00  0.00    -0.007 A 
ATOM     21  C   UNL     1       0.023  -0.705   1.200  0.00  0.00    +0.134 A 
ATOM     22  C   UNL     1       0.053  -2.856   2.488  0.00  0.00    +0.047 C 
ATOM     23 CL   UNL     1       0.029  -2.930  -2.715  0.00  0.00    -0.084 Cl
ENDBRANCH  14  21
ENDBRANCH   1  14
TORSDOF 4
