REMARK  Name = ZINC52859093
REMARK  4 active torsions:
REMARK  status: ('A' for Active; 'I' for Inactive)
REMARK    1  A    between atoms: C_3  and  N_10
REMARK    2  A    between atoms: C_4  and  C_8
REMARK    3  A    between atoms: C_14  and  C_17
REMARK    4  A    between atoms: C_17  and  O_18
REMARK                            x       y       z     vdW  Elec       q    Type
REMARK                         _______ _______ _______ _____ _____    ______ ____
ROOT
ATOM      1  C   UNL     1      -0.017   1.382   0.010  0.00  0.00    +0.022 A 
ATOM      2  C   UNL     1       1.164   2.097   0.002  0.00  0.00    +0.026 A 
ATOM      3  C   UNL     1       2.382   1.430  -0.013  0.00  0.00    +0.047 A 
ATOM      4  C   UNL     1       2.405   0.026  -0.021  0.00  0.00    +0.074 A 
ATOM      5  C   UNL     1       1.202  -0.684  -0.013  0.00  0.00    +0.040 A 
ATOM      6  C   UNL     1       0.002  -0.004   0.002  0.00  0.00    +0.042 A 
ATOM      7 CL   UNL     1      -1.492  -0.888   0.011  0.00  0.00    -0.084 Cl
ENDROOT
BRANCH   3   8
ATOM      8  N   UNL     1       3.572   2.148  -0.021  0.00  0.00    -0.329 N 
ATOM      9  C   UNL     1       4.198   2.547  -1.289  0.00  0.00    +0.105 C 
ATOM     10  C   UNL     1       4.444   4.059  -1.264  0.00  0.00    +0.019 C 
ATOM     11  C   UNL     1       5.260   4.418  -0.021  0.00  0.00    +0.009 C 
ATOM     12  C   UNL     1       4.474   4.036   1.236  0.00  0.00    +0.032 C 
ATOM     13  C   UNL     1       4.226   2.529   1.239  0.00  0.00    +0.111 C 
BRANCH  12  14
ATOM     14  C   UNL     1       5.277   4.426   2.478  0.00  0.00    +0.160 C 
BRANCH  14  15
ATOM     15  O   UNL     1       5.408   5.848   2.533  0.00  0.00    -0.395 OA
ATOM     16  H   UNL     1       5.907   6.168   3.297  0.00  0.00    +0.209 HD
ENDBRANCH  14  15
ENDBRANCH  12  14
ENDBRANCH   3   8
BRANCH   4  17
ATOM     17  C   UNL     1       3.654  -0.673  -0.037  0.00  0.00    +0.101 C 
ATOM     18  N   UNL     1       4.646  -1.228  -0.050  0.00  0.00    -0.191 NA
ENDBRANCH   4  17
TORSDOF 4
