REMARK  Name = ZINC40214646
REMARK  5 active torsions:
REMARK  status: ('A' for Active; 'I' for Inactive)
REMARK    1  A    between atoms: C_8  and  C_9
REMARK    2  A    between atoms: N_11  and  C_12
REMARK    3  A    between atoms: C_12  and  C_13
REMARK    4  A    between atoms: C_16  and  S_18
REMARK    5  A    between atoms: S_18  and  N_21
REMARK                            x       y       z     vdW  Elec       q    Type
REMARK                         _______ _______ _______ _____ _____    ______ ____
ROOT
ATOM      1  C   UNL     1      -1.261  -0.764   0.011  0.00  0.00    +0.246 C 
ATOM      2  O   UNL     1      -1.239  -1.980   0.004  0.00  0.00    -0.270 OA
ATOM      3  N   UNL     1      -2.441  -0.112   0.026  0.00  0.00    -0.307 N 
ATOM      4  H   UNL     1      -2.458   0.858   0.031  0.00  0.00    +0.149 HD
ENDROOT
BRANCH   1  12
ATOM      5  C   UNL     1      -0.017   1.412   0.010  0.00  0.00    +0.020 A 
ATOM      6  C   UNL     1       1.163   2.087   0.002  0.00  0.00    +0.071 A 
ATOM      7  C   UNL     1       2.373   1.369  -0.013  0.00  0.00    +0.249 A 
ATOM      8  O   UNL     1       3.434   1.970  -0.020  0.00  0.00    -0.268 OA
ATOM      9  N   UNL     1       2.368   0.023  -0.020  0.00  0.00    -0.328 N 
ATOM     10  H   UNL     1       3.211  -0.457  -0.031  0.00  0.00    +0.168 HD
ATOM     11  C   UNL     1       1.212  -0.667  -0.013  0.00  0.00    +0.099 A 
ATOM     12  C   UNL     1       0.002  -0.004   0.002  0.00  0.00    +0.053 A 
ENDBRANCH   1  12
BRANCH   3  13
ATOM     13  C   UNL     1      -3.696  -0.867   0.034  0.00  0.00    +0.147 C 
BRANCH  13  14
ATOM     14  C   UNL     1      -4.859   0.091   0.051  0.00  0.00    +0.009 A 
ATOM     15  C   UNL     1      -5.531   0.635  -0.993  0.00  0.00    +0.015 A 
ATOM     16  C   UNL     1      -6.579   1.500  -0.737  0.00  0.00    +0.036 A 
ATOM     17  C   UNL     1      -6.903   1.778   0.549  0.00  0.00    +0.142 A 
ATOM     18  S   UNL     1      -5.713   0.798   1.450  0.00  0.00    -0.072 S 
BRANCH  17  19
ATOM     19  S   UNL     1      -8.173   2.829   1.172  0.00  0.00    +0.062 S 
ATOM     20  O   UNL     1      -7.770   3.224   2.476  0.00  0.00    -0.153 OA
ATOM     21  O   UNL     1      -8.460   3.770   0.146  0.00  0.00    -0.153 OA
BRANCH  19  22
ATOM     22  N   UNL     1      -9.531   1.900   1.356  0.00  0.00    -0.203 NA
ATOM     23  H   UNL     1     -10.177   2.117   2.046  0.00  0.00    +0.144 HD
ATOM     24  H   UNL     1      -9.681   1.140   0.773  0.00  0.00    +0.144 HD
ENDBRANCH  19  22
ENDBRANCH  17  19
ENDBRANCH  13  14
ENDBRANCH   3  13
TORSDOF 5
