REMARK  Name = ZINC36001586
REMARK  12 active torsions:
REMARK  status: ('A' for Active; 'I' for Inactive)
REMARK    1  A    between atoms: C_1  and  C_2
REMARK    2  A    between atoms: C_2  and  O_3
REMARK    3  A    between atoms: O_3  and  C_4
REMARK    4  A    between atoms: C_4  and  C_6
REMARK    5  A    between atoms: C_7  and  C_25
REMARK    6  A    between atoms: N_8  and  C_24
REMARK    7  A    between atoms: C_12  and  C_14
REMARK    8  A    between atoms: C_17  and  C_20
REMARK    9  A    between atoms: C_25  and  N_26
REMARK   10  A    between atoms: N_35  and  C_36
REMARK   11  A    between atoms: C_36  and  C_37
REMARK   12  A    between atoms: C_36  and  C_38
REMARK                            x       y       z     vdW  Elec       q    Type
REMARK                         _______ _______ _______ _____ _____    ______ ____
ROOT
ATOM      1  C   UNL     1       0.538  -2.797  -2.308  0.00  0.00    +0.076 C 
ATOM      2  C   UNL     1       1.114  -3.986  -2.588  0.00  0.00    +0.010 C 
ATOM      3  N   UNL     1       2.036  -4.105  -3.588  0.00  0.00    -0.264 N 
ATOM      4  C   UNL     1       2.438  -3.083  -4.353  0.00  0.00    +0.307 C 
ATOM      5  O   UNL     1       3.265  -3.286  -5.220  0.00  0.00    -0.252 OA
ATOM      6  N   UNL     1       1.954  -1.835  -4.194  0.00  0.00    -0.288 N 
ATOM      7  C   UNL     1       0.947  -1.602  -3.145  0.00  0.00    +0.143 C 
ATOM      8  C   UNL     1       2.620  -5.426  -3.837  0.00  0.00    +0.139 C 
ATOM      9  H   UNL     1       2.259  -1.108  -4.760  0.00  0.00    +0.151 HD
ENDROOT
BRANCH   7  10
ATOM     10  C   UNL     1       1.488  -0.547  -2.215  0.00  0.00    -0.022 A 
ATOM     11  C   UNL     1       2.786  -0.637  -1.748  0.00  0.00    +0.006 A 
ATOM     12  C   UNL     1       3.282   0.331  -0.894  0.00  0.00    +0.013 A 
ATOM     13  C   UNL     1       2.481   1.389  -0.509  0.00  0.00    +0.055 A 
ATOM     14  C   UNL     1       1.183   1.480  -0.977  0.00  0.00    +0.013 A 
ATOM     15  C   UNL     1       0.688   0.514  -1.833  0.00  0.00    +0.006 A 
BRANCH  13  16
ATOM     16  C   UNL     1       3.022   2.443   0.422  0.00  0.00    +0.417 C 
ATOM     17  F   UNL     1       3.612   3.467  -0.326  0.00  0.00    -0.166 F 
ATOM     18  F   UNL     1       1.976   2.969   1.189  0.00  0.00    -0.166 F 
ATOM     19  F   UNL     1       3.979   1.872   1.268  0.00  0.00    -0.166 F 
ENDBRANCH  13  16
ENDBRANCH   7  10
BRANCH   1  20
ATOM     20  C   UNL     1      -0.418  -2.673  -1.273  0.00  0.00    +0.339 C 
ATOM     21  O   UNL     1      -0.824  -3.665  -0.698  0.00  0.00    -0.245 OA
BRANCH  20  22
ATOM     22  O   UNL     1      -0.880  -1.454  -0.924  0.00  0.00    -0.462 OA
BRANCH  22  24
ATOM     23  C   UNL     1      -2.246   0.052   0.382  0.00  0.00    +0.048 C 
ATOM     24  C   UNL     1      -1.844  -1.403   0.129  0.00  0.00    +0.229 C 
ENDBRANCH  22  24
ENDBRANCH  20  22
ENDBRANCH   1  20
BRANCH   2  25
ATOM     25  C   UNL     1       0.732  -5.202  -1.783  0.00  0.00    -0.026 C 
BRANCH  25  26
ATOM     26  N   UNL     1      -0.512  -5.772  -2.318  0.00  0.00    +0.384 N 
ATOM     27  C   UNL     1      -0.997  -6.782  -1.379  0.00  0.00    -0.077 C 
ATOM     28  C   UNL     1      -2.505  -6.860  -1.466  0.00  0.00    +0.000 C 
ATOM     29  C   UNL     1      -2.904  -7.962  -2.465  0.00  0.00    +0.107 C 
ATOM     30  N   UNL     1      -2.013  -7.960  -3.642  0.00  0.00    -0.287 N 
ATOM     31  C   UNL     1      -1.573  -6.735  -4.279  0.00  0.00    +0.091 C 
ATOM     32  C   UNL     1      -0.260  -6.246  -3.624  0.00  0.00    -0.059 C 
ATOM     33  C   UNL     1      -1.594  -9.139  -4.143  0.00  0.00    +0.302 C 
ATOM     34  O   UNL     1      -2.021 -10.180  -3.683  0.00  0.00    -0.253 OA
ATOM     35  N   UNL     1      -0.701  -9.164  -5.152  0.00  0.00    -0.297 N 
ATOM     36  H   UNL     1      -0.305  -8.337  -5.470  0.00  0.00    +0.150 HD
ATOM     37  H   UNL     1      -1.200  -5.036  -2.374  0.00  0.00    -0.081 HD
BRANCH  35  38
ATOM     38  C   UNL     1      -0.329 -10.439  -5.770  0.00  0.00    +0.068 C 
ATOM     39  C   UNL     1      -1.346 -10.796  -6.855  0.00  0.00    +0.027 C 
ATOM     40  C   UNL     1       1.062 -10.316  -6.395  0.00  0.00    +0.027 C 
ENDBRANCH  35  38
ENDBRANCH  25  26
ENDBRANCH   2  25
TORSDOF 8
