REMARK  Name = ZINC00659929
REMARK  5 active torsions:
REMARK  status: ('A' for Active; 'I' for Inactive)
REMARK    1  A    between atoms: C_1  and  C_2
REMARK    2  A    between atoms: C_4  and  C_26
REMARK    3  A    between atoms: C_11  and  C_19
REMARK    4  A    between atoms: C_13  and  C_17
REMARK    5  A    between atoms: C_14  and  N_16
REMARK                            x       y       z     vdW  Elec       q    Type
REMARK                         _______ _______ _______ _____ _____    ______ ____
ROOT
ATOM      1  C   UNL     1       2.695   5.916  -0.402  0.00  0.00    +0.044 C 
ATOM      2  C   UNL     1       1.308   6.443  -0.670  0.00  0.00    -0.036 A 
ATOM      3  C   UNL     1       1.076   7.767  -0.999  0.00  0.00    +0.027 A 
ATOM      4  C   UNL     1      -0.196   8.250  -1.245  0.00  0.00    +0.040 A 
ATOM      5  N   UNL     1      -1.272   7.476  -1.182  0.00  0.00    -0.245 NA
ATOM      6  C   UNL     1      -1.099   6.211  -0.874  0.00  0.00    +0.113 A 
ATOM      7  C   UNL     1       0.161   5.613  -0.602  0.00  0.00    +0.053 A 
ATOM      8  C   UNL     1       0.133   4.196  -0.281  0.00  0.00    +0.151 A 
ATOM      9  C   UNL     1      -1.083   3.595  -0.274  0.00  0.00    +0.047 A 
ATOM     10  S   UNL     1      -2.238   4.872  -0.690  0.00  0.00    -0.069 S 
ATOM     11  C   UNL     1      -1.343   2.153   0.020  0.00  0.00    +0.105 C 
ATOM     12  C   UNL     1      -0.017   1.428   0.010  0.00  0.00    +0.098 C 
ATOM     13  C   UNL     1       1.152   2.109   0.002  0.00  0.00    +0.199 C 
ATOM     14  O   UNL     1       1.254   3.447   0.012  0.00  0.00    -0.440 OA
ATOM     15  C   UNL     1      -0.366   9.706  -1.597  0.00  0.00    +0.065 C 
ENDROOT
BRANCH  11  16
ATOM     16  C   UNL     1      -1.985   2.022   1.377  0.00  0.00    -0.034 A 
ATOM     17  C   UNL     1      -1.333   2.501   2.499  0.00  0.00    +0.007 A 
ATOM     18  C   UNL     1      -1.924   2.387   3.743  0.00  0.00    +0.038 A 
ATOM     19  C   UNL     1      -3.163   1.783   3.868  0.00  0.00    +0.123 A 
ATOM     20  C   UNL     1      -3.812   1.298   2.745  0.00  0.00    +0.038 A 
ATOM     21  C   UNL     1      -3.223   1.419   1.501  0.00  0.00    +0.007 A 
ATOM     22  F   UNL     1      -3.738   1.665   5.085  0.00  0.00    -0.205 F 
ENDBRANCH  11  16
BRANCH  13  23
ATOM     23  N   UNL     1       2.315   1.380  -0.016  0.00  0.00    -0.328 N 
ATOM     24  H   UNL     1       2.280   0.411  -0.022  0.00  0.00    +0.145 HD
ATOM     25  H   UNL     1       3.172   1.835  -0.021  0.00  0.00    +0.145 HD
ENDBRANCH  13  23
BRANCH  12  26
ATOM     26  C   UNL     1       0.002  -0.004   0.002  0.00  0.00    +0.101 C 
ATOM     27  N   UNL     1       0.018  -1.140  -0.004  0.00  0.00    -0.191 NA
ENDBRANCH  12  26
TORSDOF 3
