REMARK  Name = ZINC44687588
REMARK  6 active torsions:
REMARK  status: ('A' for Active; 'I' for Inactive)
REMARK    1  A    between atoms: C_1  and  C_2
REMARK    2  A    between atoms: C_4  and  C_7
REMARK    3  A    between atoms: C_7  and  N_8
REMARK    4  A    between atoms: N_8  and  S_9
REMARK    5  A    between atoms: S_9  and  C_12
REMARK    6  A    between atoms: C_15  and  N_19
REMARK                            x       y       z     vdW  Elec       q    Type
REMARK                         _______ _______ _______ _____ _____    ______ ____
ROOT
ATOM      1  S   UNL     1      -2.285  -5.350  -1.678  0.00  0.00    +0.060 S 
ATOM      2  O   UNL     1      -2.379  -5.486  -3.090  0.00  0.00    -0.153 OA
ATOM      3  O   UNL     1      -1.524  -6.244  -0.876  0.00  0.00    -0.153 OA
ENDROOT
BRANCH   1   4
ATOM      4  C   UNL     1      -3.933  -5.393  -1.056  0.00  0.00    +0.124 A 
ATOM      5  C   UNL     1      -4.994  -5.568  -1.926  0.00  0.00    +0.032 A 
ATOM      6  C   UNL     1      -6.287  -5.602  -1.442  0.00  0.00    +0.025 A 
ATOM      7  C   UNL     1      -6.521  -5.462  -0.080  0.00  0.00    +0.026 A 
ATOM      8  C   UNL     1      -5.454  -5.287   0.792  0.00  0.00    +0.044 A 
ATOM      9  C   UNL     1      -4.162  -5.258   0.302  0.00  0.00    +0.069 A 
ATOM     10 CL   UNL     1      -2.826  -5.047   1.390  0.00  0.00    -0.081 Cl
BRANCH   7  11
ATOM     11  N   UNL     1      -7.828  -5.496   0.413  0.00  0.00    -0.358 N 
ATOM     12  H   UNL     1      -8.573  -5.617  -0.197  0.00  0.00    +0.142 HD
ATOM     13  H   UNL     1      -7.991  -5.398   1.364  0.00  0.00    +0.142 HD
ENDBRANCH   7  11
ENDBRANCH   1   4
BRANCH   1  14
ATOM     14  N   UNL     1      -1.691  -3.832  -1.387  0.00  0.00    -0.184 NA
ATOM     15  H   UNL     1      -1.470  -3.247  -2.129  0.00  0.00    +0.148 HD
BRANCH  14  16
ATOM     16  C   UNL     1      -1.500  -3.372  -0.010  0.00  0.00    +0.164 C 
BRANCH  16  20
ATOM     17  C   UNL     1      -0.018   1.503   0.010  0.00  0.00    +0.089 C 
ATOM     18  C   UNL     1       0.002  -0.004   0.002  0.00  0.00    +0.135 A 
ATOM     19  C   UNL     1      -1.077  -0.810   0.003  0.00  0.00    +0.072 A 
ATOM     20  C   UNL     1      -0.627  -2.143  -0.007  0.00  0.00    +0.099 A 
ATOM     21  N   UNL     1       0.676  -2.130  -0.013  0.00  0.00    -0.082 NA
ATOM     22  O   UNL     1       1.098  -0.778  -0.013  0.00  0.00    -0.360 OA
ENDBRANCH  16  20
ENDBRANCH  14  16
ENDBRANCH   1  14
TORSDOF 5
