REMARK  Name = ZINC51171518
REMARK  4 active torsions:
REMARK  status: ('A' for Active; 'I' for Inactive)
REMARK    1  A    between atoms: C_1  and  N_2
REMARK    2  A    between atoms: N_2  and  C_3
REMARK    3  A    between atoms: C_3  and  C_5
REMARK    4  A    between atoms: C_3  and  C_19
REMARK                            x       y       z     vdW  Elec       q    Type
REMARK                         _______ _______ _______ _____ _____    ______ ____
ROOT
ATOM      1  C   UNL     1       0.603  -1.981  -1.277  0.00  0.00    -0.055 A 
ATOM      2  C   UNL     1       0.742  -2.735  -0.124  0.00  0.00    +0.004 A 
ATOM      3  C   UNL     1       0.664  -4.111  -0.180  0.00  0.00    +0.028 A 
ATOM      4  C   UNL     1       0.446  -4.747  -1.397  0.00  0.00    +0.066 A 
ATOM      5  C   UNL     1       0.306  -3.987  -2.560  0.00  0.00    +0.066 A 
ATOM      6  C   UNL     1       0.380  -2.600  -2.490  0.00  0.00    +0.030 A 
ATOM      7  N   UNL     1       0.088  -4.605  -3.788  0.00  0.00    -0.316 N 
ATOM      8  H   UNL     1      -0.007  -4.068  -4.590  0.00  0.00    +0.169 HD
ATOM      9  C   UNL     1       0.010  -5.949  -3.864  0.00  0.00    +0.314 A 
ATOM     10  O   UNL     1      -0.180  -6.492  -4.934  0.00  0.00    -0.262 OA
ATOM     11  C   UNL     1       0.159  -6.761  -2.622  0.00  0.00    +0.314 A 
ATOM     12  O   UNL     1       0.091  -7.973  -2.670  0.00  0.00    -0.262 OA
ATOM     13  N   UNL     1       0.370  -6.136  -1.446  0.00  0.00    -0.316 N 
ATOM     14  H   UNL     1       0.469  -6.655  -0.633  0.00  0.00    +0.169 HD
ENDROOT
BRANCH   1  15
ATOM     15  C   UNL     1       0.690  -0.478  -1.207  0.00  0.00    -0.003 C 
BRANCH  15  16
ATOM     16  C   UNL     1       2.137  -0.060  -1.158  0.00  0.00    -0.019 A 
ATOM     17  C   UNL     1       2.925   0.405  -2.158  0.00  0.00    +0.011 A 
ATOM     18  C   UNL     1       4.239   0.731  -1.879  0.00  0.00    +0.028 A 
ATOM     19  C   UNL     1       4.701   0.575  -0.613  0.00  0.00    +0.078 A 
ATOM     20  S   UNL     1       3.255  -0.041   0.234  0.00  0.00    -0.083 S 
ATOM     21 CL   UNL     1       6.284   0.898   0.021  0.00  0.00    -0.076 Cl
ENDBRANCH  15  16
BRANCH  15  23
ATOM     22  C   UNL     1      -0.018   1.465   0.010  0.00  0.00    -0.099 C 
ATOM     23  N   UNL     1       0.002  -0.004   0.002  0.00  0.00    +0.385 N 
ATOM     24  H   UNL     1       0.490  -0.338   0.820  0.00  0.00    -0.085 HD
ATOM     25  H   UNL     1      -0.945  -0.353   0.009  0.00  0.00    -0.085 HD
ENDBRANCH  15  23
ENDBRANCH   1  15
TORSDOF 3
