REMARK  Name = ZINC37285529
REMARK  6 active torsions:
REMARK  status: ('A' for Active; 'I' for Inactive)
REMARK    1  A    between atoms: C_1  and  N_2
REMARK    2  A    between atoms: C_3  and  S_7
REMARK    3  A    between atoms: S_7  and  C_8
REMARK    4  A    between atoms: C_8  and  C_9
REMARK    5  A    between atoms: N_11  and  C_12
REMARK    6  A    between atoms: C_15  and  N_19
REMARK                            x       y       z     vdW  Elec       q    Type
REMARK                         _______ _______ _______ _____ _____    ______ ____
ROOT
ATOM      1  C   UNL     1       0.006  -1.596  -5.168  0.00  0.00    +0.228 C 
ATOM      2  O   UNL     1      -0.016  -0.449  -5.563  0.00  0.00    -0.275 OA
ATOM      3  N   UNL     1       0.010  -2.613  -6.052  0.00  0.00    -0.284 N 
ATOM      4  H   UNL     1       0.094  -3.528  -5.738  0.00  0.00    +0.155 HD
ENDROOT
BRANCH   3   5
ATOM      5  C   UNL     1      -0.105  -2.350  -7.424  0.00  0.00    +0.048 A 
ATOM      6  C   UNL     1       0.468  -1.206  -7.962  0.00  0.00    +0.026 A 
ATOM      7  C   UNL     1       0.354  -0.947  -9.313  0.00  0.00    +0.024 A 
ATOM      8  C   UNL     1      -0.334  -1.830 -10.135  0.00  0.00    +0.026 A 
ATOM      9  C   UNL     1      -0.908  -2.975  -9.597  0.00  0.00    +0.039 A 
ATOM     10  C   UNL     1      -0.789  -3.237  -8.246  0.00  0.00    +0.041 A 
ATOM     11 BR   UNL     1      -1.563  -4.800  -7.514  0.00  0.00    -0.048 Br
BRANCH   8  12
ATOM     12  N   UNL     1      -0.450  -1.567 -11.504  0.00  0.00    -0.358 N 
ATOM     13  H   UNL     1      -0.049  -0.768 -11.879  0.00  0.00    +0.142 HD
ATOM     14  H   UNL     1      -0.930  -2.184 -12.077  0.00  0.00    +0.142 HD
ENDBRANCH   8  12
ENDBRANCH   3   5
BRANCH   1  15
ATOM     15  C   UNL     1       0.028  -1.883  -3.688  0.00  0.00    +0.173 C 
BRANCH  15  16
ATOM     16  S   UNL     1       0.017  -0.319  -2.769  0.00  0.00    -0.075 S 
BRANCH  16  19
ATOM     17  C   UNL     1       0.024   1.464   0.008  0.00  0.00    +0.177 C 
ATOM     18  N   UNL     1       0.045  -0.001   0.001  0.00  0.00    -0.223 N 
ATOM     19  C   UNL     1       0.044  -0.818  -1.079  0.00  0.00    +0.210 A 
ATOM     20  N   UNL     1       0.068  -2.054  -0.629  0.00  0.00    -0.102 NA
ATOM     21  N   UNL     1       0.083  -2.065   0.655  0.00  0.00    -0.022 NA
ATOM     22  N   UNL     1       0.077  -0.860   1.113  0.00  0.00    -0.043 NA
ENDBRANCH  16  19
ENDBRANCH  15  16
ENDBRANCH   1  15
TORSDOF 5
