REMARK  Name = ZINC33680931
REMARK  8 active torsions:
REMARK  status: ('A' for Active; 'I' for Inactive)
REMARK    1  A    between atoms: C_1  and  C_2
REMARK    2  A    between atoms: C_5  and  N_9
REMARK    3  A    between atoms: C_6  and  C_8
REMARK    4  A    between atoms: C_10  and  C_12
REMARK    5  A    between atoms: N_17  and  C_30
REMARK    6  A    between atoms: N_19  and  C_20
REMARK    7  A    between atoms: C_23  and  O_27
REMARK    8  A    between atoms: O_27  and  C_28
REMARK                            x       y       z     vdW  Elec       q    Type
REMARK                         _______ _______ _______ _____ _____    ______ ____
ROOT
ATOM      1  C   UNL     1      -0.134  -6.343  -1.187  0.00  0.00    +0.149 C 
ATOM      2  C   UNL     1       0.584  -6.906  -2.415  0.00  0.00    +0.120 C 
ATOM      3  C   UNL     1       0.352  -8.367  -2.590  0.00  0.00    +0.223 C 
ATOM      4  O   UNL     1       1.234  -8.975  -3.159  0.00  0.00    -0.275 OA
ATOM      5  N   UNL     1      -0.689  -9.091  -2.207  0.00  0.00    -0.254 N 
ATOM      6  C   UNL     1      -1.725  -8.611  -1.425  0.00  0.00    +0.164 C 
ATOM      7  N   UNL     1      -2.555  -9.425  -0.818  0.00  0.00    -0.226 NA
ATOM      8  S   UNL     1      -1.882  -6.852  -1.275  0.00  0.00    -0.077 S 
ATOM      9  C   UNL     1      -0.748 -10.489  -2.640  0.00  0.00    +0.140 C 
ENDROOT
BRANCH   7  10
ATOM     10  C   UNL     1      -3.572  -8.919  -0.049  0.00  0.00    +0.068 A 
ATOM     11  C   UNL     1      -3.321  -7.875   0.843  0.00  0.00    +0.031 A 
ATOM     12  C   UNL     1      -4.347  -7.368   1.614  0.00  0.00    +0.049 A 
ATOM     13  C   UNL     1      -5.626  -7.894   1.504  0.00  0.00    +0.138 A 
ATOM     14  C   UNL     1      -5.880  -8.933   0.619  0.00  0.00    +0.085 A 
ATOM     15  C   UNL     1      -4.861  -9.442  -0.161  0.00  0.00    +0.051 A 
ATOM     16 CL   UNL     1      -7.482  -9.588   0.487  0.00  0.00    -0.080 Cl
BRANCH  13  17
ATOM     17  O   UNL     1      -6.634  -7.391   2.267  0.00  0.00    -0.494 OA
ATOM     18  C   UNL     1      -6.303  -6.324   3.157  0.00  0.00    +0.277 C 
ENDBRANCH  13  17
ENDBRANCH   7  10
BRANCH   1  20
ATOM     19  N   UNL     1       0.059  -4.170  -0.021  0.00  0.00    -0.284 N 
ATOM     20  C   UNL     1      -0.040  -4.839  -1.187  0.00  0.00    +0.231 C 
ATOM     21  O   UNL     1      -0.054  -4.230  -2.236  0.00  0.00    -0.274 OA
ATOM     22  H   UNL     1       0.135  -4.658   0.814  0.00  0.00    +0.155 HD
BRANCH  19  27
ATOM     23  C   UNL     1       0.025   1.503   0.005  0.00  0.00    +0.044 C 
ATOM     24  C   UNL     1       0.034  -0.004  -0.002  0.00  0.00    -0.050 A 
ATOM     25  C   UNL     1       0.632  -0.685  -1.046  0.00  0.00    +0.005 A 
ATOM     26  C   UNL     1       0.641  -2.066  -1.055  0.00  0.00    +0.024 A 
ATOM     27  C   UNL     1       0.051  -2.771  -0.014  0.00  0.00    +0.036 A 
ATOM     28  C   UNL     1      -0.548  -2.083   1.033  0.00  0.00    -0.029 A 
ATOM     29  C   UNL     1      -0.550  -0.702   1.039  0.00  0.00    +0.008 A 
ATOM     30  C   UNL     1      -1.190  -2.843   2.165  0.00  0.00    +0.045 C 
ENDBRANCH  19  27
ENDBRANCH   1  20
TORSDOF 4
