REMARK  Name = ZINC67396922
REMARK  8 active torsions:
REMARK  status: ('A' for Active; 'I' for Inactive)
REMARK    1  A    between atoms: C_1  and  C_2
REMARK    2  A    between atoms: C_2  and  C_4
REMARK    3  A    between atoms: C_2  and  N_12
REMARK    4  A    between atoms: C_4  and  C_5
REMARK    5  A    between atoms: C_8  and  O_11
REMARK    6  A    between atoms: C_13  and  C_15
REMARK    7  A    between atoms: N_17  and  C_18
REMARK    8  A    between atoms: C_20  and  N_26
REMARK                            x       y       z     vdW  Elec       q    Type
REMARK                         _______ _______ _______ _____ _____    ______ ____
ROOT
ATOM      1  N   UNL     1       0.718  -0.466   1.196  0.00  0.00    -0.305 N 
ATOM      2  C   UNL     1       0.057  -0.616   2.360  0.00  0.00    +0.300 C 
ATOM      3  O   UNL     1      -1.123  -0.340   2.428  0.00  0.00    -0.265 OA
ATOM      4  H   UNL     1       1.661  -0.686   1.141  0.00  0.00    +0.149 HD
ENDROOT
BRANCH   2   5
ATOM      5  C   UNL     1       0.775  -1.122   3.567  0.00  0.00    +0.303 C 
ATOM      6  O   UNL     1       1.956  -1.398   3.500  0.00  0.00    -0.265 OA
ATOM      7  N   UNL     1       0.114  -1.272   4.732  0.00  0.00    -0.275 N 
ATOM      8  H   UNL     1      -0.812  -0.991   4.804  0.00  0.00    +0.155 HD
BRANCH   7   9
ATOM      9  C   UNL     1       0.762  -1.834   5.837  0.00  0.00    +0.072 A 
ATOM     10  C   UNL     1       2.114  -1.592   6.048  0.00  0.00    +0.062 A 
ATOM     11  C   UNL     1       2.752  -2.147   7.139  0.00  0.00    +0.163 A 
ATOM     12  C   UNL     1       2.046  -2.945   8.025  0.00  0.00    +0.156 A 
ATOM     13  C   UNL     1       0.699  -3.188   7.819  0.00  0.00    +0.081 A 
ATOM     14  C   UNL     1       0.053  -2.630   6.731  0.00  0.00    +0.147 A 
ATOM     15  F   UNL     1      -1.263  -2.862   6.532  0.00  0.00    -0.203 F 
ATOM     16  F   UNL     1       2.674  -3.486   9.092  0.00  0.00    -0.203 F 
BRANCH  11  17
ATOM     17  N   UNL     1       4.192  -1.890   7.363  0.00  0.00    +0.059 N 
ATOM     18  O   UNL     1       4.809  -1.194   6.590  0.00  0.00    -0.126 OA
ATOM     19  O   UNL     1       4.752  -2.376   8.318  0.00  0.00    -0.126 OA
ENDBRANCH  11  17
ENDBRANCH   7   9
ENDBRANCH   2   5
BRANCH   1  21
ATOM     20  C   UNL     1      -0.003   1.560   0.031  0.00  0.00    +0.028 C 
ATOM     21  C   UNL     1       0.013   0.031   0.011  0.00  0.00    +0.075 C 
BRANCH  21  22
ATOM     22  C   UNL     1       0.729  -0.456  -1.250  0.00  0.00    +0.057 C 
BRANCH  22  23
ATOM     23  C   UNL     1       0.637  -1.958  -1.332  0.00  0.00    -0.045 A 
ATOM     24  C   UNL     1       1.615  -2.742  -0.747  0.00  0.00    +0.007 A 
ATOM     25  C   UNL     1       1.533  -4.119  -0.821  0.00  0.00    +0.045 A 
ATOM     26  C   UNL     1       0.469  -4.715  -1.482  0.00  0.00    +0.117 A 
ATOM     27  C   UNL     1      -0.510  -3.927  -2.068  0.00  0.00    +0.045 A 
ATOM     28  C   UNL     1      -0.427  -2.550  -1.987  0.00  0.00    +0.007 A 
BRANCH  26  29
ATOM     29  O   UNL     1       0.387  -6.070  -1.557  0.00  0.00    -0.507 OA
ATOM     30  H   UNL     1      -0.097  -6.475  -0.825  0.00  0.00    +0.292 HD
ENDBRANCH  26  29
ENDBRANCH  22  23
ENDBRANCH  21  22
ENDBRANCH   1  21
TORSDOF 7
