REMARK  Name = ZINC47965993
REMARK  5 active torsions:
REMARK  status: ('A' for Active; 'I' for Inactive)
REMARK    1  A    between atoms: C_1  and  C_2
REMARK    2  A    between atoms: C_2  and  C_3
REMARK    3  A    between atoms: C_2  and  C_4
REMARK    4  A    between atoms: N_6  and  N_7
REMARK    5  A    between atoms: C_8  and  C_10
REMARK                            x       y       z     vdW  Elec       q    Type
REMARK                         _______ _______ _______ _____ _____    ______ ____
ROOT
ATOM      1  N   UNL     1       2.647  -0.598  -2.614  0.00  0.00    -0.230 N 
ATOM      2  C   UNL     1       3.931  -0.253  -2.838  0.00  0.00    +0.261 C 
ATOM      3  O   UNL     1       4.519   0.449  -2.039  0.00  0.00    -0.269 OA
ATOM      4  H   UNL     1       2.177  -1.158  -3.251  0.00  0.00    +0.173 HD
ENDROOT
BRANCH   2   5
ATOM      5  C   UNL     1       4.622  -0.730  -4.053  0.00  0.00    +0.051 A 
ATOM      6  C   UNL     1       3.947  -1.532  -4.975  0.00  0.00    +0.015 A 
ATOM      7  C   UNL     1       4.597  -1.973  -6.108  0.00  0.00    +0.021 A 
ATOM      8  C   UNL     1       5.918  -1.623  -6.333  0.00  0.00    +0.042 A 
ATOM      9  C   UNL     1       6.594  -0.828  -5.423  0.00  0.00    +0.035 A 
ATOM     10  C   UNL     1       5.952  -0.375  -4.288  0.00  0.00    +0.027 A 
ATOM     11  I   UNL     1       6.974   0.836  -2.917  0.00  0.00    -0.043 I 
ATOM     12 CL   UNL     1       6.731  -2.183  -7.761  0.00  0.00    -0.084 Cl
ENDBRANCH   2   5
BRANCH   1  15
ATOM     13  C   UNL     1       0.707  -0.490  -1.238  0.00  0.00    +0.232 C 
ATOM     14  O   UNL     1       0.120  -1.191  -2.034  0.00  0.00    -0.274 OA
ATOM     15  N   UNL     1       1.991  -0.146  -1.462  0.00  0.00    -0.234 N 
ATOM     16  H   UNL     1       2.461   0.415  -0.825  0.00  0.00    +0.173 HD
BRANCH  13  18
ATOM     17  C   UNL     1      -0.019   1.526   0.010  0.00  0.00    +0.017 C 
ATOM     18  C   UNL     1       0.002  -0.004   0.002  0.00  0.00    +0.070 C 
ATOM     19  C   UNL     1      -1.433  -0.534   0.013  0.00  0.00    +0.017 C 
ENDBRANCH  13  18
ENDBRANCH   1  15
TORSDOF 3
