REMARK  Name = ZINC40672146
REMARK  5 active torsions:
REMARK  status: ('A' for Active; 'I' for Inactive)
REMARK    1  A    between atoms: C_1  and  N_2
REMARK    2  A    between atoms: C_6  and  N_9
REMARK    3  A    between atoms: N_9  and  S_10
REMARK    4  A    between atoms: S_10  and  C_13
REMARK    5  A    between atoms: C_15  and  N_21
REMARK                            x       y       z     vdW  Elec       q    Type
REMARK                         _______ _______ _______ _____ _____    ______ ____
ROOT
ATOM      1  S   UNL     1       0.842  -3.851   3.211  0.00  0.00    +0.061 S 
ATOM      2  O   UNL     1       1.743  -4.074   4.287  0.00  0.00    -0.153 OA
ATOM      3  O   UNL     1      -0.555  -3.679   3.410  0.00  0.00    -0.153 OA
ENDROOT
BRANCH   1   4
ATOM      4  C   UNL     1       1.029  -5.212   2.107  0.00  0.00    +0.143 A 
ATOM      5  C   UNL     1       1.911  -6.231   2.411  0.00  0.00    +0.054 A 
ATOM      6  C   UNL     1       2.059  -7.303   1.541  0.00  0.00    +0.028 A 
ATOM      7  C   UNL     1       1.319  -7.350   0.367  0.00  0.00    +0.045 A 
ATOM      8  C   UNL     1       0.437  -6.329   0.067  0.00  0.00    +0.080 A 
ATOM      9  C   UNL     1       0.288  -5.262   0.939  0.00  0.00    +0.168 A 
ATOM     10  F   UNL     1      -0.578  -4.267   0.646  0.00  0.00    -0.202 F 
ATOM     11 CL   UNL     1      -0.488  -6.385  -1.401  0.00  0.00    -0.080 Cl
BRANCH   6  12
ATOM     12  N   UNL     1       2.952  -8.335   1.847  0.00  0.00    -0.358 N 
ATOM     13  H   UNL     1       3.468  -8.302   2.667  0.00  0.00    +0.142 HD
ATOM     14  H   UNL     1       3.054  -9.084   1.239  0.00  0.00    +0.142 HD
ENDBRANCH   6  12
ENDBRANCH   1   4
BRANCH   1  15
ATOM     15  N   UNL     1       1.377  -2.500   2.417  0.00  0.00    -0.189 NA
ATOM     16  H   UNL     1       2.161  -2.027   2.738  0.00  0.00    +0.148 HD
BRANCH  15  22
ATOM     17  C   UNL     1      -0.018   1.465   0.010  0.00  0.00    -0.096 C 
ATOM     18  N   UNL     1       0.002  -0.004   0.002  0.00  0.00    +0.379 N 
ATOM     19  C   UNL     1       0.681  -0.476  -1.210  0.00  0.00    -0.079 C 
ATOM     20  C   UNL     1       0.634  -2.005  -1.264  0.00  0.00    -0.017 C 
ATOM     21  C   UNL     1       1.336  -2.575  -0.029  0.00  0.00    +0.017 C 
ATOM     22  C   UNL     1       0.666  -2.018   1.230  0.00  0.00    +0.060 C 
ATOM     23  C   UNL     1       0.712  -0.489   1.192  0.00  0.00    -0.059 C 
ATOM     24  H   UNL     1      -0.945  -0.352   0.012  0.00  0.00    -0.082 HD
ENDBRANCH  15  22
ENDBRANCH   1  15
TORSDOF 4
