REMARK  Name = ZINC16223077
REMARK  8 active torsions:
REMARK  status: ('A' for Active; 'I' for Inactive)
REMARK    1  A    between atoms: C_1  and  C_2
REMARK    2  A    between atoms: C_4  and  S_22
REMARK    3  A    between atoms: C_6  and  N_9
REMARK    4  A    between atoms: C_7  and  C_8
REMARK    5  A    between atoms: C_10  and  C_12
REMARK    6  A    between atoms: C_12  and  S_13
REMARK    7  A    between atoms: S_13  and  C_14
REMARK    8  A    between atoms: S_22  and  N_25
REMARK                            x       y       z     vdW  Elec       q    Type
REMARK                         _______ _______ _______ _____ _____    ______ ____
ROOT
ATOM      1  C   UNL     1      -1.173   4.874   3.729  0.00  0.00    +0.044 C 
ATOM      2  C   UNL     1      -1.410   3.515   3.123  0.00  0.00    -0.044 A 
ATOM      3  C   UNL     1      -0.694   3.123   2.006  0.00  0.00    +0.032 A 
ATOM      4  C   UNL     1      -0.912   1.879   1.443  0.00  0.00    +0.107 A 
ATOM      5  C   UNL     1      -1.838   1.019   2.002  0.00  0.00    +0.052 A 
ATOM      6  C   UNL     1      -2.554   1.407   3.126  0.00  0.00    +0.038 A 
ATOM      7  C   UNL     1      -2.337   2.660   3.686  0.00  0.00    -0.026 A 
ATOM      8  C   UNL     1      -3.112   3.086   4.906  0.00  0.00    +0.046 C 
ENDROOT
BRANCH   6   9
ATOM      9  N   UNL     1      -3.492   0.539   3.694  0.00  0.00    -0.285 N 
ATOM     10  C   UNL     1      -4.219  -0.278   2.906  0.00  0.00    +0.227 C 
ATOM     11  O   UNL     1      -4.002  -0.319   1.713  0.00  0.00    -0.275 OA
ATOM     12  H   UNL     1      -3.620   0.525   4.656  0.00  0.00    +0.155 HD
BRANCH  10  13
ATOM     13  C   UNL     1      -5.300  -1.139   3.506  0.00  0.00    +0.170 C 
BRANCH  13  14
ATOM     14  S   UNL     1      -6.089  -2.117   2.197  0.00  0.00    -0.114 S 
BRANCH  14  15
ATOM     15  C   UNL     1      -7.312  -3.058   3.048  0.00  0.00    +0.028 A 
ATOM     16  C   UNL     1      -7.461  -2.926   4.423  0.00  0.00    +0.036 A 
ATOM     17  C   UNL     1      -8.425  -3.662   5.086  0.00  0.00    +0.042 A 
ATOM     18  C   UNL     1      -9.234  -4.537   4.383  0.00  0.00    +0.021 A 
ATOM     19  C   UNL     1      -9.086  -4.675   3.015  0.00  0.00    +0.022 A 
ATOM     20  C   UNL     1      -8.128  -3.938   2.345  0.00  0.00    +0.054 A 
ATOM     21 CL   UNL     1      -7.943  -4.112   0.628  0.00  0.00    -0.082 Cl
ATOM     22 CL   UNL     1      -8.616  -3.493   6.803  0.00  0.00    -0.084 Cl
ENDBRANCH  14  15
ENDBRANCH  13  14
ENDBRANCH  10  13
ENDBRANCH   6   9
BRANCH   4  23
ATOM     23  S   UNL     1      -0.003   1.387   0.016  0.00  0.00    +0.056 S 
ATOM     24  O   UNL     1       0.006  -0.034   0.010  0.00  0.00    -0.153 OA
ATOM     25  O   UNL     1       1.192   2.156   0.011  0.00  0.00    -0.153 OA
BRANCH  23  26
ATOM     26  N   UNL     1      -0.877   1.860  -1.308  0.00  0.00    -0.204 NA
ATOM     27  H   UNL     1      -1.184   1.199  -1.948  0.00  0.00    +0.144 HD
ATOM     28  H   UNL     1      -1.082   2.798  -1.444  0.00  0.00    +0.144 HD
ENDBRANCH  23  26
ENDBRANCH   4  23
TORSDOF 6
