REMARK  Name = ZINC61843598
REMARK  2 active torsions:
REMARK  status: ('A' for Active; 'I' for Inactive)
REMARK    1  A    between atoms: C_10  and  C_12
REMARK    2  A    between atoms: C_12  and  N_14
REMARK                            x       y       z     vdW  Elec       q    Type
REMARK                         _______ _______ _______ _____ _____    ______ ____
ROOT
ATOM      1  C   UNL     1      -0.017   1.377   0.010  0.00  0.00    +0.021 A 
ATOM      2  C   UNL     1       1.184   2.073   0.002  0.00  0.00    +0.020 A 
ATOM      3  C   UNL     1       2.366   1.350  -0.013  0.00  0.00    +0.062 A 
ATOM      4  C   UNL     1       2.308  -0.039  -0.020  0.00  0.00    +0.170 A 
ATOM      5  N   UNL     1       1.143  -0.665  -0.013  0.00  0.00    -0.235 NA
ATOM      6  C   UNL     1       0.002  -0.004   0.002  0.00  0.00    +0.113 A 
ATOM      7  N   UNL     1       3.494  -0.781  -0.035  0.00  0.00    -0.200 N 
ATOM      8  C   UNL     1       3.661  -2.046   0.409  0.00  0.00    +0.227 A 
ATOM      9  N   UNL     1       4.908  -2.384   0.222  0.00  0.00    -0.213 NA
ATOM     10  C   UNL     1       5.576  -1.364  -0.340  0.00  0.00    +0.203 A 
ATOM     11  N   UNL     1       4.742  -0.360  -0.521  0.00  0.00    -0.142 NA
ATOM     12 BR   UNL     1       4.034   2.241  -0.025  0.00  0.00    -0.046 Br
ENDROOT
BRANCH  10  13
ATOM     13  C   UNL     1       7.008  -1.369  -0.701  0.00  0.00    +0.116 C 
ATOM     14  S   UNL     1       7.716   0.017  -1.413  0.00  0.00    -0.032 S 
BRANCH  13  15
ATOM     15  N   UNL     1       7.757  -2.465  -0.469  0.00  0.00    -0.349 N 
ATOM     16  H   UNL     1       7.356  -3.251  -0.065  0.00  0.00    +0.143 HD
ATOM     17  H   UNL     1       8.698  -2.469  -0.706  0.00  0.00    +0.143 HD
ENDBRANCH  13  15
ENDBRANCH  10  13
TORSDOF 2
