REMARK  Name = ZINC40381728
REMARK  5 active torsions:
REMARK  status: ('A' for Active; 'I' for Inactive)
REMARK    1  A    between atoms: C_1  and  N_2
REMARK    2  A    between atoms: C_6  and  C_7
REMARK    3  A    between atoms: N_9  and  C_10
REMARK    4  A    between atoms: C_15  and  S_16
REMARK    5  A    between atoms: S_16  and  N_19
REMARK                            x       y       z     vdW  Elec       q    Type
REMARK                         _______ _______ _______ _____ _____    ______ ____
ROOT
ATOM      1  C   UNL     1      -0.397   1.368   4.112  0.00  0.00    +0.063 A 
ATOM      2  C   UNL     1      -0.290   0.450   5.149  0.00  0.00    +0.063 A 
ATOM      3  C   UNL     1      -0.295   0.888   6.461  0.00  0.00    +0.125 A 
ATOM      4  C   UNL     1      -0.407   2.240   6.740  0.00  0.00    +0.040 A 
ATOM      5  C   UNL     1      -0.513   3.155   5.709  0.00  0.00    +0.033 A 
ATOM      6  C   UNL     1      -0.504   2.723   4.396  0.00  0.00    +0.126 A 
ATOM      7  F   UNL     1      -0.192  -0.004   7.470  0.00  0.00    -0.205 F 
ENDROOT
BRANCH   1  10
ATOM      8  C   UNL     1      -0.434  -0.390   2.511  0.00  0.00    +0.265 C 
ATOM      9  O   UNL     1      -0.516  -1.198   3.418  0.00  0.00    -0.268 OA
ATOM     10  N   UNL     1      -0.393   0.929   2.784  0.00  0.00    -0.279 N 
ATOM     11  H   UNL     1      -0.359   1.574   2.061  0.00  0.00    +0.155 HD
BRANCH   8  17
ATOM     12  C   UNL     1      -0.719  -3.321   1.550  0.00  0.00    +0.149 C 
ATOM     13  N   UNL     1      -0.506  -2.154   0.690  0.00  0.00    -0.345 N 
ATOM     14  C   UNL     1      -0.406  -2.175  -0.663  0.00  0.00    +0.106 A 
ATOM     15  C   UNL     1      -0.212  -0.909  -1.107  0.00  0.00    +0.059 A 
ATOM     16  C   UNL     1      -0.190  -0.062   0.006  0.00  0.00    +0.052 A 
ATOM     17  C   UNL     1      -0.379  -0.852   1.120  0.00  0.00    +0.106 A 
ATOM     18 CL   UNL     1      -0.025  -0.426  -2.764  0.00  0.00    -0.082 Cl
ENDBRANCH   8  17
ENDBRANCH   1  10
BRANCH   6  19
ATOM     19  S   UNL     1      -0.633   3.892   3.084  0.00  0.00    +0.058 S 
ATOM     20  O   UNL     1      -1.643   3.409   2.209  0.00  0.00    -0.153 OA
ATOM     21  O   UNL     1      -0.698   5.176   3.688  0.00  0.00    -0.153 OA
BRANCH  19  22
ATOM     22  N   UNL     1       0.790   3.838   2.239  0.00  0.00    -0.203 NA
ATOM     23  H   UNL     1       0.798   4.037   1.289  0.00  0.00    +0.144 HD
ATOM     24  H   UNL     1       1.616   3.608   2.693  0.00  0.00    +0.144 HD
ENDBRANCH  19  22
ENDBRANCH   6  19
TORSDOF 4
