REMARK  Name = ZINC40371690
REMARK  4 active torsions:
REMARK  status: ('A' for Active; 'I' for Inactive)
REMARK    1  A    between atoms: C_4  and  C_8
REMARK    2  A    between atoms: N_10  and  C_11
REMARK    3  A    between atoms: C_11  and  C_12
REMARK    4  A    between atoms: N_13  and  O_14
REMARK                            x       y       z     vdW  Elec       q    Type
REMARK                         _______ _______ _______ _____ _____    ______ ____
ROOT
ATOM      1  C   UNL     1       3.696  -0.685  -0.037  0.00  0.00    +0.246 C 
ATOM      2  O   UNL     1       4.738  -0.061  -0.044  0.00  0.00    -0.270 OA
ATOM      3  N   UNL     1       3.717  -2.033  -0.045  0.00  0.00    -0.304 N 
ATOM      4  H   UNL     1       2.885  -2.531  -0.039  0.00  0.00    +0.149 HD
ENDROOT
BRANCH   1   8
ATOM      5  C   UNL     1      -0.017   1.381   0.010  0.00  0.00    +0.021 A 
ATOM      6  C   UNL     1       1.168   2.095   0.002  0.00  0.00    +0.022 A 
ATOM      7  C   UNL     1       2.378   1.430  -0.013  0.00  0.00    +0.053 A 
ATOM      8  C   UNL     1       2.404   0.033  -0.021  0.00  0.00    +0.056 A 
ATOM      9  C   UNL     1       1.205  -0.681  -0.013  0.00  0.00    +0.034 A 
ATOM     10  C   UNL     1       0.002  -0.004   0.002  0.00  0.00    +0.042 A 
ATOM     11 CL   UNL     1      -1.491  -0.890   0.011  0.00  0.00    -0.084 Cl
ATOM     12 CL   UNL     1       3.864   2.328  -0.023  0.00  0.00    -0.083 Cl
ENDBRANCH   1   8
BRANCH   3  13
ATOM     13  C   UNL     1       4.997  -2.745  -0.061  0.00  0.00    +0.179 C 
BRANCH  13  14
ATOM     14  C   UNL     1       4.746  -4.231  -0.067  0.00  0.00    +0.149 C 
ATOM     15  N   UNL     1       3.535  -4.681  -0.057  0.00  0.00    -0.075 NA
ATOM     16  N   UNL     1       5.807  -5.109  -0.082  0.00  0.00    -0.343 N 
ATOM     17  H   UNL     1       6.716  -4.771  -0.089  0.00  0.00    +0.144 HD
ATOM     18  H   UNL     1       5.645  -6.065  -0.086  0.00  0.00    +0.144 HD
BRANCH  15  19
ATOM     19  O   UNL     1       3.299  -6.077  -0.062  0.00  0.00    -0.408 OA
ATOM     20  H   UNL     1       2.362  -6.317  -0.054  0.00  0.00    +0.328 HD
ENDBRANCH  15  19
ENDBRANCH  13  14
ENDBRANCH   3  13
TORSDOF 4
