REMARK  Name = ZINC55997055
REMARK  8 active torsions:
REMARK  status: ('A' for Active; 'I' for Inactive)
REMARK    1  A    between atoms: C_1  and  C_2
REMARK    2  A    between atoms: C_2  and  C_4
REMARK    3  A    between atoms: C_2  and  N_18
REMARK    4  A    between atoms: N_6  and  C_7
REMARK    5  A    between atoms: C_7  and  C_8
REMARK    6  A    between atoms: C_8  and  C_9
REMARK    7  A    between atoms: C_8  and  C_10
REMARK    8  A    between atoms: C_8  and  C_11
REMARK                            x       y       z     vdW  Elec       q    Type
REMARK                         _______ _______ _______ _____ _____    ______ ____
ROOT
ATOM      1  C   UNL     1       0.731  -0.503   1.223  0.00  0.00    +0.233 C 
ATOM      2  O   UNL     1       0.159  -1.213   2.023  0.00  0.00    -0.274 OA
ATOM      3  N   UNL     1       2.019  -0.161   1.426  0.00  0.00    -0.313 N 
ATOM      4  H   UNL     1       2.476   0.406   0.786  0.00  0.00    +0.149 HD
ENDROOT
BRANCH   1   6
ATOM      5  C   UNL     1      -0.019   1.526   0.010  0.00  0.00    +0.038 C 
ATOM      6  C   UNL     1       0.002  -0.004   0.002  0.00  0.00    +0.157 C 
BRANCH   6   7
ATOM      7  N   UNL     1      -1.372  -0.511   0.012  0.00  0.00    -0.289 N 
ATOM      8  C   UNL     1      -2.051  -0.643  -1.145  0.00  0.00    +0.298 C 
ATOM      9  O   UNL     1      -1.522  -0.341  -2.197  0.00  0.00    -0.253 OA
ATOM     10  N   UNL     1      -3.315  -1.109  -1.135  0.00  0.00    -0.313 N 
ATOM     11  H   UNL     1      -1.794  -0.752   0.852  0.00  0.00    +0.151 HD
ATOM     12  H   UNL     1      -3.737  -1.350  -0.295  0.00  0.00    +0.146 HD
ATOM     13  H   UNL     1      -3.804  -1.204  -1.968  0.00  0.00    +0.146 HD
ENDBRANCH   6   7
ENDBRANCH   1   6
BRANCH   3  14
ATOM     14  C   UNL     1       2.727  -0.647   2.613  0.00  0.00    +0.115 C 
BRANCH  14  15
ATOM     15  C   UNL     1       4.163  -0.117   2.602  0.00  0.00    +0.006 C 
ATOM     16  C   UNL     1       4.879  -0.610   1.343  0.00  0.00    +0.017 C 
ATOM     17  C   UNL     1       4.142   1.413   2.610  0.00  0.00    +0.017 C 
BRANCH  15  18
ATOM     18  C   UNL     1       4.891  -0.616   3.823  0.00  0.00    -0.040 A 
ATOM     19  C   UNL     1       4.241  -1.430   4.731  0.00  0.00    +0.005 A 
ATOM     20  C   UNL     1       4.909  -1.888   5.851  0.00  0.00    +0.015 A 
ATOM     21  C   UNL     1       6.229  -1.533   6.062  0.00  0.00    +0.018 A 
ATOM     22  C   UNL     1       6.880  -0.719   5.153  0.00  0.00    +0.015 A 
ATOM     23  C   UNL     1       6.212  -0.265   4.030  0.00  0.00    +0.005 A 
ATOM     24 BR   UNL     1       7.144  -2.159   7.594  0.00  0.00    -0.050 Br
ENDBRANCH  15  18
ENDBRANCH  14  15
ENDBRANCH   3  14
TORSDOF 5
