REMARK  Name = ZINC40835528
REMARK  4 active torsions:
REMARK  status: ('A' for Active; 'I' for Inactive)
REMARK    1  A    between atoms: C_11  and  C_13
REMARK    2  A    between atoms: C_13  and  C_15
REMARK    3  A    between atoms: C_13  and  N_19
REMARK    4  A    between atoms: C_15  and  C_16
REMARK                            x       y       z     vdW  Elec       q    Type
REMARK                         _______ _______ _______ _____ _____    ______ ____
ROOT
ATOM      1  C   UNL     1      -0.339   1.359   0.090  0.00  0.00    +0.002 A 
ATOM      2  C   UNL     1       0.805   2.135   0.124  0.00  0.00    +0.004 A 
ATOM      3  C   UNL     1       2.052   1.540   0.133  0.00  0.00    +0.047 A 
ATOM      4  C   UNL     1       2.162   0.157   0.107  0.00  0.00    +0.142 A 
ATOM      5  C   UNL     1       1.009  -0.622   0.076  0.00  0.00    +0.078 A 
ATOM      6  C   UNL     1      -0.239  -0.020   0.066  0.00  0.00    +0.027 A 
ATOM      7  N   UNL     1       1.115  -2.024   0.058  0.00  0.00    -0.266 N 
ATOM      8  C   UNL     1       2.435  -2.606  -0.239  0.00  0.00    +0.154 C 
ATOM      9  C   UNL     1       3.486  -1.786   0.523  0.00  0.00    +0.248 C 
ATOM     10  O   UNL     1       3.392  -0.420   0.111  0.00  0.00    -0.489 OA
ATOM     11  C   UNL     1       0.046  -2.807   0.304  0.00  0.00    +0.206 C 
ATOM     12  O   UNL     1      -1.005  -2.309   0.649  0.00  0.00    -0.277 OA
ENDROOT
BRANCH  11  13
ATOM     13  C   UNL     1       0.157  -4.302   0.153  0.00  0.00    +0.022 C 
BRANCH  13  14
ATOM     14  N   UNL     1      -1.170  -4.866  -0.127  0.00  0.00    +0.386 N 
ATOM     15  H   UNL     1      -1.096  -5.867  -0.228  0.00  0.00    -0.089 HD
ATOM     16  H   UNL     1      -1.794  -4.651   0.637  0.00  0.00    -0.089 HD
ATOM     17  H   UNL     1      -1.532  -4.467  -0.980  0.00  0.00    -0.089 HD
ENDBRANCH  13  14
BRANCH  13  18
ATOM     18  C   UNL     1       0.706  -4.907   1.446  0.00  0.00    +0.088 C 
BRANCH  18  19
ATOM     19  C   UNL     1       0.962  -6.378   1.244  0.00  0.00    +0.209 C 
ATOM     20  O   UNL     1       0.729  -6.893   0.171  0.00  0.00    -0.276 OA
ATOM     21  N   UNL     1       1.451  -7.123   2.256  0.00  0.00    -0.329 N 
ATOM     22  H   UNL     1       1.638  -6.711   3.114  0.00  0.00    +0.145 HD
ATOM     23  H   UNL     1       1.616  -8.070   2.126  0.00  0.00    +0.145 HD
ENDBRANCH  18  19
ENDBRANCH  13  18
ENDBRANCH  11  13
TORSDOF 4
