REMARK  Name = ZINC64164907
REMARK  6 active torsions:
REMARK  status: ('A' for Active; 'I' for Inactive)
REMARK    1  A    between atoms: C_7  and  C_10
REMARK    2  A    between atoms: C_10  and  C_11
REMARK    3  A    between atoms: C_11  and  C_13
REMARK    4  A    between atoms: C_11  and  N_24
REMARK    5  A    between atoms: C_18  and  C_21
REMARK    6  A    between atoms: C_25  and  O_36
REMARK                            x       y       z     vdW  Elec       q    Type
REMARK                         _______ _______ _______ _____ _____    ______ ____
ROOT
ATOM      1  C   UNL     1       0.358  -3.575  -1.466  0.00  0.00    +0.170 C 
ENDROOT
BRANCH   1   2
ATOM      2  N   UNL     1       1.542  -4.161  -2.099  0.00  0.00    -0.244 N 
ATOM      3  C   UNL     1       2.176  -3.466  -3.220  0.00  0.00    +0.300 C 
ATOM      4  N   UNL     1       2.752  -4.435  -4.159  0.00  0.00    -0.303 N 
ATOM      5  C   UNL     1       3.456  -5.521  -3.652  0.00  0.00    +0.042 A 
ATOM      6  C   UNL     1       4.480  -6.123  -4.365  0.00  0.00    +0.024 A 
ATOM      7  C   UNL     1       5.144  -7.207  -3.824  0.00  0.00    +0.002 A 
ATOM      8  C   UNL     1       4.793  -7.698  -2.577  0.00  0.00    +0.001 A 
ATOM      9  C   UNL     1       3.778  -7.108  -1.852  0.00  0.00    +0.015 A 
ATOM     10  C   UNL     1       3.104  -6.010  -2.383  0.00  0.00    +0.058 A 
ATOM     11  C   UNL     1       2.033  -5.327  -1.634  0.00  0.00    +0.252 C 
ATOM     12  O   UNL     1       1.593  -5.813  -0.610  0.00  0.00    -0.270 OA
ATOM     13  H   UNL     1       2.644  -4.319  -5.116  0.00  0.00    +0.150 HD
BRANCH   3  14
ATOM     14  O   UNL     1       3.213  -2.617  -2.725  0.00  0.00    -0.359 OA
ATOM     15  H   UNL     1       3.679  -2.123  -3.413  0.00  0.00    +0.213 HD
ENDBRANCH   3  14
ENDBRANCH   1   2
BRANCH   1  16
ATOM     16  C   UNL     1      -0.819  -4.496  -1.654  0.00  0.00    +0.237 C 
ATOM     17  O   UNL     1      -0.638  -5.666  -1.918  0.00  0.00    -0.274 OA
ATOM     18  N   UNL     1      -2.074  -4.020  -1.528  0.00  0.00    -0.300 N 
ATOM     19  C   UNL     1      -2.310  -2.604  -1.215  0.00  0.00    +0.108 C 
ATOM     20  C   UNL     1      -3.257  -2.018  -2.266  0.00  0.00    +0.034 C 
ATOM     21  C   UNL     1      -4.529  -2.867  -2.331  0.00  0.00    +0.105 C 
ATOM     22  C   UNL     1      -4.170  -4.295  -2.748  0.00  0.00    +0.034 C 
ATOM     23  C   UNL     1      -3.232  -4.906  -1.709  0.00  0.00    +0.108 C 
BRANCH  21  24
ATOM     24  C   UNL     1      -5.478  -2.273  -3.340  0.00  0.00    +0.359 C 
ATOM     25  O   UNL     1      -6.247  -2.995  -3.952  0.00  0.00    -0.246 OA
ATOM     26  O   UNL     1      -5.477  -1.071  -3.543  0.00  0.00    -0.246 OA
ENDBRANCH  21  24
ENDBRANCH   1  16
BRANCH   1  27
ATOM     27  C   UNL     1       0.622  -3.382   0.029  0.00  0.00    +0.065 C 
BRANCH  27  34
ATOM     28  C   UNL     1       0.763   1.164   0.634  0.00  0.00    +0.001 A 
ATOM     29  C   UNL     1       2.062   1.673   0.771  0.00  0.00    +0.002 A 
ATOM     30  C   UNL     1       3.160   0.889   0.727  0.00  0.00    +0.026 A 
ATOM     31  C   UNL     1       3.034  -0.514   0.536  0.00  0.00    +0.043 A 
ATOM     32  N   UNL     1       3.930  -1.468   0.458  0.00  0.00    -0.380 N 
ATOM     33  C   UNL     1       3.237  -2.745   0.253  0.00  0.00    +0.144 C 
ATOM     34  C   UNL     1       1.762  -2.415   0.218  0.00  0.00    -0.039 C 
ATOM     35  C   UNL     1       1.673  -1.077   0.389  0.00  0.00    -0.001 A 
ATOM     36  C   UNL     1       0.532  -0.155   0.449  0.00  0.00    +0.010 A 
ATOM     37  H   UNL     1       4.891  -1.349   0.524  0.00  0.00    +0.160 HD
ENDBRANCH  27  34
ENDBRANCH   1  27
TORSDOF 6
