REMARK  Name = ZINC40672850
REMARK  7 active torsions:
REMARK  status: ('A' for Active; 'I' for Inactive)
REMARK    1  A    between atoms: C_1  and  C_2
REMARK    2  A    between atoms: C_2  and  C_4
REMARK    3  A    between atoms: C_2  and  N_14
REMARK    4  A    between atoms: C_7  and  S_10
REMARK    5  A    between atoms: S_10  and  N_13
REMARK    6  A    between atoms: N_14  and  C_15
REMARK    7  A    between atoms: N_20  and  C_22
REMARK                            x       y       z     vdW  Elec       q    Type
REMARK                         _______ _______ _______ _____ _____    ______ ____
ROOT
ATOM      1  C   UNL     1       1.084   0.608   0.951  0.00  0.00    +0.029 C 
ATOM      2  C   UNL     1       0.022   0.070  -0.011  0.00  0.00    +0.081 C 
ENDROOT
BRANCH   2   3
ATOM      3  C   UNL     1      -0.687  -1.097   0.626  0.00  0.00    -0.031 A 
ATOM      4  C   UNL     1      -0.097  -2.348   0.628  0.00  0.00    +0.007 A 
ATOM      5  C   UNL     1      -0.748  -3.418   1.213  0.00  0.00    +0.029 A 
ATOM      6  C   UNL     1      -1.989  -3.238   1.795  0.00  0.00    +0.105 A 
ATOM      7  C   UNL     1      -2.579  -1.987   1.794  0.00  0.00    +0.029 A 
ATOM      8  C   UNL     1      -1.925  -0.916   1.213  0.00  0.00    +0.007 A 
BRANCH   6   9
ATOM      9  S   UNL     1      -2.819  -4.602   2.539  0.00  0.00    +0.056 S 
ATOM     10  O   UNL     1      -4.205  -4.287   2.532  0.00  0.00    -0.153 OA
ATOM     11  O   UNL     1      -2.302  -5.776   1.927  0.00  0.00    -0.153 OA
BRANCH   9  12
ATOM     12  N   UNL     1      -2.353  -4.652   4.128  0.00  0.00    -0.204 NA
ATOM     13  H   UNL     1      -1.730  -3.993   4.471  0.00  0.00    +0.144 HD
ATOM     14  H   UNL     1      -2.705  -5.340   4.715  0.00  0.00    +0.144 HD
ENDBRANCH   9  12
ENDBRANCH   6   9
ENDBRANCH   2   3
BRANCH   2  15
ATOM     15  N   UNL     1       0.667  -0.370  -1.256  0.00  0.00    -0.309 NA
ATOM     16  H   UNL     1       1.496   0.174  -1.445  0.00  0.00    +0.123 HD
BRANCH  15  17
ATOM     17  C   UNL     1      -0.272  -0.309  -2.384  0.00  0.00    +0.038 C 
ATOM     18  C   UNL     1      -0.246   1.094  -2.996  0.00  0.00    +0.015 C 
ATOM     19  C   UNL     1      -1.168   1.125  -4.218  0.00  0.00    -0.017 C 
ATOM     20  C   UNL     1      -0.723   0.051  -5.213  0.00  0.00    -0.079 C 
ATOM     21  N   UNL     1      -0.794  -1.270  -4.577  0.00  0.00    +0.379 N 
ATOM     22  C   UNL     1       0.140  -1.331  -3.447  0.00  0.00    -0.060 C 
ATOM     23  C   UNL     1      -0.440  -2.304  -5.559  0.00  0.00    -0.096 C 
ATOM     24  H   UNL     1      -1.733  -1.432  -4.245  0.00  0.00    -0.082 HD
ENDBRANCH  15  17
ENDBRANCH   2  15
TORSDOF 5
