REMARK  Name = ZINC48429275
REMARK  3 active torsions:
REMARK  status: ('A' for Active; 'I' for Inactive)
REMARK    1  A    between atoms: C_6  and  N_7
REMARK    2  A    between atoms: N_7  and  N_8
REMARK    3  A    between atoms: C_9  and  C_11
REMARK                            x       y       z     vdW  Elec       q    Type
REMARK                         _______ _______ _______ _____ _____    ______ ____
ROOT
ATOM      1  N   UNL     1      -1.198  -0.720   0.010  0.00  0.00    -0.264 N 
ATOM      2  H   UNL     1      -2.045  -0.248   0.021  0.00  0.00    +0.170 HD
ENDROOT
BRANCH   1   8
ATOM      3  C   UNL     1      -0.017   1.385   0.010  0.00  0.00    +0.026 A 
ATOM      4  C   UNL     1       1.171   2.091   0.002  0.00  0.00    +0.023 A 
ATOM      5  C   UNL     1       2.378   1.416  -0.013  0.00  0.00    +0.059 A 
ATOM      6  C   UNL     1       2.401   0.031  -0.021  0.00  0.00    +0.061 A 
ATOM      7  C   UNL     1       1.216  -0.680  -0.014  0.00  0.00    +0.046 A 
ATOM      8  C   UNL     1       0.002  -0.004   0.002  0.00  0.00    +0.046 A 
ATOM      9 CL   UNL     1       3.918  -0.812  -0.041  0.00  0.00    -0.082 Cl
ATOM     10 CL   UNL     1       3.868   2.307  -0.022  0.00  0.00    -0.082 Cl
ENDBRANCH   1   8
BRANCH   1  11
ATOM     11  N   UNL     1      -1.177  -2.121   0.002  0.00  0.00    -0.232 N 
ATOM     12  C   UNL     1      -2.335  -2.812   0.010  0.00  0.00    +0.267 C 
ATOM     13  O   UNL     1      -3.397  -2.219   0.024  0.00  0.00    -0.268 OA
ATOM     14  H   UNL     1      -0.331  -2.594  -0.009  0.00  0.00    +0.173 HD
BRANCH  12  15
ATOM     15  C   UNL     1      -2.313  -4.277   0.002  0.00  0.00    +0.077 A 
ATOM     16  C   UNL     1      -3.377  -5.166   0.002  0.00  0.00    +0.022 A 
ATOM     17  C   UNL     1      -3.042  -6.498  -0.007  0.00  0.00    +0.028 A 
ATOM     18  C   UNL     1      -1.730  -6.848  -0.016  0.00  0.00    +0.079 A 
ATOM     19  S   UNL     1      -0.913  -5.380  -0.018  0.00  0.00    -0.072 S 
ATOM     20 CL   UNL     1      -1.052  -8.446  -0.029  0.00  0.00    -0.076 Cl
ENDBRANCH  12  15
ENDBRANCH   1  11
TORSDOF 3
