REMARK  Name = ZINC06545774
REMARK  7 active torsions:
REMARK  status: ('A' for Active; 'I' for Inactive)
REMARK    1  A    between atoms: C_1  and  C_2
REMARK    2  A    between atoms: C_2  and  O_3
REMARK    3  A    between atoms: O_3  and  C_4
REMARK    4  A    between atoms: C_4  and  C_6
REMARK    5  A    between atoms: C_7  and  N_29
REMARK    6  A    between atoms: C_25  and  C_27
REMARK    7  A    between atoms: C_25  and  C_28
REMARK                            x       y       z     vdW  Elec       q    Type
REMARK                         _______ _______ _______ _____ _____    ______ ____
ROOT
ATOM      1  C   UNL     1       0.475   5.894   1.363  0.00  0.00    +0.117 C 
ATOM      2  C   UNL     1       1.434   6.816   1.082  0.00  0.00    +0.195 C 
ATOM      3  O   UNL     1       1.802   7.075  -0.181  0.00  0.00    -0.446 OA
ATOM      4  C   UNL     1       0.976   6.774  -1.201  0.00  0.00    +0.116 C 
ATOM      5  C   UNL     1       0.003   5.854  -1.065  0.00  0.00    +0.057 C 
ATOM      6  C   UNL     1      -0.200   5.147   0.250  0.00  0.00    +0.141 C 
ATOM      7  C   UNL     1       0.289   3.735   0.176  0.00  0.00    -0.001 A 
ATOM      8  C   UNL     1       1.543   3.214  -0.060  0.00  0.00    +0.022 A 
ATOM      9  C   UNL     1       1.662   1.828  -0.059  0.00  0.00    +0.018 A 
ATOM     10  C   UNL     1       0.570   1.013   0.169  0.00  0.00    +0.017 A 
ATOM     11  C   UNL     1      -0.695   1.530   0.401  0.00  0.00    +0.025 A 
ATOM     12  C   UNL     1      -0.826   2.920   0.407  0.00  0.00    +0.038 A 
ATOM     13  N   UNL     1      -1.954   3.695   0.612  0.00  0.00    -0.284 N 
ATOM     14  C   UNL     1      -1.681   5.014   0.538  0.00  0.00    +0.237 C 
ATOM     15  O   UNL     1      -2.473   5.923   0.674  0.00  0.00    -0.274 OA
ATOM     16 BR   UNL     1       3.353   1.043  -0.375  0.00  0.00    -0.050 Br
ATOM     17  C   UNL     1      -0.847   5.524  -2.139  0.00  0.00    +0.165 C 
ATOM     18  O   UNL     1      -1.719   4.694  -1.976  0.00  0.00    -0.292 OA
ATOM     19  C   UNL     1      -0.695   6.179  -3.484  0.00  0.00    +0.086 C 
ATOM     20  C   UNL     1       0.768   6.596  -3.671  0.00  0.00    -0.021 C 
ATOM     21  C   UNL     1       1.167   7.506  -2.509  0.00  0.00    +0.081 C 
ATOM     22  C   UNL     1       1.659   5.352  -3.679  0.00  0.00    +0.012 C 
ATOM     23  C   UNL     1       0.923   7.347  -4.995  0.00  0.00    +0.012 C 
ATOM     24  H   UNL     1      -2.836   3.333   0.789  0.00  0.00    +0.155 HD
ENDROOT
BRANCH   2  25
ATOM     25  N   UNL     1       2.036   7.493   2.108  0.00  0.00    -0.329 N 
ATOM     26  H   UNL     1       2.969   7.750   2.038  0.00  0.00    +0.145 HD
ATOM     27  H   UNL     1       1.530   7.714   2.906  0.00  0.00    +0.145 HD
ENDBRANCH   2  25
BRANCH   1  28
ATOM     28  C   UNL     1       0.116   5.641   2.696  0.00  0.00    +0.342 C 
ATOM     29  O   UNL     1       0.736   6.165   3.604  0.00  0.00    -0.245 OA
BRANCH  28  30
ATOM     30  O   UNL     1      -0.917   4.816   2.972  0.00  0.00    -0.462 OA
BRANCH  30  32
ATOM     31  C   UNL     1      -2.416   3.647   4.464  0.00  0.00    +0.048 C 
ATOM     32  C   UNL     1      -1.227   4.603   4.351  0.00  0.00    +0.229 C 
ENDBRANCH  30  32
ENDBRANCH  28  30
ENDBRANCH   1  28
TORSDOF 4
