REMARK  Name = ZINC12915361
REMARK  6 active torsions:
REMARK  status: ('A' for Active; 'I' for Inactive)
REMARK    1  A    between atoms: C_1  and  C_2
REMARK    2  A    between atoms: C_3  and  C_25
REMARK    3  A    between atoms: C_11  and  C_13
REMARK    4  A    between atoms: C_13  and  C_15
REMARK    5  A    between atoms: C_13  and  N_16
REMARK    6  A    between atoms: N_16  and  C_17
REMARK                            x       y       z     vdW  Elec       q    Type
REMARK                         _______ _______ _______ _____ _____    ______ ____
ROOT
ATOM      1  C   UNL     1      -1.232   8.213   0.441  0.00  0.00    +0.045 C 
ATOM      2  C   UNL     1      -0.713   7.268   1.493  0.00  0.00    -0.026 A 
ATOM      3  C   UNL     1      -0.178   7.744   2.629  0.00  0.00    -0.008 A 
ATOM      4  S   UNL     1       0.274   6.269   3.523  0.00  0.00    -0.073 S 
ATOM      5  C   UNL     1      -0.270   5.058   2.346  0.00  0.00    +0.116 A 
ATOM      6  C   UNL     1      -0.786   5.833   1.292  0.00  0.00    +0.075 A 
ATOM      7  C   UNL     1      -1.306   5.097   0.178  0.00  0.00    +0.260 A 
ATOM      8  O   UNL     1      -1.776   5.679  -0.784  0.00  0.00    -0.267 OA
ATOM      9  N   UNL     1      -1.263   3.752   0.209  0.00  0.00    -0.309 N 
ATOM     10  H   UNL     1      -1.611   3.248  -0.543  0.00  0.00    +0.170 HD
ATOM     11  C   UNL     1      -0.749   3.086   1.275  0.00  0.00    +0.131 A 
ATOM     12  N   UNL     1      -0.267   3.728   2.305  0.00  0.00    -0.225 NA
ATOM     13  C   UNL     1      -0.000   9.181   3.048  0.00  0.00    +0.052 C 
ENDROOT
BRANCH  11  14
ATOM     14  C   UNL     1      -0.729   1.579   1.267  0.00  0.00    +0.133 C 
ATOM     15  C   UNL     1      -0.013   1.086   0.008  0.00  0.00    +0.036 C 
BRANCH  14  16
ATOM     16  N   UNL     1      -0.020   1.094   2.454  0.00  0.00    -0.334 N 
ATOM     17  H   UNL     1       0.639   1.657   2.889  0.00  0.00    +0.147 HD
BRANCH  16  18
ATOM     18  C   UNL     1      -0.295  -0.180   2.959  0.00  0.00    +0.029 A 
ATOM     19  C   UNL     1       0.377  -0.641   4.085  0.00  0.00    +0.026 A 
ATOM     20  C   UNL     1       0.104  -1.901   4.583  0.00  0.00    +0.041 A 
ATOM     21  C   UNL     1      -0.837  -2.704   3.962  0.00  0.00    +0.142 A 
ATOM     22  C   UNL     1      -1.508  -2.246   2.839  0.00  0.00    +0.078 A 
ATOM     23  C   UNL     1      -1.243  -0.984   2.341  0.00  0.00    +0.045 A 
ATOM     24 CL   UNL     1      -2.688  -3.255   2.062  0.00  0.00    -0.081 Cl
ATOM     25  F   UNL     1      -1.102  -3.935   4.451  0.00  0.00    -0.204 F 
ENDBRANCH  16  18
ENDBRANCH  14  16
ENDBRANCH  11  14
TORSDOF 3
