REMARK  Name = ZINC36390591
REMARK  7 active torsions:
REMARK  status: ('A' for Active; 'I' for Inactive)
REMARK    1  A    between atoms: C_1  and  C_2
REMARK    2  A    between atoms: C_5  and  N_9
REMARK    3  A    between atoms: C_6  and  C_8
REMARK    4  A    between atoms: C_10  and  C_12
REMARK    5  A    between atoms: C_12  and  C_13
REMARK    6  A    between atoms: C_13  and  C_15
REMARK    7  A    between atoms: C_13  and  N_22
REMARK                            x       y       z     vdW  Elec       q    Type
REMARK                         _______ _______ _______ _____ _____    ______ ____
ROOT
ATOM      1  C   UNL     1      -0.238  -6.846  -2.625  0.00  0.00    +0.113 C 
ENDROOT
BRANCH   1   2
ATOM      2  C   UNL     1      -0.091  -8.345  -2.589  0.00  0.00    -0.027 A 
ATOM      3  C   UNL     1      -1.200  -9.144  -2.382  0.00  0.00    +0.006 A 
ATOM      4  C   UNL     1      -1.066 -10.519  -2.349  0.00  0.00    +0.015 A 
ATOM      5  C   UNL     1       0.179 -11.096  -2.524  0.00  0.00    +0.018 A 
ATOM      6  C   UNL     1       1.289 -10.297  -2.731  0.00  0.00    +0.015 A 
ATOM      7  C   UNL     1       1.153  -8.922  -2.769  0.00  0.00    +0.006 A 
ATOM      8 BR   UNL     1       0.363 -12.978  -2.479  0.00  0.00    -0.050 Br
ENDBRANCH   1   2
BRANCH   1   9
ATOM      9  N   UNL     1      -1.518  -6.495  -3.245  0.00  0.00    -0.292 N 
ATOM     10  C   UNL     1      -1.593  -6.318  -4.579  0.00  0.00    +0.298 C 
ATOM     11  O   UNL     1      -0.623  -6.539  -5.278  0.00  0.00    -0.253 OA
ATOM     12  N   UNL     1      -2.745  -5.897  -5.139  0.00  0.00    -0.313 N 
ATOM     13  H   UNL     1      -2.310  -6.391  -2.697  0.00  0.00    +0.151 HD
ATOM     14  H   UNL     1      -3.519  -5.721  -4.582  0.00  0.00    +0.146 HD
ATOM     15  H   UNL     1      -2.799  -5.770  -6.099  0.00  0.00    +0.146 HD
ENDBRANCH   1   9
BRANCH   1  16
ATOM     16  C   UNL     1      -0.195  -6.295  -1.198  0.00  0.00    +0.123 C 
BRANCH  16  18
ATOM     17  N   UNL     1      -0.188  -4.082  -0.093  0.00  0.00    -0.285 N 
ATOM     18  C   UNL     1      -0.219  -4.789  -1.240  0.00  0.00    +0.219 C 
ATOM     19  O   UNL     1      -0.265  -4.213  -2.306  0.00  0.00    -0.275 OA
ATOM     20  H   UNL     1      -0.090  -4.540   0.757  0.00  0.00    +0.155 HD
BRANCH  17  25
ATOM     21  C   UNL     1      -0.636   1.572  -0.233  0.00  0.00    +0.044 C 
ATOM     22  C   UNL     1      -0.517   0.070  -0.196  0.00  0.00    -0.050 A 
ATOM     23  C   UNL     1       0.143  -0.596  -1.213  0.00  0.00    +0.005 A 
ATOM     24  C   UNL     1       0.254  -1.972  -1.182  0.00  0.00    +0.024 A 
ATOM     25  C   UNL     1      -0.298  -2.688  -0.127  0.00  0.00    +0.036 A 
ATOM     26  C   UNL     1      -0.960  -2.017   0.893  0.00  0.00    -0.029 A 
ATOM     27  C   UNL     1      -1.063  -0.639   0.858  0.00  0.00    +0.008 A 
ATOM     28  C   UNL     1      -1.561  -2.789   2.038  0.00  0.00    +0.045 C 
ENDBRANCH  17  25
ENDBRANCH  16  18
ENDBRANCH   1  16
TORSDOF 5
