REMARK  Name = ZINC44750392
REMARK  4 active torsions:
REMARK  status: ('A' for Active; 'I' for Inactive)
REMARK    1  A    between atoms: C_1  and  C_2
REMARK    2  A    between atoms: C_4  and  N_20
REMARK    3  A    between atoms: C_7  and  C_8
REMARK    4  A    between atoms: C_10  and  C_13
REMARK                            x       y       z     vdW  Elec       q    Type
REMARK                         _______ _______ _______ _____ _____    ______ ____
ROOT
ATOM      1  C   UNL     1       0.172   0.154   2.405  0.00  0.00    +0.259 A 
ATOM      2  N   UNL     1       0.375  -0.318   3.614  0.00  0.00    -0.187 NA
ATOM      3  C   UNL     1       0.387   0.688   4.502  0.00  0.00    +0.203 A 
ATOM      4  N   UNL     1       0.191   1.817   3.865  0.00  0.00    -0.056 NA
ATOM      5  O   UNL     1       0.053   1.491   2.491  0.00  0.00    -0.332 OA
ENDROOT
BRANCH   1  12
ATOM      6  C   UNL     1      -1.975   0.638   0.530  0.00  0.00    +0.044 C 
ATOM      7  C   UNL     1      -0.938  -0.419   0.252  0.00  0.00    -0.036 A 
ATOM      8  C   UNL     1      -1.005  -1.162  -0.906  0.00  0.00    +0.026 A 
ATOM      9  C   UNL     1      -0.048  -2.139  -1.164  0.00  0.00    +0.025 A 
ATOM     10  C   UNL     1       0.979  -2.369  -0.253  0.00  0.00    +0.023 A 
ATOM     11  C   UNL     1       1.051  -1.630   0.906  0.00  0.00    +0.015 A 
ATOM     12  C   UNL     1       0.094  -0.644   1.166  0.00  0.00    +0.042 A 
BRANCH   9  13
ATOM     13  N   UNL     1      -0.118  -2.888  -2.335  0.00  0.00    -0.358 N 
ATOM     14  H   UNL     1      -0.834  -2.729  -2.971  0.00  0.00    +0.142 HD
ATOM     15  H   UNL     1       0.548  -3.569  -2.516  0.00  0.00    +0.142 HD
ENDBRANCH   9  13
ENDBRANCH   1  12
BRANCH   3  16
ATOM     16  C   UNL     1       0.590   0.545   5.965  0.00  0.00    +0.036 A 
ATOM     17  C   UNL     1       0.795  -0.714   6.524  0.00  0.00    +0.013 A 
ATOM     18  C   UNL     1       0.983  -0.841   7.885  0.00  0.00    +0.001 A 
ATOM     19  C   UNL     1       0.968   0.280   8.695  0.00  0.00    +0.001 A 
ATOM     20  C   UNL     1       0.764   1.533   8.148  0.00  0.00    +0.016 A 
ATOM     21  C   UNL     1       0.580   1.672   6.786  0.00  0.00    +0.029 A 
ATOM     22 BR   UNL     1       0.310   3.388   6.037  0.00  0.00    -0.050 Br
ENDBRANCH   3  16
TORSDOF 3
