REMARK  Name = ZINC35427085
REMARK  5 active torsions:
REMARK  status: ('A' for Active; 'I' for Inactive)
REMARK    1  A    between atoms: C_1  and  C_2
REMARK    2  A    between atoms: C_5  and  N_9
REMARK    3  A    between atoms: C_6  and  C_8
REMARK    4  A    between atoms: C_24  and  C_26
REMARK    5  A    between atoms: N_33  and  C_36
REMARK                            x       y       z     vdW  Elec       q    Type
REMARK                         _______ _______ _______ _____ _____    ______ ____
ROOT
ATOM      1  N   UNL     1       0.060  -4.148  -0.046  0.00  0.00    -0.269 N 
ATOM      2  C   UNL     1      -0.041  -4.827  -1.206  0.00  0.00    +0.308 C 
ATOM      3  O   UNL     1      -0.060  -4.226  -2.263  0.00  0.00    -0.252 OA
ATOM      4  N   UNL     1      -0.122  -6.173  -1.194  0.00  0.00    -0.268 N 
ATOM      5  C   UNL     1      -0.109  -6.936   0.066  0.00  0.00    +0.148 C 
ATOM      6  C   UNL     1       0.702  -8.210  -0.029  0.00  0.00    +0.004 A 
ATOM      7  C   UNL     1       1.925  -8.396   0.641  0.00  0.00    -0.034 A 
ATOM      8  C   UNL     1       2.556  -9.592   0.492  0.00  0.00    -0.021 A 
ATOM      9  S   UNL     1       1.480 -10.506  -0.581  0.00  0.00    -0.077 S 
ATOM     10  C   UNL     1       0.259  -9.247  -0.791  0.00  0.00    +0.090 A 
ATOM     11  N   UNL     1      -0.904  -9.214  -1.551  0.00  0.00    -0.312 N 
ATOM     12  C   UNL     1      -1.907 -10.110  -1.693  0.00  0.00    +0.092 A 
ATOM     13  C   UNL     1      -2.846  -9.563  -2.500  0.00  0.00    +0.020 A 
ATOM     14  C   UNL     1      -2.385  -8.284  -2.882  0.00  0.00    +0.025 A 
ATOM     15  C   UNL     1      -1.185  -8.102  -2.310  0.00  0.00    +0.049 A 
ATOM     16  C   UNL     1      -0.234  -6.955  -2.449  0.00  0.00    +0.155 C 
ATOM     17  C   UNL     1       3.855 -10.003   1.103  0.00  0.00    -0.036 C 
ATOM     18  N   UNL     1       4.538  -8.791   1.596  0.00  0.00    +0.381 N 
ATOM     19  C   UNL     1       3.606  -8.002   2.413  0.00  0.00    -0.074 C 
ATOM     20  C   UNL     1       2.562  -7.323   1.522  0.00  0.00    +0.018 C 
ATOM     21  C   UNL     1       5.696  -9.180   2.412  0.00  0.00    -0.096 C 
ATOM     22  H   UNL     1       0.137  -4.629   0.792  0.00  0.00    +0.156 HD
ATOM     23  H   UNL     1       4.849  -8.238   0.812  0.00  0.00    -0.082 HD
ENDROOT
BRANCH   1  28
ATOM     24  C   UNL     1       0.033   1.525  -0.071  0.00  0.00    +0.044 C 
ATOM     25  C   UNL     1       0.040   0.018  -0.064  0.00  0.00    -0.050 A 
ATOM     26  C   UNL     1       0.633  -0.674  -1.104  0.00  0.00    +0.005 A 
ATOM     27  C   UNL     1       0.642  -2.055  -1.101  0.00  0.00    +0.024 A 
ATOM     28  C   UNL     1       0.053  -2.749  -0.052  0.00  0.00    +0.038 A 
ATOM     29  C   UNL     1      -0.542  -2.051   0.991  0.00  0.00    -0.029 A 
ATOM     30  C   UNL     1      -0.542  -0.670   0.985  0.00  0.00    +0.008 A 
ATOM     31  C   UNL     1      -1.182  -2.801   2.131  0.00  0.00    +0.045 C 
ENDBRANCH   1  28
BRANCH  16  32
ATOM     32  C   UNL     1       1.126  -7.493  -2.815  0.00  0.00    -0.021 A 
ATOM     33  C   UNL     1       1.234  -8.677  -3.520  0.00  0.00    +0.006 A 
ATOM     34  C   UNL     1       2.481  -9.169  -3.857  0.00  0.00    +0.000 A 
ATOM     35  C   UNL     1       3.619  -8.478  -3.488  0.00  0.00    +0.000 A 
ATOM     36  C   UNL     1       3.511  -7.293  -2.784  0.00  0.00    +0.000 A 
ATOM     37  C   UNL     1       2.264  -6.798  -2.451  0.00  0.00    +0.006 A 
ENDBRANCH  16  32
TORSDOF 2
