REMARK  Name = ZINC41124565
REMARK  8 active torsions:
REMARK  status: ('A' for Active; 'I' for Inactive)
REMARK    1  A    between atoms: C_1  and  C_2
REMARK    2  A    between atoms: C_7  and  S_8
REMARK    3  A    between atoms: S_8  and  N_11
REMARK    4  A    between atoms: N_11  and  C_12
REMARK    5  A    between atoms: C_14  and  S_20
REMARK    6  A    between atoms: C_17  and  O_18
REMARK    7  A    between atoms: O_18  and  C_19
REMARK    8  A    between atoms: S_20  and  N_23
REMARK                            x       y       z     vdW  Elec       q    Type
REMARK                         _______ _______ _______ _____ _____    ______ ____
ROOT
ATOM      1  S   UNL     1      -0.053  -0.052   2.719  0.00  0.00    +0.073 S 
ATOM      2  O   UNL     1      -1.266   0.676   2.850  0.00  0.00    -0.150 OA
ATOM      3  O   UNL     1       0.260  -1.166   3.543  0.00  0.00    -0.150 OA
ENDROOT
BRANCH   1  10
ATOM      4  C   UNL     1       2.250  -1.624   1.560  0.00  0.00    +0.046 C 
ATOM      5  C   UNL     1       1.113  -1.339   0.613  0.00  0.00    -0.022 A 
ATOM      6  C   UNL     1       1.171  -1.796  -0.689  0.00  0.00    +0.033 A 
ATOM      7  C   UNL     1       0.126  -1.534  -1.560  0.00  0.00    +0.067 A 
ATOM      8  C   UNL     1      -0.983  -0.808  -1.117  0.00  0.00    +0.069 A 
ATOM      9  C   UNL     1      -1.031  -0.352   0.191  0.00  0.00    +0.057 A 
ATOM     10  C   UNL     1       0.013  -0.624   1.053  0.00  0.00    +0.113 A 
ATOM     11  N   UNL     1      -1.855  -0.706  -2.198  0.00  0.00    -0.306 N 
ATOM     12  H   UNL     1      -2.713  -0.255  -2.195  0.00  0.00    +0.170 HD
ATOM     13  C   UNL     1      -1.303  -1.341  -3.250  0.00  0.00    +0.325 A 
ATOM     14  O   UNL     1      -1.808  -1.438  -4.353  0.00  0.00    -0.247 OA
ATOM     15  N   UNL     1      -0.108  -1.851  -2.896  0.00  0.00    -0.306 N 
ATOM     16  H   UNL     1       0.488  -2.353  -3.473  0.00  0.00    +0.170 HD
ENDBRANCH   1  10
BRANCH   1  17
ATOM     17  N   UNL     1       1.177   1.040   2.910  0.00  0.00    -0.213 N 
ATOM     18  H   UNL     1       1.871   0.878   3.568  0.00  0.00    +0.174 HD
BRANCH  17  19
ATOM     19  C   UNL     1       1.216   2.196   2.123  0.00  0.00    +0.091 A 
ATOM     20  C   UNL     1       0.037   2.832   1.763  0.00  0.00    +0.056 A 
ATOM     21  C   UNL     1       0.078   3.975   0.986  0.00  0.00    +0.107 A 
ATOM     22  C   UNL     1       1.291   4.486   0.565  0.00  0.00    +0.032 A 
ATOM     23  C   UNL     1       2.471   3.857   0.920  0.00  0.00    +0.049 A 
ATOM     24  C   UNL     1       2.439   2.715   1.703  0.00  0.00    +0.142 A 
BRANCH  21  25
ATOM     25  S   UNL     1      -1.421   4.781   0.530  0.00  0.00    +0.056 S 
ATOM     26  O   UNL     1      -1.142   5.517  -0.653  0.00  0.00    -0.153 OA
ATOM     27  O   UNL     1      -2.446   3.799   0.592  0.00  0.00    -0.153 OA
BRANCH  25  28
ATOM     28  N   UNL     1      -1.758   5.892   1.710  0.00  0.00    -0.204 NA
ATOM     29  H   UNL     1      -2.239   6.705   1.488  0.00  0.00    +0.144 HD
ATOM     30  H   UNL     1      -1.475   5.730   2.624  0.00  0.00    +0.144 HD
ENDBRANCH  25  28
ENDBRANCH  21  25
BRANCH  24  31
ATOM     31  O   UNL     1       3.599   2.098   2.057  0.00  0.00    -0.493 OA
ATOM     32  C   UNL     1       4.814   2.686   1.591  0.00  0.00    +0.277 C 
ENDBRANCH  24  31
ENDBRANCH  17  19
ENDBRANCH   1  17
TORSDOF 6
