REMARK  Name = ZINC12415613
REMARK  4 active torsions:
REMARK  status: ('A' for Active; 'I' for Inactive)
REMARK    1  A    between atoms: C_1  and  C_2
REMARK    2  A    between atoms: C_7  and  N_8
REMARK    3  A    between atoms: C_9  and  N_23
REMARK    4  A    between atoms: C_10  and  C_14
REMARK                            x       y       z     vdW  Elec       q    Type
REMARK                         _______ _______ _______ _____ _____    ______ ____
ROOT
ATOM      1  N   UNL     1      -3.878   4.501   4.000  0.00  0.00    -0.285 N 
ATOM      2  C   UNL     1      -4.134   4.269   2.695  0.00  0.00    +0.121 A 
ATOM      3  C   UNL     1      -3.495   3.212   2.096  0.00  0.00    +0.115 A 
ATOM      4  S   UNL     1      -2.530   2.564   3.451  0.00  0.00    -0.055 S 
ATOM      5  C   UNL     1      -3.017   3.702   4.667  0.00  0.00    +0.132 A 
ATOM      6  S   UNL     1      -2.532   3.787   6.306  0.00  0.00    -0.024 S 
ENDROOT
BRANCH   3   7
ATOM      7  C   UNL     1      -3.582   2.754   0.763  0.00  0.00    +0.257 C 
ATOM      8  O   UNL     1      -4.019   3.488  -0.106  0.00  0.00    -0.269 OA
ATOM      9  N   UNL     1      -3.180   1.506   0.452  0.00  0.00    -0.297 N 
ATOM     10  C   UNL     1      -2.571   0.696   1.483  0.00  0.00    +0.108 C 
ATOM     11  C   UNL     1      -1.044   0.935   1.491  0.00  0.00    +0.019 C 
ATOM     12  C   UNL     1      -0.421   0.327   0.305  0.00  0.00    +0.002 C 
ATOM     13  C   UNL     1      -0.887   0.922  -1.020  0.00  0.00    +0.002 C 
ATOM     14  C   UNL     1      -2.162   0.242  -1.453  0.00  0.00    +0.019 C 
ATOM     15  C   UNL     1      -3.382   1.021  -0.928  0.00  0.00    +0.108 C 
ENDBRANCH   3   7
BRANCH   1  22
ATOM     16  C   UNL     1      -2.577   7.032   4.003  0.00  0.00    +0.046 C 
ATOM     17  C   UNL     1      -3.903   6.818   4.686  0.00  0.00    -0.027 A 
ATOM     18  C   UNL     1      -4.525   7.868   5.334  0.00  0.00    +0.005 A 
ATOM     19  C   UNL     1      -5.739   7.671   5.965  0.00  0.00    +0.000 A 
ATOM     20  C   UNL     1      -6.338   6.424   5.946  0.00  0.00    +0.002 A 
ATOM     21  C   UNL     1      -5.723   5.372   5.296  0.00  0.00    +0.026 A 
ATOM     22  C   UNL     1      -4.504   5.567   4.660  0.00  0.00    +0.052 A 
ENDBRANCH   1  22
BRANCH   2  23
ATOM     23  N   UNL     1      -5.007   5.066   1.988  0.00  0.00    -0.343 N 
ATOM     24  H   UNL     1      -5.179   4.885   1.050  0.00  0.00    +0.144 HD
ATOM     25  H   UNL     1      -5.450   5.809   2.427  0.00  0.00    +0.144 HD
ENDBRANCH   2  23
TORSDOF 3
