REMARK  Name = ZINC11847675
REMARK  2 active torsions:
REMARK  status: ('A' for Active; 'I' for Inactive)
REMARK    1  A    between atoms: C_3  and  N_9
REMARK    2  A    between atoms: C_6  and  N_7
REMARK                            x       y       z     vdW  Elec       q    Type
REMARK                         _______ _______ _______ _____ _____    ______ ____
ROOT
ATOM      1  C   UNL     1      -1.252   3.037   0.030  0.00  0.00    +0.024 A 
ATOM      2  C   UNL     1      -2.457   3.712   0.035  0.00  0.00    +0.028 A 
ATOM      3  C   UNL     1      -3.650   3.003   0.037  0.00  0.00    +0.069 A 
ATOM      4  C   UNL     1      -3.632   1.613   0.029  0.00  0.00    +0.065 A 
ATOM      5  C   UNL     1      -2.426   0.939   0.019  0.00  0.00    +0.044 A 
ATOM      6  C   UNL     1      -1.233   1.649   0.017  0.00  0.00    +0.026 A 
ATOM      7 CL   UNL     1      -5.123   0.725   0.031  0.00  0.00    -0.082 Cl
ENDROOT
BRANCH   3   8
ATOM      8  N   UNL     1      -4.872   3.687   0.046  0.00  0.00    -0.206 N 
ATOM      9  C   UNL     1      -5.483   4.166  -1.203  0.00  0.00    +0.131 C 
ATOM     10  C   UNL     1      -5.707   5.670  -1.122  0.00  0.00    +0.022 C 
ATOM     11  C   UNL     1      -6.717   6.010  -0.029  0.00  0.00    +0.026 C 
ATOM     12  C   UNL     1      -6.094   5.757   1.349  0.00  0.00    +0.189 C 
ATOM     13  S   UNL     1      -5.675   3.990   1.472  0.00  0.00    +0.045 S 
ATOM     14  O   UNL     1      -6.852   3.197   1.409  0.00  0.00    -0.155 OA
ATOM     15  O   UNL     1      -4.708   3.780   2.492  0.00  0.00    -0.155 OA
ENDBRANCH   3   8
BRANCH   6  16
ATOM     16  N   UNL     1      -0.011   0.966   0.007  0.00  0.00    -0.358 N 
ATOM     17  H   UNL     1       0.002  -0.004   0.002  0.00  0.00    +0.142 HD
ATOM     18  H   UNL     1       0.822   1.462   0.002  0.00  0.00    +0.142 HD
ENDBRANCH   6  16
TORSDOF 2
