REMARK  Name = ZINC06075039
REMARK  12 active torsions:
REMARK  status: ('A' for Active; 'I' for Inactive)
REMARK    1  A    between atoms: C_1  and  C_2
REMARK    2  A    between atoms: C_2  and  C_3
REMARK    3  A    between atoms: C_2  and  C_4
REMARK    4  A    between atoms: C_2  and  N_5
REMARK    5  A    between atoms: C_6  and  C_8
REMARK    6  A    between atoms: C_8  and  C_10
REMARK    7  A    between atoms: C_8  and  N_15
REMARK    8  A    between atoms: N_15  and  C_16
REMARK    9  A    between atoms: C_16  and  C_17
REMARK   10  A    between atoms: C_23  and  C_25
REMARK   11  A    between atoms: C_26  and  N_33
REMARK   12  A    between atoms: C_27  and  C_30
REMARK                            x       y       z     vdW  Elec       q    Type
REMARK                         _______ _______ _______ _____ _____    ______ ____
ROOT
ATOM      1  N   UNL     1      -0.685   3.751   1.033  0.00  0.00    -0.276 N 
ATOM      2  C   UNL     1       0.250   4.553   1.580  0.00  0.00    +0.258 C 
ATOM      3  O   UNL     1       0.049   5.750   1.669  0.00  0.00    -0.269 OA
ENDROOT
BRANCH   2   4
ATOM      4  C   UNL     1       1.508   3.984   2.067  0.00  0.00    +0.115 A 
ATOM      5  C   UNL     1       2.571   4.613   2.718  0.00  0.00    +0.076 A 
ATOM      6  C   UNL     1       3.605   3.730   3.029  0.00  0.00    +0.155 A 
ATOM      7  N   UNL     1       3.489   2.462   2.701  0.00  0.00    -0.203 NA
ATOM      8  S   UNL     1       2.089   2.302   1.996  0.00  0.00    +0.019 S 
BRANCH   6   9
ATOM      9  C   UNL     1       4.815   4.213   3.720  0.00  0.00    +0.262 C 
ATOM     10  O   UNL     1       4.915   5.387   4.022  0.00  0.00    -0.269 OA
ATOM     11  N   UNL     1       5.809   3.354   4.018  0.00  0.00    -0.324 N 
ATOM     12  H   UNL     1       5.730   2.418   3.777  0.00  0.00    +0.145 HD
ATOM     13  H   UNL     1       6.605   3.672   4.472  0.00  0.00    +0.145 HD
ENDBRANCH   6   9
BRANCH   5  14
ATOM     14  N   UNL     1       2.596   5.968   3.021  0.00  0.00    -0.355 N 
ATOM     15  H   UNL     1       1.846   6.533   2.779  0.00  0.00    +0.142 HD
ATOM     16  H   UNL     1       3.364   6.349   3.475  0.00  0.00    +0.142 HD
ENDBRANCH   5  14
ENDBRANCH   2   4
BRANCH   1  17
ATOM     17  C   UNL     1      -1.990   4.299   0.656  0.00  0.00    +0.228 C 
BRANCH  17  18
ATOM     18  C   UNL     1      -2.272   3.979  -0.789  0.00  0.00    +0.134 A 
ATOM     19  C   UNL     1      -2.634   4.864  -1.735  0.00  0.00    +0.047 A 
ATOM     20  C   UNL     1      -2.790   4.137  -2.938  0.00  0.00    +0.041 A 
ATOM     21  C   UNL     1      -2.522   2.850  -2.653  0.00  0.00    +0.195 A 
ATOM     22  O   UNL     1      -2.209   2.760  -1.350  0.00  0.00    -0.465 OA
ENDBRANCH  17  18
BRANCH  17  24
ATOM     23  N   UNL     1      -4.349   4.046   1.356  0.00  0.00    -0.309 N 
ATOM     24  C   UNL     1      -3.061   3.689   1.524  0.00  0.00    +0.242 C 
ATOM     25  O   UNL     1      -2.762   2.876   2.373  0.00  0.00    -0.273 OA
ATOM     26  H   UNL     1      -4.588   4.696   0.676  0.00  0.00    +0.149 HD
BRANCH  23  28
ATOM     27  C   UNL     1      -5.104   3.778   3.666  0.00  0.00    +0.031 C 
ATOM     28  C   UNL     1      -5.390   3.453   2.199  0.00  0.00    +0.026 C 
ATOM     29  C   UNL     1      -6.753   4.025   1.806  0.00  0.00    +0.031 C 
ATOM     30  C   UNL     1      -5.399   1.935   2.005  0.00  0.00    +0.031 C 
ENDBRANCH  23  28
ENDBRANCH  17  24
ENDBRANCH   1  17
BRANCH   1  31
ATOM     31  C   UNL     1      -0.396   2.332   0.814  0.00  0.00    +0.141 C 
BRANCH  31  32
ATOM     32  C   UNL     1       0.360   2.162  -0.505  0.00  0.00    +0.136 C 
ATOM     33  C   UNL     1       0.736   0.680  -0.723  0.00  0.00    +0.035 C 
ATOM     34  C   UNL     1       2.133   0.740  -1.380  0.00  0.00    +0.031 C 
ATOM     35  C   UNL     1       2.436   2.252  -1.482  0.00  0.00    +0.160 C 
ATOM     36  O   UNL     1       1.623   2.860  -0.455  0.00  0.00    -0.375 OA
ENDBRANCH  31  32
ENDBRANCH   1  31
TORSDOF 9
