REMARK  Name = ZINC38810981
REMARK  5 active torsions:
REMARK  status: ('A' for Active; 'I' for Inactive)
REMARK    1  A    between atoms: C_1  and  C_2
REMARK    2  A    between atoms: C_3  and  C_15
REMARK    3  A    between atoms: N_6  and  C_8
REMARK    4  A    between atoms: N_16  and  N_17
REMARK    5  A    between atoms: C_22  and  C_25
REMARK                            x       y       z     vdW  Elec       q    Type
REMARK                         _______ _______ _______ _____ _____    ______ ____
ROOT
ATOM      1  C   UNL     1      -2.482  -0.307   0.013  0.00  0.00    +0.138 C 
ATOM      2  N   UNL     1      -2.740   0.969   0.022  0.00  0.00    -0.188 NA
ENDROOT
BRANCH   2   3
ATOM      3  N   UNL     1      -4.068   1.415   0.032  0.00  0.00    -0.204 N 
ATOM      4  C   UNL     1      -4.342   2.770   0.042  0.00  0.00    +0.258 A 
ATOM      5  N   UNL     1      -5.605   3.183   0.056  0.00  0.00    -0.171 NA
ATOM      6  C   UNL     1      -5.867   4.483   0.065  0.00  0.00    +0.301 A 
ATOM      7  O   UNL     1      -7.145   4.932   0.081  0.00  0.00    -0.263 OA
ATOM      8  C   UNL     1      -4.788   5.387   0.059  0.00  0.00    +0.159 A 
ATOM      9  N   UNL     1      -3.549   4.910   0.044  0.00  0.00    -0.140 NA
ATOM     10  N   UNL     1      -3.339   3.640   0.041  0.00  0.00    -0.111 NA
ATOM     11  H   UNL     1      -4.796   0.774   0.032  0.00  0.00    +0.177 HD
BRANCH   8  12
ATOM     12  C   UNL     1      -5.032   6.849   0.068  0.00  0.00    +0.008 A 
ATOM     13  C   UNL     1      -6.131   7.379  -0.606  0.00  0.00    +0.010 A 
ATOM     14  C   UNL     1      -6.353   8.741  -0.593  0.00  0.00    +0.001 A 
ATOM     15  C   UNL     1      -5.487   9.580   0.086  0.00  0.00    +0.000 A 
ATOM     16  C   UNL     1      -4.394   9.059   0.756  0.00  0.00    +0.001 A 
ATOM     17  C   UNL     1      -4.166   7.698   0.755  0.00  0.00    +0.010 A 
ENDBRANCH   8  12
ENDBRANCH   2   3
BRANCH   1  20
ATOM     18  C   UNL     1      -0.018   1.503   0.010  0.00  0.00    +0.062 C 
ATOM     19  C   UNL     1       0.002  -0.004   0.002  0.00  0.00    +0.027 C 
ATOM     20  C   UNL     1      -1.096  -0.773   0.003  0.00  0.00    +0.027 C 
ATOM     21  C   UNL     1      -0.632  -2.213  -0.007  0.00  0.00    +0.218 C 
ATOM     22  N   UNL     1       0.838  -2.127  -0.014  0.00  0.00    -0.231 N 
ATOM     23  N   UNL     1       1.148  -0.761  -0.013  0.00  0.00    -0.266 N 
ATOM     24 CL   UNL     1      -1.223  -3.053  -1.489  0.00  0.00    -0.094 Cl
ATOM     25  H   UNL     1       2.048  -0.399  -0.020  0.00  0.00    +0.170 HD
BRANCH  22  26
ATOM     26  C   UNL     1       1.741  -3.193  -0.025  0.00  0.00    +0.050 A 
ATOM     27  C   UNL     1       1.273  -4.501  -0.036  0.00  0.00    +0.025 A 
ATOM     28  C   UNL     1       2.169  -5.552  -0.047  0.00  0.00    +0.002 A 
ATOM     29  C   UNL     1       3.529  -5.304  -0.046  0.00  0.00    +0.000 A 
ATOM     30  C   UNL     1       3.998  -4.003  -0.036  0.00  0.00    +0.002 A 
ATOM     31  C   UNL     1       3.108  -2.947  -0.030  0.00  0.00    +0.025 A 
ENDBRANCH  22  26
ENDBRANCH   1  20
TORSDOF 4
