REMARK  Name = ZINC40953855
REMARK  9 active torsions:
REMARK  status: ('A' for Active; 'I' for Inactive)
REMARK    1  A    between atoms: C_1  and  C_2
REMARK    2  A    between atoms: C_7  and  O_10
REMARK    3  A    between atoms: O_10  and  C_11
REMARK    4  A    between atoms: C_11  and  C_13
REMARK    5  A    between atoms: C_13  and  C_15
REMARK    6  A    between atoms: C_13  and  N_24
REMARK    7  A    between atoms: C_15  and  C_16
REMARK    8  A    between atoms: C_19  and  O_23
REMARK    9  A    between atoms: C_20  and  O_22
REMARK                            x       y       z     vdW  Elec       q    Type
REMARK                         _______ _______ _______ _____ _____    ______ ____
ROOT
ATOM      1  C   UNL     1      -2.173  -4.306   1.887  0.00  0.00    +0.040 C 
ENDROOT
BRANCH   1   2
ATOM      2  N   UNL     1      -2.087  -5.752   2.130  0.00  0.00    +0.387 N 
ATOM      3  H   UNL     1      -3.016  -6.144   2.163  0.00  0.00    -0.089 HD
ATOM      4  H   UNL     1      -1.564  -6.188   1.385  0.00  0.00    -0.089 HD
ATOM      5  H   UNL     1      -1.620  -5.918   3.010  0.00  0.00    -0.089 HD
ENDBRANCH   1   2
BRANCH   1   6
ATOM      6  C   UNL     1      -0.785  -3.721   1.837  0.00  0.00    +0.293 C 
ATOM      7  O   UNL     1       0.141  -4.319   2.332  0.00  0.00    -0.253 OA
BRANCH   6   8
ATOM      8  O   UNL     1      -0.578  -2.535   1.243  0.00  0.00    -0.462 OA
BRANCH   8  14
ATOM      9  C   UNL     1      -0.019   1.526   0.010  0.00  0.00    +0.007 C 
ATOM     10  C   UNL     1       0.002  -0.004   0.002  0.00  0.00    -0.011 C 
ATOM     11  C   UNL     1       0.718  -0.497  -1.257  0.00  0.00    +0.003 C 
ATOM     12  C   UNL     1       0.739  -2.027  -1.265  0.00  0.00    +0.004 C 
ATOM     13  C   UNL     1       1.479  -2.534  -0.026  0.00  0.00    +0.044 C 
ATOM     14  C   UNL     1       0.763  -2.041   1.233  0.00  0.00    +0.177 C 
ATOM     15  C   UNL     1       0.742  -0.511   1.242  0.00  0.00    +0.048 C 
ENDBRANCH   8  14
ENDBRANCH   6   8
ENDBRANCH   1   6
BRANCH   1  16
ATOM     16  C   UNL     1      -2.965  -3.645   3.016  0.00  0.00    +0.030 C 
BRANCH  16  17
ATOM     17  C   UNL     1      -4.388  -4.140   2.988  0.00  0.00    -0.045 A 
ATOM     18  C   UNL     1      -5.337  -3.472   2.236  0.00  0.00    +0.007 A 
ATOM     19  C   UNL     1      -6.643  -3.922   2.207  0.00  0.00    +0.049 A 
ATOM     20  C   UNL     1      -7.005  -5.046   2.933  0.00  0.00    +0.158 A 
ATOM     21  C   UNL     1      -6.051  -5.719   3.689  0.00  0.00    +0.158 A 
ATOM     22  C   UNL     1      -4.742  -5.265   3.710  0.00  0.00    +0.052 A 
BRANCH  21  23
ATOM     23  O   UNL     1      -6.401  -6.822   4.403  0.00  0.00    -0.503 OA
ATOM     24  H   UNL     1      -6.311  -7.652   3.914  0.00  0.00    +0.292 HD
ENDBRANCH  21  23
BRANCH  20  25
ATOM     25  O   UNL     1      -8.290  -5.490   2.906  0.00  0.00    -0.503 OA
ATOM     26  H   UNL     1      -8.471  -6.128   2.203  0.00  0.00    +0.292 HD
ENDBRANCH  20  25
ENDBRANCH  16  17
ENDBRANCH   1  16
TORSDOF 8
