REMARK  Name = ZINC40672849
REMARK  7 active torsions:
REMARK  status: ('A' for Active; 'I' for Inactive)
REMARK    1  A    between atoms: C_1  and  C_2
REMARK    2  A    between atoms: C_2  and  C_4
REMARK    3  A    between atoms: C_2  and  N_14
REMARK    4  A    between atoms: C_7  and  S_10
REMARK    5  A    between atoms: S_10  and  N_13
REMARK    6  A    between atoms: N_14  and  C_15
REMARK    7  A    between atoms: N_20  and  C_22
REMARK                            x       y       z     vdW  Elec       q    Type
REMARK                         _______ _______ _______ _____ _____    ______ ____
ROOT
ATOM      1  C   UNL     1      -0.019   1.526   0.010  0.00  0.00    +0.029 C 
ATOM      2  C   UNL     1       0.002  -0.004   0.002  0.00  0.00    +0.081 C 
ENDROOT
BRANCH   2   3
ATOM      3  C   UNL     1       0.707  -0.490  -1.238  0.00  0.00    -0.031 A 
ATOM      4  C   UNL     1       2.089  -0.511  -1.284  0.00  0.00    +0.007 A 
ATOM      5  C   UNL     1       2.736  -0.957  -2.421  0.00  0.00    +0.029 A 
ATOM      6  C   UNL     1       2.002  -1.382  -3.512  0.00  0.00    +0.105 A 
ATOM      7  C   UNL     1       0.620  -1.362  -3.466  0.00  0.00    +0.029 A 
ATOM      8  C   UNL     1      -0.027  -0.920  -2.327  0.00  0.00    +0.007 A 
BRANCH   6   9
ATOM      9  S   UNL     1       2.826  -1.949  -4.962  0.00  0.00    +0.056 S 
ATOM     10  O   UNL     1       1.916  -1.778  -6.040  0.00  0.00    -0.153 OA
ATOM     11  O   UNL     1       4.117  -1.356  -4.954  0.00  0.00    -0.153 OA
BRANCH   9  12
ATOM     12  N   UNL     1       3.054  -3.580  -4.790  0.00  0.00    -0.204 NA
ATOM     13  H   UNL     1       2.745  -4.031  -3.989  0.00  0.00    +0.144 HD
ATOM     14  H   UNL     1       3.497  -4.085  -5.490  0.00  0.00    +0.144 HD
ENDBRANCH   9  12
ENDBRANCH   6   9
ENDBRANCH   2   3
BRANCH   2  15
ATOM     15  N   UNL     1       0.713  -0.491   1.192  0.00  0.00    -0.309 NA
ATOM     16  H   UNL     1       1.151  -1.381   1.012  0.00  0.00    +0.123 HD
BRANCH  15  17
ATOM     17  C   UNL     1      -0.191  -0.572   2.348  0.00  0.00    +0.038 C 
ATOM     18  C   UNL     1      -0.930  -1.913   2.325  0.00  0.00    +0.015 C 
ATOM     19  C   UNL     1      -1.810  -2.020   3.574  0.00  0.00    -0.017 C 
ATOM     20  C   UNL     1      -0.937  -1.861   4.821  0.00  0.00    -0.079 C 
ATOM     21  N   UNL     1      -0.278  -0.550   4.797  0.00  0.00    +0.379 N 
ATOM     22  C   UNL     1       0.622  -0.465   3.640  0.00  0.00    -0.060 C 
ATOM     23  C   UNL     1       0.497  -0.369   6.032  0.00  0.00    -0.096 C 
ATOM     24  H   UNL     1      -0.976   0.176   4.731  0.00  0.00    -0.082 HD
ENDBRANCH  15  17
ENDBRANCH   2  15
TORSDOF 5
