REMARK  Name = ZINC36374867
REMARK  13 active torsions:
REMARK  status: ('A' for Active; 'I' for Inactive)
REMARK    1  A    between atoms: C_1  and  C_2
REMARK    2  A    between atoms: C_2  and  C_34
REMARK    3  A    between atoms: C_3  and  C_4
REMARK    4  A    between atoms: C_4  and  O_5
REMARK    5  A    between atoms: O_5  and  C_6
REMARK    6  A    between atoms: C_7  and  O_17
REMARK    7  A    between atoms: O_17  and  C_18
REMARK    8  A    between atoms: C_20  and  O_33
REMARK    9  A    between atoms: C_22  and  O_32
REMARK   10  A    between atoms: C_24  and  O_31
REMARK   11  A    between atoms: C_26  and  C_29
REMARK   12  A    between atoms: C_29  and  O_30
REMARK   13  A    between atoms: C_34  and  O_35
REMARK                            x       y       z     vdW  Elec       q    Type
REMARK                         _______ _______ _______ _____ _____    ______ ____
ROOT
ATOM      1  C   UNL     1       0.939  -4.034   2.245  0.00  0.00    +0.206 A 
ATOM      2  C   UNL     1       0.096  -4.687   3.136  0.00  0.00    +0.169 A 
ATOM      3  C   UNL     1       0.152  -6.071   3.276  0.00  0.00    +0.050 A 
ATOM      4  C   UNL     1       1.036  -6.806   2.540  0.00  0.00    +0.015 A 
ATOM      5  C   UNL     1       1.894  -6.167   1.638  0.00  0.00    +0.022 A 
ATOM      6  C   UNL     1       1.841  -4.769   1.485  0.00  0.00    +0.184 A 
ATOM      7  O   UNL     1       2.666  -4.157   0.608  0.00  0.00    -0.418 OA
ATOM      8  C   UNL     1       3.542  -4.853  -0.133  0.00  0.00    +0.337 A 
ATOM      9  O   UNL     1       4.267  -4.258  -0.910  0.00  0.00    -0.245 OA
ATOM     10  C   UNL     1       3.645  -6.256  -0.034  0.00  0.00    +0.092 A 
ATOM     11  C   UNL     1       2.852  -6.932   0.837  0.00  0.00    +0.018 A 
ENDROOT
BRANCH   1  12
ATOM     12  O   UNL     1       0.878  -2.681   2.114  0.00  0.00    -0.481 OA
BRANCH  12  13
ATOM     13  C   UNL     1      -0.027  -2.164   1.137  0.00  0.00    +0.257 C 
BRANCH  13  16
ATOM     14  C   UNL     1       0.310   1.483  -0.007  0.00  0.00    +0.041 C 
ATOM     15  C   UNL     1       0.079  -0.006  -0.001  0.00  0.00    -0.048 C 
ATOM     16  C   UNL     1       0.042  -0.658   1.134  0.00  0.00    +0.015 C 
BRANCH  15  17
ATOM     17  C   UNL     1      -0.110  -0.745  -1.301  0.00  0.00    +0.186 C 
BRANCH  17  18
ATOM     18  O   UNL     1       1.103  -0.698  -2.056  0.00  0.00    -0.391 OA
ATOM     19  H   UNL     1       1.055  -1.155  -2.907  0.00  0.00    +0.210 HD
ENDBRANCH  17  18
ENDBRANCH  15  17
ENDBRANCH  13  16
ENDBRANCH  12  13
ENDBRANCH   1  12
BRANCH   2  20
ATOM     20  O   UNL     1      -0.789  -3.969   3.876  0.00  0.00    -0.457 OA
BRANCH  20  21
ATOM     21  C   UNL     1      -1.627  -4.700   4.773  0.00  0.00    +0.339 C 
ATOM     22  C   UNL     1      -2.712  -3.774   5.327  0.00  0.00    +0.214 C 
ATOM     23  C   UNL     1      -3.569  -4.548   6.333  0.00  0.00    +0.180 C 
ATOM     24  C   UNL     1      -2.664  -5.107   7.435  0.00  0.00    +0.177 C 
ATOM     25  C   UNL     1      -1.580  -5.983   6.799  0.00  0.00    +0.179 C 
ATOM     26  O   UNL     1      -0.840  -5.210   5.852  0.00  0.00    -0.331 OA
BRANCH  24  27
ATOM     27  O   UNL     1      -2.052  -4.028   8.144  0.00  0.00    -0.386 OA
ATOM     28  H   UNL     1      -2.682  -3.430   8.569  0.00  0.00    +0.210 HD
ENDBRANCH  24  27
BRANCH  23  29
ATOM     29  O   UNL     1      -4.540  -3.672   6.909  0.00  0.00    -0.386 OA
ATOM     30  H   UNL     1      -5.144  -3.277   6.265  0.00  0.00    +0.210 HD
ENDBRANCH  23  29
BRANCH  22  31
ATOM     31  O   UNL     1      -2.101  -2.658   5.978  0.00  0.00    -0.383 OA
ATOM     32  H   UNL     1      -1.539  -2.125   5.400  0.00  0.00    +0.210 HD
ENDBRANCH  22  31
BRANCH  25  33
ATOM     33  C   UNL     1      -0.636  -6.497   7.888  0.00  0.00    +0.190 C 
BRANCH  33  34
ATOM     34  O   UNL     1       0.305  -7.405   7.312  0.00  0.00    -0.392 OA
ATOM     35  H   UNL     1       0.936  -7.772   7.946  0.00  0.00    +0.210 HD
ENDBRANCH  33  34
ENDBRANCH  25  33
ENDBRANCH  20  21
ENDBRANCH   2  20
TORSDOF 12
