REMARK  Name = ZINC61710524
REMARK  4 active torsions:
REMARK  status: ('A' for Active; 'I' for Inactive)
REMARK    1  A    between atoms: C_3  and  N_12
REMARK    2  A    between atoms: C_4  and  C_8
REMARK    3  A    between atoms: N_9  and  O_10
REMARK    4  A    between atoms: C_15  and  O_18
REMARK                            x       y       z     vdW  Elec       q    Type
REMARK                         _______ _______ _______ _____ _____    ______ ____
ROOT
ATOM      1  C   UNL     1      -0.017   1.380   0.010  0.00  0.00    +0.003 A 
ATOM      2  C   UNL     1       1.165   2.095   0.002  0.00  0.00    +0.024 A 
ATOM      3  C   UNL     1       2.382   1.427  -0.013  0.00  0.00    +0.042 A 
ATOM      4  C   UNL     1       2.405   0.026  -0.021  0.00  0.00    +0.057 A 
ATOM      5  C   UNL     1       1.204  -0.684  -0.013  0.00  0.00    +0.053 A 
ATOM      6  C   UNL     1       0.002  -0.004   0.002  0.00  0.00    +0.021 A 
ATOM      7 CL   UNL     1       1.220  -2.420  -0.023  0.00  0.00    -0.083 Cl
ENDROOT
BRANCH   4   8
ATOM      8  C   UNL     1       3.695  -0.696  -0.038  0.00  0.00    +0.166 C 
ATOM      9  N   UNL     1       4.275  -1.020   1.082  0.00  0.00    -0.071 NA
ATOM     10  N   UNL     1       4.287  -1.028  -1.246  0.00  0.00    -0.340 N 
ATOM     11  H   UNL     1       3.855  -0.787  -2.080  0.00  0.00    +0.144 HD
ATOM     12  H   UNL     1       5.133  -1.502  -1.257  0.00  0.00    +0.144 HD
BRANCH   9  13
ATOM     13  O   UNL     1       3.669  -0.681   2.316  0.00  0.00    -0.408 OA
ATOM     14  H   UNL     1       4.173  -0.963   3.092  0.00  0.00    +0.328 HD
ENDBRANCH   9  13
ENDBRANCH   4   8
BRANCH   3  15
ATOM     15  N   UNL     1       3.574   2.147  -0.022  0.00  0.00    -0.327 N 
ATOM     16  C   UNL     1       4.294   2.602  -1.225  0.00  0.00    +0.108 C 
ATOM     17  C   UNL     1       5.132   3.815  -0.750  0.00  0.00    +0.052 C 
ATOM     18  C   UNL     1       5.556   3.364   0.673  0.00  0.00    +0.133 C 
ATOM     19  C   UNL     1       4.320   2.583   1.168  0.00  0.00    +0.136 C 
BRANCH  18  20
ATOM     20  O   UNL     1       5.808   4.495   1.508  0.00  0.00    -0.390 OA
ATOM     21  H   UNL     1       6.526   5.063   1.196  0.00  0.00    +0.210 HD
ENDBRANCH  18  20
ENDBRANCH   3  15
TORSDOF 4
