REMARK  Name = ZINC20704819
REMARK  3 active torsions:
REMARK  status: ('A' for Active; 'I' for Inactive)
REMARK    1  A    between atoms: C_4  and  N_30
REMARK    2  A    between atoms: C_6  and  C_7
REMARK    3  A    between atoms: C_18  and  C_23
REMARK                            x       y       z     vdW  Elec       q    Type
REMARK                         _______ _______ _______ _____ _____    ______ ____
ROOT
ATOM      1  C   UNL     1       3.672   1.764  -0.093  0.00  0.00    +0.105 C 
ATOM      2  C   UNL     1       3.447   3.024  -0.909  0.00  0.00    +0.029 C 
ATOM      3  C   UNL     1       4.591   4.045  -0.986  0.00  0.00    +0.033 C 
ATOM      4  C   UNL     1       3.822   5.354  -1.177  0.00  0.00    -0.030 C 
ATOM      5  C   UNL     1       2.602   5.242  -0.667  0.00  0.00    -0.023 C 
ATOM      6  C   UNL     1       2.459   3.889  -0.071  0.00  0.00    +0.049 C 
ATOM      7  C   UNL     1       1.160   3.183  -0.029  0.00  0.00    -0.019 A 
ATOM      8  C   UNL     1      -0.040   3.851  -0.025  0.00  0.00    +0.019 A 
ATOM      9  C   UNL     1      -1.241   3.139   0.036  0.00  0.00    +0.037 A 
ATOM     10  C   UNL     1      -1.215   1.742   0.086  0.00  0.00    +0.015 A 
ATOM     11  C   UNL     1      -0.013   1.076   0.082  0.00  0.00    +0.024 A 
ATOM     12  C   UNL     1       1.187   1.781   0.016  0.00  0.00    +0.031 A 
ATOM     13  N   UNL     1       2.388   1.075  -0.024  0.00  0.00    -0.336 N 
ATOM     14  H   UNL     1       2.354  -0.025  -0.004  0.00  0.00    +0.147 HD
ENDROOT
BRANCH   1  20
ATOM     15  C   UNL     1       4.338   0.083  -1.824  0.00  0.00    +0.007 A 
ATOM     16  C   UNL     1       5.281  -0.721  -2.437  0.00  0.00    +0.022 A 
ATOM     17  C   UNL     1       6.589  -0.719  -1.986  0.00  0.00    +0.071 A 
ATOM     18  C   UNL     1       6.952   0.088  -0.922  0.00  0.00    +0.145 A 
ATOM     19  C   UNL     1       6.009   0.895  -0.314  0.00  0.00    +0.039 A 
ATOM     20  C   UNL     1       4.701   0.888  -0.761  0.00  0.00    -0.025 A 
ATOM     21 CL   UNL     1       7.774  -1.727  -2.756  0.00  0.00    -0.081 Cl
BRANCH  18  22
ATOM     22  N   UNL     1       8.351   0.091  -0.439  0.00  0.00    +0.058 N 
ATOM     23  O   UNL     1       8.671   0.801   0.497  0.00  0.00    -0.126 OA
ATOM     24  O   UNL     1       9.183  -0.616  -0.979  0.00  0.00    -0.126 OA
ENDBRANCH  18  22
ENDBRANCH   1  20
BRANCH   9  25
ATOM     25  C   UNL     1      -2.529   3.857   0.041  0.00  0.00    +0.247 C 
ATOM     26  O   UNL     1      -3.571   3.237  -0.053  0.00  0.00    -0.270 OA
ATOM     27  N   UNL     1      -2.552   5.200   0.151  0.00  0.00    -0.298 N 
ATOM     28  C   UNL     1      -1.373   6.078   0.168  0.00  0.00    +0.108 C 
ATOM     29  C   UNL     1      -1.881   7.526   0.333  0.00  0.00    +0.020 C 
ATOM     30  C   UNL     1      -3.280   7.329   0.975  0.00  0.00    +0.020 C 
ATOM     31  C   UNL     1      -3.762   6.032   0.279  0.00  0.00    +0.108 C 
ENDBRANCH   9  25
TORSDOF 3
