REMARK  Name = ZINC09092219
REMARK  7 active torsions:
REMARK  status: ('A' for Active; 'I' for Inactive)
REMARK    1  A    between atoms: C_1  and  C_2
REMARK    2  A    between atoms: C_8  and  N_10
REMARK    3  A    between atoms: C_11  and  C_13
REMARK    4  A    between atoms: C_13  and  S_14
REMARK    5  A    between atoms: S_14  and  C_15
REMARK    6  A    between atoms: C_18  and  C_21
REMARK    7  A    between atoms: N_19  and  N_20
REMARK                            x       y       z     vdW  Elec       q    Type
REMARK                         _______ _______ _______ _____ _____    ______ ____
ROOT
ATOM      1  C   UNL     1       2.263  -4.894   3.863  0.00  0.00    +0.209 A 
ATOM      2  N   UNL     1       1.219  -5.499   3.342  0.00  0.00    -0.121 NA
ATOM      3  N   UNL     1       1.339  -6.772   3.466  0.00  0.00    -0.127 NA
ATOM      4  C   UNL     1       2.467  -7.059   4.073  0.00  0.00    +0.183 A 
ATOM      5  N   UNL     1       3.096  -5.865   4.341  0.00  0.00    -0.224 N 
ENDROOT
BRANCH   4   6
ATOM      6  C   UNL     1       2.969  -8.410   4.401  0.00  0.00    +0.035 A 
ATOM      7  C   UNL     1       3.463  -8.684   5.677  0.00  0.00    +0.013 A 
ATOM      8  C   UNL     1       3.930  -9.947   5.977  0.00  0.00    +0.001 A 
ATOM      9  C   UNL     1       3.910 -10.942   5.015  0.00  0.00    +0.001 A 
ATOM     10  C   UNL     1       3.422 -10.678   3.748  0.00  0.00    +0.016 A 
ATOM     11  C   UNL     1       2.947  -9.420   3.437  0.00  0.00    +0.029 A 
ATOM     12 BR   UNL     1       2.273  -9.063   1.706  0.00  0.00    -0.050 Br
ENDBRANCH   4   6
BRANCH   5  13
ATOM     13  N   UNL     1       4.301  -5.688   4.959  0.00  0.00    -0.295 N 
ATOM     14  H   UNL     1       4.197  -5.687   5.963  0.00  0.00    +0.163 HD
ATOM     15  H   UNL     1       4.965  -6.390   4.665  0.00  0.00    +0.163 HD
ENDBRANCH   5  13
BRANCH   1  16
ATOM     16  S   UNL     1       2.541  -3.155   3.925  0.00  0.00    -0.075 S 
BRANCH  16  17
ATOM     17  C   UNL     1       1.038  -2.567   3.107  0.00  0.00    +0.173 C 
BRANCH  17  19
ATOM     18  N   UNL     1       0.031  -0.398   2.473  0.00  0.00    -0.312 N 
ATOM     19  C   UNL     1       1.056  -1.062   3.044  0.00  0.00    +0.224 C 
ATOM     20  O   UNL     1       1.993  -0.447   3.507  0.00  0.00    -0.275 OA
ATOM     21  H   UNL     1      -0.719  -0.890   2.103  0.00  0.00    +0.149 HD
BRANCH  18  28
ATOM     22  C   UNL     1      -0.269   0.966  -0.064  0.00  0.00    +0.009 C 
ATOM     23  C   UNL     1      -0.819   1.538   1.244  0.00  0.00    +0.006 C 
ATOM     24  C   UNL     1      -2.256   1.053   1.448  0.00  0.00    +0.005 C 
ATOM     25  C   UNL     1      -2.807   1.625   2.756  0.00  0.00    +0.000 C 
ATOM     26  C   UNL     1      -1.939   1.153   3.924  0.00  0.00    +0.002 C 
ATOM     27  C   UNL     1      -0.502   1.637   3.720  0.00  0.00    +0.022 C 
ATOM     28  C   UNL     1       0.049   1.065   2.412  0.00  0.00    +0.076 C 
ENDBRANCH  18  28
ENDBRANCH  17  19
ENDBRANCH  16  17
ENDBRANCH   1  16
TORSDOF 6
