REMARK  Name = ZINC21156413
REMARK  7 active torsions:
REMARK  status: ('A' for Active; 'I' for Inactive)
REMARK    1  A    between atoms: C_1  and  C_2
REMARK    2  A    between atoms: C_5  and  C_9
REMARK    3  A    between atoms: C_6  and  C_8
REMARK    4  A    between atoms: C_11  and  C_28
REMARK    5  A    between atoms: N_15  and  C_20
REMARK    6  A    between atoms: C_23  and  C_27
REMARK    7  A    between atoms: C_24  and  C_26
REMARK                            x       y       z     vdW  Elec       q    Type
REMARK                         _______ _______ _______ _____ _____    ______ ____
ROOT
ATOM      1  C   UNL     1      -0.215   1.017   0.281  0.00  0.00    +0.163 A 
ATOM      2  N   UNL     1      -0.348  -0.295   0.176  0.00  0.00    -0.220 NA
ATOM      3  C   UNL     1       0.709  -1.101   0.281  0.00  0.00    +0.154 A 
ATOM      4  C   UNL     1       1.964  -0.532   0.504  0.00  0.00    +0.117 A 
ATOM      5  C   UNL     1       2.058   0.868   0.609  0.00  0.00    +0.170 A 
ATOM      6  N   UNL     1       0.962   1.595   0.493  0.00  0.00    -0.208 NA
ATOM      7  N   UNL     1       3.394   1.159   0.826  0.00  0.00    -0.245 N 
ATOM      8  C   UNL     1       4.083   0.002   0.854  0.00  0.00    +0.333 A 
ATOM      9  O   UNL     1       5.283  -0.093   1.026  0.00  0.00    -0.246 OA
ATOM     10  N   UNL     1       3.243  -1.034   0.662  0.00  0.00    -0.303 N 
ATOM     11  H   UNL     1       3.418  -2.119   0.617  0.00  0.00    +0.171 HD
ENDROOT
BRANCH   1  16
ATOM     12  C   UNL     1      -4.894   4.336  -0.225  0.00  0.00    +0.044 C 
ATOM     13  C   UNL     1      -3.670   3.467  -0.093  0.00  0.00    -0.050 A 
ATOM     14  C   UNL     1      -2.789   3.673   0.954  0.00  0.00    +0.004 A 
ATOM     15  C   UNL     1      -1.667   2.881   1.080  0.00  0.00    +0.012 A 
ATOM     16  C   UNL     1      -1.421   1.872   0.150  0.00  0.00    +0.022 A 
ATOM     17  C   UNL     1      -2.308   1.673  -0.905  0.00  0.00    -0.040 A 
ATOM     18  C   UNL     1      -3.431   2.468  -1.018  0.00  0.00    +0.007 A 
ATOM     19  C   UNL     1      -2.046   0.589  -1.918  0.00  0.00    +0.044 C 
ENDBRANCH   1  16
BRANCH   7  20
ATOM     20  C   UNL     1       3.937   2.440   0.990  0.00  0.00    +0.053 A 
ATOM     21  C   UNL     1       3.112   3.557   0.940  0.00  0.00    +0.026 A 
ATOM     22  C   UNL     1       3.651   4.818   1.102  0.00  0.00    +0.005 A 
ATOM     23  C   UNL     1       5.009   4.970   1.315  0.00  0.00    -0.047 A 
ATOM     24  C   UNL     1       5.832   3.860   1.366  0.00  0.00    -0.046 A 
ATOM     25  C   UNL     1       5.299   2.596   1.209  0.00  0.00    +0.030 A 
ATOM     26  C   UNL     1       7.311   4.030   1.598  0.00  0.00    +0.044 C 
ATOM     27  C   UNL     1       5.593   6.348   1.491  0.00  0.00    +0.044 C 
ENDBRANCH   7  20
BRANCH   3  28
ATOM     28  C   UNL     1       0.555  -2.570   0.163  0.00  0.00    +0.262 C 
ATOM     29  O   UNL     1       1.527  -3.293   0.260  0.00  0.00    -0.269 OA
ATOM     30  N   UNL     1      -0.663  -3.104  -0.053  0.00  0.00    -0.324 N 
ATOM     31  H   UNL     1      -0.778  -4.195  -0.140  0.00  0.00    +0.145 HD
ATOM     32  H   UNL     1      -1.543  -2.450  -0.141  0.00  0.00    +0.145 HD
ENDBRANCH   3  28
TORSDOF 3
