REMARK  Name = ZINC37639374
REMARK  5 active torsions:
REMARK  status: ('A' for Active; 'I' for Inactive)
REMARK    1  A    between atoms: C_4  and  C_7
REMARK    2  A    between atoms: N_14  and  C_22
REMARK    3  A    between atoms: N_17  and  C_18
REMARK    4  A    between atoms: C_18  and  C_19
REMARK    5  A    between atoms: C_22  and  C_23
REMARK                            x       y       z     vdW  Elec       q    Type
REMARK                         _______ _______ _______ _____ _____    ______ ____
ROOT
ATOM      1  C   UNL     1       3.698  -0.688  -0.037  0.00  0.00    +0.004 A 
ATOM      2  C   UNL     1       4.658  -0.360  -0.934  0.00  0.00    +0.056 A 
ATOM      3  S   UNL     1       5.981  -1.490  -0.547  0.00  0.00    -0.078 S 
ATOM      4  C   UNL     1       5.218  -2.363   0.795  0.00  0.00    +0.098 A 
ATOM      5  C   UNL     1       3.965  -1.760   0.916  0.00  0.00    +0.078 A 
ATOM      6  C   UNL     1       3.099  -2.300   1.986  0.00  0.00    +0.266 A 
ATOM      7  O   UNL     1       1.986  -1.841   2.167  0.00  0.00    -0.267 OA
ATOM      8  N   UNL     1       3.555  -3.303   2.757  0.00  0.00    -0.256 N 
ATOM      9  C   UNL     1       4.777  -3.832   2.585  0.00  0.00    +0.334 A 
ATOM     10  O   UNL     1       5.143  -4.738   3.308  0.00  0.00    -0.246 OA
ATOM     11  N   UNL     1       5.603  -3.384   1.618  0.00  0.00    -0.278 N 
ENDROOT
BRANCH   1  15
ATOM     12  C   UNL     1      -0.017   1.379   0.010  0.00  0.00    +0.000 A 
ATOM     13  C   UNL     1       1.169   2.092   0.002  0.00  0.00    +0.001 A 
ATOM     14  C   UNL     1       2.377   1.427  -0.013  0.00  0.00    +0.008 A 
ATOM     15  C   UNL     1       2.403   0.033  -0.021  0.00  0.00    -0.017 A 
ATOM     16  C   UNL     1       1.205  -0.680  -0.013  0.00  0.00    +0.008 A 
ATOM     17  C   UNL     1       0.002  -0.004   0.002  0.00  0.00    +0.001 A 
ENDBRANCH   1  15
BRANCH  11  18
ATOM     18  C   UNL     1       6.929  -3.985   1.459  0.00  0.00    +0.222 C 
BRANCH  18  19
ATOM     19  C   UNL     1       7.920  -3.248   2.323  0.00  0.00    +0.230 C 
ATOM     20  O   UNL     1       7.554  -2.314   3.004  0.00  0.00    -0.274 OA
ATOM     21  N   UNL     1       9.213  -3.628   2.339  0.00  0.00    -0.328 N 
ATOM     22  H   UNL     1       9.506  -4.376   1.794  0.00  0.00    +0.145 HD
ATOM     23  H   UNL     1       9.851  -3.154   2.895  0.00  0.00    +0.145 HD
ENDBRANCH  18  19
ENDBRANCH  11  18
BRANCH   8  24
ATOM     24  C   UNL     1       2.693  -3.833   3.816  0.00  0.00    +0.165 C 
BRANCH  24  25
ATOM     25  C   UNL     1       1.859  -4.962   3.267  0.00  0.00    -0.027 A 
ATOM     26  C   UNL     1       0.624  -4.698   2.705  0.00  0.00    +0.007 A 
ATOM     27  C   UNL     1      -0.142  -5.732   2.201  0.00  0.00    +0.020 A 
ATOM     28  C   UNL     1       0.328  -7.032   2.258  0.00  0.00    +0.041 A 
ATOM     29  C   UNL     1       1.564  -7.296   2.820  0.00  0.00    +0.020 A 
ATOM     30  C   UNL     1       2.332  -6.260   3.319  0.00  0.00    +0.007 A 
ATOM     31 CL   UNL     1      -0.633  -8.332   1.625  0.00  0.00    -0.084 Cl
ENDBRANCH  24  25
ENDBRANCH   8  24
TORSDOF 5
