REMARK  Name = ZINC50393225
REMARK  3 active torsions:
REMARK  status: ('A' for Active; 'I' for Inactive)
REMARK    1  A    between atoms: C_7  and  C_11
REMARK    2  A    between atoms: C_7  and  N_14
REMARK    3  A    between atoms: N_14  and  C_15
REMARK                            x       y       z     vdW  Elec       q    Type
REMARK                         _______ _______ _______ _____ _____    ______ ____
ROOT
ATOM      1  C   UNL     1      -0.867  -0.059   1.902  0.00  0.00    +0.000 A 
ATOM      2  C   UNL     1       0.214   0.549   2.515  0.00  0.00    +0.001 A 
ATOM      3  C   UNL     1       1.478   0.036   2.327  0.00  0.00    +0.015 A 
ATOM      4  C   UNL     1       1.676  -1.083   1.518  0.00  0.00    +0.010 A 
ATOM      5  C   UNL     1       0.600  -1.684   0.891  0.00  0.00    -0.034 A 
ATOM      6  C   UNL     1      -0.675  -1.163   1.101  0.00  0.00    +0.004 A 
ATOM      7  C   UNL     1       0.701  -2.862  -0.032  0.00  0.00    +0.064 C 
ATOM      8  C   UNL     1       1.936  -3.715   0.197  0.00  0.00    +0.014 C 
ATOM      9  C   UNL     1       3.188  -2.861  -0.048  0.00  0.00    +0.074 C 
ATOM     10  S   UNL     1       3.322  -1.694   1.339  0.00  0.00    -0.125 S 
ENDROOT
BRANCH   7  11
ATOM     11  C   UNL     1      -0.521  -3.725   0.153  0.00  0.00    +0.350 C 
ATOM     12  O   UNL     1      -1.192  -4.047  -0.813  0.00  0.00    -0.248 OA
ATOM     13  O   UNL     1      -0.839  -4.101   1.268  0.00  0.00    -0.248 OA
ENDBRANCH   7  11
BRANCH   7  14
ATOM     14  N   UNL     1       0.719  -2.373  -1.417  0.00  0.00    +0.400 N 
ATOM     15  H   UNL     1       1.535  -1.797  -1.559  0.00  0.00    -0.083 HD
ATOM     16  H   UNL     1       0.746  -3.157  -2.051  0.00  0.00    -0.083 HD
BRANCH  14  17
ATOM     17  C   UNL     1      -0.491  -1.579  -1.672  0.00  0.00    +0.018 C 
ATOM     18  C   UNL     1      -1.057  -1.943  -3.047  0.00  0.00    -0.005 C 
ATOM     19  C   UNL     1      -2.143  -0.922  -3.409  0.00  0.00    +0.018 C 
ATOM     20  C   UNL     1      -1.482   0.439  -3.629  0.00  0.00    +0.104 C 
ATOM     21  N   UNL     1      -0.617   0.774  -2.505  0.00  0.00    -0.317 N 
ATOM     22  C   UNL     1      -0.146  -0.118  -1.634  0.00  0.00    +0.199 C 
ATOM     23  O   UNL     1       0.600   0.273  -0.761  0.00  0.00    -0.278 OA
ATOM     24  H   UNL     1      -0.367   1.704  -2.384  0.00  0.00    +0.149 HD
ENDBRANCH  14  17
ENDBRANCH   7  14
TORSDOF 3
