REMARK  Name = ZINC16915408
REMARK  8 active torsions:
REMARK  status: ('A' for Active; 'I' for Inactive)
REMARK    1  A    between atoms: C_1  and  O_2
REMARK    2  A    between atoms: O_2  and  C_3
REMARK    3  A    between atoms: C_5  and  C_14
REMARK    4  A    between atoms: C_8  and  O_9
REMARK    5  A    between atoms: O_9  and  C_10
REMARK    6  A    between atoms: C_10  and  C_11
REMARK    7  A    between atoms: C_19  and  N_21
REMARK    8  A    between atoms: N_21  and  C_22
REMARK                            x       y       z     vdW  Elec       q    Type
REMARK                         _______ _______ _______ _____ _____    ______ ____
ROOT
ATOM      1  C   UNL     1       2.396   0.261   4.257  0.00  0.00    +0.028 C 
ATOM      2  C   UNL     1       1.968   1.529   4.486  0.00  0.00    +0.079 C 
ATOM      3  C   UNL     1       0.883   2.297   3.830  0.00  0.00    +0.276 C 
ATOM      4  O   UNL     1       0.205   1.818   2.936  0.00  0.00    -0.267 OA
ATOM      5  N   UNL     1       0.692   3.522   4.266  0.00  0.00    -0.152 NA
ATOM      6  C   UNL     1       1.420   4.054   5.235  0.00  0.00    +0.175 C 
ATOM      7  S   UNL     1       2.549   2.739   5.667  0.00  0.00    -0.050 S 
ENDROOT
BRANCH   1  10
ATOM      8  C   UNL     1       1.128  -0.550   0.822  0.00  0.00    +0.162 A 
ATOM      9  C   UNL     1       1.613   0.164   1.900  0.00  0.00    +0.057 A 
ATOM     10  C   UNL     1       1.879  -0.492   3.108  0.00  0.00    -0.020 A 
ATOM     11  C   UNL     1       1.652  -1.870   3.216  0.00  0.00    +0.012 A 
ATOM     12  C   UNL     1       1.168  -2.574   2.135  0.00  0.00    +0.050 A 
ATOM     13  C   UNL     1       0.899  -1.921   0.940  0.00  0.00    +0.163 A 
BRANCH   8  15
ATOM     14  C   UNL     1       1.126   1.489  -0.402  0.00  0.00    +0.277 C 
ATOM     15  O   UNL     1       0.868   0.084  -0.352  0.00  0.00    -0.491 OA
ENDBRANCH   8  15
BRANCH  13  16
ATOM     16  O   UNL     1       0.416  -2.620  -0.120  0.00  0.00    -0.477 OA
BRANCH  16  17
ATOM     17  C   UNL     1       0.205  -4.020   0.068  0.00  0.00    +0.354 C 
BRANCH  17  18
ATOM     18  C   UNL     1      -0.329  -4.624  -1.205  0.00  0.00    +0.393 C 
ATOM     19  O   UNL     1      -0.511  -3.920  -2.184  0.00  0.00    -0.243 OA
ATOM     20  O   UNL     1      -0.578  -5.816  -1.257  0.00  0.00    -0.243 OA
ENDBRANCH  17  18
ENDBRANCH  16  17
ENDBRANCH  13  16
ENDBRANCH   1  10
BRANCH   6  21
ATOM     21  N   UNL     1       1.327   5.309   5.779  0.00  0.00    -0.192 NA
BRANCH  21  22
ATOM     22  C   UNL     1       0.248   6.135   5.450  0.00  0.00    +0.056 A 
ATOM     23  C   UNL     1      -0.952   5.578   5.027  0.00  0.00    +0.025 A 
ATOM     24  C   UNL     1      -2.016   6.397   4.703  0.00  0.00    +0.002 A 
ATOM     25  C   UNL     1      -1.887   7.771   4.799  0.00  0.00    +0.000 A 
ATOM     26  C   UNL     1      -0.693   8.328   5.219  0.00  0.00    +0.002 A 
ATOM     27  C   UNL     1       0.372   7.515   5.550  0.00  0.00    +0.025 A 
ENDBRANCH  21  22
ENDBRANCH   6  21
TORSDOF 7
