REMARK  Name = ZINC53163028
REMARK  3 active torsions:
REMARK  status: ('A' for Active; 'I' for Inactive)
REMARK    1  A    between atoms: C_5  and  N_8
REMARK    2  A    between atoms: C_6  and  N_7
REMARK    3  A    between atoms: C_11  and  C_14
REMARK                            x       y       z     vdW  Elec       q    Type
REMARK                         _______ _______ _______ _____ _____    ______ ____
ROOT
ATOM      1  C   UNL     1      -0.017   1.382   0.010  0.00  0.00    +0.027 A 
ATOM      2  C   UNL     1       1.171   2.091   0.002  0.00  0.00    +0.043 A 
ATOM      3  C   UNL     1       2.381   1.420  -0.013  0.00  0.00    +0.160 A 
ATOM      4  C   UNL     1       2.409   0.034  -0.021  0.00  0.00    +0.181 A 
ATOM      5  C   UNL     1       1.220  -0.682  -0.013  0.00  0.00    +0.089 A 
ATOM      6  C   UNL     1       0.002  -0.004   0.002  0.00  0.00    +0.049 A 
ATOM      7  F   UNL     1       3.591  -0.618  -0.036  0.00  0.00    -0.200 F 
ATOM      8  F   UNL     1       3.539   2.118  -0.021  0.00  0.00    -0.202 F 
ENDROOT
BRANCH   5   9
ATOM      9  N   UNL     1       1.244  -2.084  -0.021  0.00  0.00    -0.326 N 
ATOM     10  C   UNL     1       1.251  -2.825  -1.290  0.00  0.00    +0.106 C 
ATOM     11  C   UNL     1       0.101  -3.837  -1.276  0.00  0.00    +0.031 C 
ATOM     12  C   UNL     1       0.219  -4.720  -0.031  0.00  0.00    +0.078 C 
ATOM     13  C   UNL     1       0.114  -3.851   1.224  0.00  0.00    +0.031 C 
ATOM     14  C   UNL     1       1.269  -2.839   1.238  0.00  0.00    +0.106 C 
BRANCH  12  15
ATOM     15  C   UNL     1      -0.891  -5.739  -0.032  0.00  0.00    +0.214 C 
ATOM     16  O   UNL     1      -1.697  -5.758  -0.938  0.00  0.00    -0.276 OA
ATOM     17  N   UNL     1      -0.988  -6.630   0.975  0.00  0.00    -0.329 N 
ATOM     18  H   UNL     1      -0.343  -6.615   1.700  0.00  0.00    +0.145 HD
ATOM     19  H   UNL     1      -1.702  -7.286   0.975  0.00  0.00    +0.145 HD
ENDBRANCH  12  15
ENDBRANCH   5   9
BRANCH   6  20
ATOM     20  N   UNL     1      -1.201  -0.723   0.010  0.00  0.00    -0.356 N 
ATOM     21  H   UNL     1      -2.048  -0.250   0.020  0.00  0.00    +0.142 HD
ATOM     22  H   UNL     1      -1.187  -1.692   0.004  0.00  0.00    +0.142 HD
ENDBRANCH   6  20
TORSDOF 3
