REMARK  Name = ZINC49682352
REMARK  4 active torsions:
REMARK  status: ('A' for Active; 'I' for Inactive)
REMARK    1  A    between atoms: C_6  and  C_7
REMARK    2  A    between atoms: C_7  and  C_8
REMARK    3  A    between atoms: C_8  and  C_9
REMARK    4  A    between atoms: N_11  and  C_12
REMARK                            x       y       z     vdW  Elec       q    Type
REMARK                         _______ _______ _______ _____ _____    ______ ____
ROOT
ATOM      1  C   UNL     1      -1.756  -1.010  -1.428  0.00  0.00    +0.101 C 
ENDROOT
BRANCH   1   2
ATOM      2  C   UNL     1      -3.046  -1.790  -1.421  0.00  0.00    +0.218 C 
ATOM      3  O   UNL     1      -3.556  -2.108  -0.367  0.00  0.00    -0.275 OA
ATOM      4  N   UNL     1      -3.633  -2.132  -2.584  0.00  0.00    -0.284 N 
ATOM      5  H   UNL     1      -3.261  -1.823  -3.425  0.00  0.00    +0.155 HD
BRANCH   4   6
ATOM      6  C   UNL     1      -4.779  -2.936  -2.580  0.00  0.00    +0.053 A 
ATOM      7  C   UNL     1      -5.711  -2.812  -1.558  0.00  0.00    +0.044 A 
ATOM      8  C   UNL     1      -6.842  -3.607  -1.557  0.00  0.00    +0.043 A 
ATOM      9  C   UNL     1      -7.047  -4.524  -2.573  0.00  0.00    +0.021 A 
ATOM     10  C   UNL     1      -6.120  -4.649  -3.592  0.00  0.00    +0.023 A 
ATOM     11  C   UNL     1      -4.990  -3.854  -3.602  0.00  0.00    +0.062 A 
ATOM     12 CL   UNL     1      -3.831  -4.007  -4.885  0.00  0.00    -0.082 Cl
ATOM     13 CL   UNL     1      -8.008  -3.454  -0.280  0.00  0.00    -0.083 Cl
ENDBRANCH   4   6
ENDBRANCH   1   2
BRANCH   1  14
ATOM     14  C   UNL     1      -1.307  -0.754   0.012  0.00  0.00    +0.044 C 
BRANCH  14  20
ATOM     15  C   UNL     1      -0.046   1.409   0.011  0.00  0.00    +0.007 A 
ATOM     16  C   UNL     1       1.131   2.132   0.004  0.00  0.00    +0.049 A 
ATOM     17  C   UNL     1       2.348   1.470  -0.010  0.00  0.00    +0.157 A 
ATOM     18  C   UNL     1       2.377   0.075  -0.017  0.00  0.00    +0.088 A 
ATOM     19  C   UNL     1       1.192  -0.643  -0.010  0.00  0.00    +0.033 A 
ATOM     20  C   UNL     1      -0.017   0.026   0.004  0.00  0.00    -0.045 A 
ATOM     21  N   UNL     1       3.721  -0.296  -0.030  0.00  0.00    -0.288 N 
ATOM     22  H   UNL     1       4.066  -1.202  -0.038  0.00  0.00    +0.172 HD
ATOM     23  C   UNL     1       4.454   0.836  -0.031  0.00  0.00    +0.419 A 
ATOM     24  O   UNL     1       5.669   0.886  -0.042  0.00  0.00    -0.223 OA
ATOM     25  O   UNL     1       3.634   1.899  -0.019  0.00  0.00    -0.408 OA
ENDBRANCH  14  20
ENDBRANCH   1  14
TORSDOF 4
