REMARK  Name = ZINC58396722
REMARK  9 active torsions:
REMARK  status: ('A' for Active; 'I' for Inactive)
REMARK    1  A    between atoms: C_1  and  C_2
REMARK    2  A    between atoms: C_3  and  C_14
REMARK    3  A    between atoms: C_4  and  C_13
REMARK    4  A    between atoms: C_8  and  C_11
REMARK    5  A    between atoms: C_14  and  C_15
REMARK    6  A    between atoms: C_15  and  C_16
REMARK    7  A    between atoms: N_18  and  C_19
REMARK    8  A    between atoms: N_18  and  C_23
REMARK    9  A    between atoms: C_19  and  C_20
REMARK                            x       y       z     vdW  Elec       q    Type
REMARK                         _______ _______ _______ _____ _____    ______ ____
ROOT
ATOM      1  C   UNL     1      -2.724   0.783   1.434  0.00  0.00    +0.101 C 
ENDROOT
BRANCH   1   2
ATOM      2  C   UNL     1      -4.138   1.302   1.461  0.00  0.00    +0.217 C 
ATOM      3  O   UNL     1      -4.719   1.536   0.422  0.00  0.00    -0.276 OA
ATOM      4  N   UNL     1      -4.758   1.508   2.640  0.00  0.00    -0.290 N 
BRANCH   4   5
ATOM      5  C   UNL     1      -6.091   2.116   2.671  0.00  0.00    +0.077 C 
ATOM      6  C   UNL     1      -7.050   1.245   3.509  0.00  0.00    +0.022 C 
ATOM      7  C   UNL     1      -7.019   1.892   4.916  0.00  0.00    +0.002 C 
ATOM      8  C   UNL     1      -6.951   3.405   4.594  0.00  0.00    +0.002 C 
ATOM      9  C   UNL     1      -6.029   3.490   3.361  0.00  0.00    +0.022 C 
ENDBRANCH   4   5
BRANCH   4  10
ATOM     10  C   UNL     1      -4.099   1.125   3.891  0.00  0.00    +0.203 C 
BRANCH  10  11
ATOM     11  C   UNL     1      -3.178   2.233   4.334  0.00  0.00    +0.228 C 
ATOM     12  O   UNL     1      -3.005   3.199   3.621  0.00  0.00    -0.274 OA
ATOM     13  N   UNL     1      -2.547   2.150   5.522  0.00  0.00    -0.328 N 
ATOM     14  H   UNL     1      -2.686   1.377   6.092  0.00  0.00    +0.145 HD
ATOM     15  H   UNL     1      -1.954   2.863   5.807  0.00  0.00    +0.145 HD
ENDBRANCH  10  11
ENDBRANCH   4  10
ENDBRANCH   1   2
BRANCH   1  16
ATOM     16  C   UNL     1      -2.261   0.640  -0.017  0.00  0.00    +0.048 C 
BRANCH  16  19
ATOM     17  C   UNL     1      -0.018   2.482   0.220  0.00  0.00    +0.066 C 
ATOM     18  C   UNL     1       0.233   1.004   0.070  0.00  0.00    +0.046 A 
ATOM     19  C   UNL     1      -0.847   0.120  -0.044  0.00  0.00    -0.005 A 
ATOM     20  C   UNL     1      -0.608  -1.209  -0.178  0.00  0.00    +0.047 A 
ATOM     21  N   UNL     1       0.681  -1.653  -0.200  0.00  0.00    -0.217 N 
ATOM     22  C   UNL     1       1.709  -0.758  -0.086  0.00  0.00    +0.173 A 
ATOM     23  N   UNL     1       1.466   0.547   0.041  0.00  0.00    -0.232 NA
ATOM     24  C   UNL     1       2.902  -1.502  -0.140  0.00  0.00    +0.115 A 
ATOM     25  C   UNL     1       2.537  -2.852  -0.289  0.00  0.00    +0.156 A 
ATOM     26  N   UNL     1       1.232  -2.933  -0.323  0.00  0.00    -0.172 NA
ATOM     27  C   UNL     1      -1.752  -2.181  -0.302  0.00  0.00    +0.066 C 
BRANCH  24  28
ATOM     28  C   UNL     1       4.234  -0.984  -0.060  0.00  0.00    +0.104 C 
ATOM     29  N   UNL     1       5.291  -0.572   0.004  0.00  0.00    -0.191 NA
ENDBRANCH  24  28
ENDBRANCH  16  19
ENDBRANCH   1  16
TORSDOF 7
