REMARK  Name = ZINC06391548
REMARK  7 active torsions:
REMARK  status: ('A' for Active; 'I' for Inactive)
REMARK    1  A    between atoms: C_1  and  C_2
REMARK    2  A    between atoms: C_7  and  C_8
REMARK    3  A    between atoms: N_10  and  C_11
REMARK    4  A    between atoms: C_11  and  N_13
REMARK    5  A    between atoms: N_13  and  C_14
REMARK    6  A    between atoms: C_17  and  S_20
REMARK    7  A    between atoms: S_20  and  N_23
REMARK                            x       y       z     vdW  Elec       q    Type
REMARK                         _______ _______ _______ _____ _____    ______ ____
ROOT
ATOM      1  N   UNL     1      -0.978   2.019   0.650  0.00  0.00    -0.297 N 
ATOM      2  H   UNL     1      -0.371   2.017  -0.107  0.00  0.00    +0.154 HD
ENDROOT
BRANCH   1   3
ATOM      3  C   UNL     1      -1.973   1.042   0.752  0.00  0.00    +0.033 A 
ATOM      4  C   UNL     1      -1.669  -0.290   0.500  0.00  0.00    +0.025 A 
ATOM      5  C   UNL     1      -2.653  -1.253   0.607  0.00  0.00    +0.030 A 
ATOM      6  C   UNL     1      -3.942  -0.892   0.954  0.00  0.00    +0.106 A 
ATOM      7  C   UNL     1      -4.249   0.434   1.200  0.00  0.00    +0.030 A 
ATOM      8  C   UNL     1      -3.268   1.401   1.100  0.00  0.00    +0.025 A 
BRANCH   6   9
ATOM      9  S   UNL     1      -5.196  -2.123   1.082  0.00  0.00    +0.061 S 
ATOM     10  O   UNL     1      -4.532  -3.354   1.336  0.00  0.00    -0.153 OA
ATOM     11  O   UNL     1      -6.191  -1.601   1.951  0.00  0.00    -0.153 OA
BRANCH   9  12
ATOM     12  N   UNL     1      -5.898  -2.264  -0.411  0.00  0.00    -0.177 NA
ATOM     13  C   UNL     1      -7.061  -1.442  -0.772  0.00  0.00    +0.109 C 
ATOM     14  C   UNL     1      -6.753  -0.709  -2.086  0.00  0.00    +0.017 C 
ATOM     15  C   UNL     1      -6.352  -1.731  -3.152  0.00  0.00    +0.003 C 
ATOM     16  C   UNL     1      -5.087  -2.468  -2.704  0.00  0.00    +0.017 C 
ATOM     17  C   UNL     1      -5.373  -3.217  -1.399  0.00  0.00    +0.109 C 
ENDBRANCH   9  12
ENDBRANCH   6   9
ENDBRANCH   1   3
BRANCH   1  18
ATOM     18  C   UNL     1      -0.861   2.965   1.604  0.00  0.00    +0.141 C 
ATOM     19  S   UNL     1      -1.998   3.035   2.882  0.00  0.00    -0.018 S 
BRANCH  18  22
ATOM     20  C   UNL     1       0.272   4.793   2.511  0.00  0.00    +0.250 C 
ATOM     21  O   UNL     1      -0.534   4.843   3.418  0.00  0.00    -0.270 OA
ATOM     22  N   UNL     1       0.153   3.851   1.554  0.00  0.00    -0.264 N 
ATOM     23  H   UNL     1       0.797   3.811   0.830  0.00  0.00    +0.157 HD
BRANCH  20  30
ATOM     24  C   UNL     1       0.364   6.969   4.415  0.00  0.00    +0.044 C 
ATOM     25  C   UNL     1       1.439   6.819   3.369  0.00  0.00    -0.038 A 
ATOM     26  C   UNL     1       2.481   7.722   3.313  0.00  0.00    +0.004 A 
ATOM     27  C   UNL     1       3.469   7.585   2.355  0.00  0.00    +0.000 A 
ATOM     28  C   UNL     1       3.420   6.542   1.446  0.00  0.00    +0.001 A 
ATOM     29  C   UNL     1       2.388   5.629   1.494  0.00  0.00    +0.013 A 
ATOM     30  C   UNL     1       1.384   5.764   2.456  0.00  0.00    +0.040 A 
ENDBRANCH  20  30
ENDBRANCH  18  22
ENDBRANCH   1  18
TORSDOF 6
