REMARK  Name = ZINC35454019
REMARK  5 active torsions:
REMARK  status: ('A' for Active; 'I' for Inactive)
REMARK    1  A    between atoms: C_5  and  O_7
REMARK    2  A    between atoms: O_7  and  C_8
REMARK    3  A    between atoms: C_8  and  C_9
REMARK    4  A    between atoms: N_11  and  C_12
REMARK    5  A    between atoms: C_15  and  N_19
REMARK                            x       y       z     vdW  Elec       q    Type
REMARK                         _______ _______ _______ _____ _____    ______ ____
ROOT
ATOM      1  C   UNL     1       0.192  -4.199  -0.018  0.00  0.00    +0.255 C 
ATOM      2  O   UNL     1       1.320  -4.645  -0.035  0.00  0.00    -0.272 OA
ATOM      3  N   UNL     1      -0.864  -5.036  -0.018  0.00  0.00    -0.282 N 
ATOM      4  H   UNL     1      -1.764  -4.681   0.062  0.00  0.00    +0.155 HD
ENDROOT
BRANCH   3   5
ATOM      5  C   UNL     1      -0.663  -6.418  -0.134  0.00  0.00    +0.048 A 
ATOM      6  C   UNL     1       0.453  -7.008   0.444  0.00  0.00    +0.026 A 
ATOM      7  C   UNL     1       0.652  -8.370   0.330  0.00  0.00    +0.024 A 
ATOM      8  C   UNL     1      -0.265  -9.150  -0.362  0.00  0.00    +0.026 A 
ATOM      9  C   UNL     1      -1.382  -8.561  -0.940  0.00  0.00    +0.039 A 
ATOM     10  C   UNL     1      -1.584  -7.199  -0.821  0.00  0.00    +0.041 A 
ATOM     11 BR   UNL     1      -3.108  -6.397  -1.601  0.00  0.00    -0.048 Br
BRANCH   8  12
ATOM     12  N   UNL     1      -0.064 -10.529  -0.477  0.00  0.00    -0.358 N 
ATOM     13  H   UNL     1       0.716 -10.941  -0.074  0.00  0.00    +0.142 HD
ATOM     14  H   UNL     1      -0.704 -11.074  -0.961  0.00  0.00    +0.142 HD
ENDBRANCH   8  12
ENDBRANCH   3   5
BRANCH   1  15
ATOM     15  C   UNL     1      -0.028  -2.708   0.004  0.00  0.00    +0.324 C 
BRANCH  15  16
ATOM     16  O   UNL     1       1.236  -2.040   0.000  0.00  0.00    -0.482 OA
BRANCH  16  21
ATOM     17  C   UNL     1      -0.014   1.376   0.058  0.00  0.00    +0.004 A 
ATOM     18  C   UNL     1       1.174   2.085   0.055  0.00  0.00    +0.001 A 
ATOM     19  C   UNL     1       2.382   1.414   0.034  0.00  0.00    +0.018 A 
ATOM     20  C   UNL     1       2.406   0.032   0.016  0.00  0.00    +0.055 A 
ATOM     21  C   UNL     1       1.215  -0.681   0.019  0.00  0.00    +0.134 A 
ATOM     22  C   UNL     1       0.004  -0.005   0.040  0.00  0.00    +0.047 A 
ATOM     23  I   UNL     1       4.237  -0.985  -0.017  0.00  0.00    -0.040 I 
ENDBRANCH  16  21
ENDBRANCH  15  16
ENDBRANCH   1  15
TORSDOF 5
