REMARK  Name = ZINC62897520
REMARK  5 active torsions:
REMARK  status: ('A' for Active; 'I' for Inactive)
REMARK    1  A    between atoms: C_1  and  C_2
REMARK    2  A    between atoms: C_2  and  C_7
REMARK    3  A    between atoms: N_9  and  C_10
REMARK    4  A    between atoms: N_9  and  C_11
REMARK    5  A    between atoms: C_16  and  C_17
REMARK                            x       y       z     vdW  Elec       q    Type
REMARK                         _______ _______ _______ _____ _____    ______ ____
ROOT
ATOM      1  C   UNL     1      -1.379  -0.743  -0.005  0.00  0.00    +0.224 C 
ATOM      2  O   UNL     1      -1.751  -1.391   0.950  0.00  0.00    -0.275 OA
ATOM      3  N   UNL     1      -2.275  -0.311  -0.915  0.00  0.00    -0.273 N 
ATOM      4  C   UNL     1      -3.707  -0.525  -0.693  0.00  0.00    +0.138 C 
ENDROOT
BRANCH   1   6
ATOM      5  C   UNL     1       0.310   1.088  -0.065  0.00  0.00    +0.019 C 
ATOM      6  C   UNL     1       0.083  -0.421  -0.175  0.00  0.00    +0.028 C 
ATOM      7  C   UNL     1       0.595  -0.943  -1.537  0.00  0.00    -0.005 C 
ATOM      8  C   UNL     1       2.009  -1.476  -1.195  0.00  0.00    -0.082 C 
ATOM      9  N   UNL     1       1.829  -2.077   0.151  0.00  0.00    +0.380 N 
ATOM     10  C   UNL     1       0.920  -1.166   0.881  0.00  0.00    -0.067 C 
ATOM     11  H   UNL     1       1.412  -2.992   0.071  0.00  0.00    -0.086 HD
ATOM     12  H   UNL     1       2.716  -2.138   0.627  0.00  0.00    -0.086 HD
ENDBRANCH   1   6
BRANCH   3  13
ATOM     13  C   UNL     1      -1.838   0.339  -2.066  0.00  0.00    +0.050 A 
ATOM     14  C   UNL     1      -1.441  -0.397  -3.175  0.00  0.00    +0.024 A 
ATOM     15  C   UNL     1      -1.009   0.250  -4.315  0.00  0.00    +0.002 A 
ATOM     16  C   UNL     1      -0.968   1.634  -4.365  0.00  0.00    +0.001 A 
ATOM     17  C   UNL     1      -1.358   2.382  -3.276  0.00  0.00    +0.017 A 
ATOM     18  C   UNL     1      -1.803   1.742  -2.115  0.00  0.00    +0.084 A 
BRANCH  18  19
ATOM     19  C   UNL     1      -2.227   2.534  -0.949  0.00  0.00    +0.388 C 
ATOM     20  O   UNL     1      -2.195   3.756  -0.995  0.00  0.00    -0.241 OA
ATOM     21  O   UNL     1      -2.612   1.970   0.066  0.00  0.00    -0.241 OA
ENDBRANCH  18  19
ENDBRANCH   3  13
TORSDOF 3
