REMARK  Name = ZINC50043720
REMARK  1 active torsions:
REMARK  status: ('A' for Active; 'I' for Inactive)
REMARK    1  A    between atoms: C_6  and  C_7
REMARK                            x       y       z     vdW  Elec       q    Type
REMARK                         _______ _______ _______ _____ _____    ______ ____
ROOT
ATOM      1  C   UNL     1       1.235   1.565   1.101  0.00  0.00    +0.035 A 
ATOM      2  C   UNL     1       1.188   2.058  -0.191  0.00  0.00    +0.037 A 
ATOM      3  C   UNL     1       1.155   1.174  -1.257  0.00  0.00    +0.128 A 
ATOM      4  N   UNL     1       1.166  -0.130  -1.064  0.00  0.00    -0.238 NA
ATOM      5  C   UNL     1       1.210  -0.656   0.150  0.00  0.00    +0.135 A 
ATOM      6  C   UNL     1       1.246   0.176   1.284  0.00  0.00    +0.104 A 
ATOM      7  N   UNL     1       1.220  -2.029   0.304  0.00  0.00    -0.316 N 
ATOM      8  C   UNL     1      -0.063  -2.732   0.507  0.00  0.00    +0.104 C 
ATOM      9  C   UNL     1      -0.110  -4.041  -0.302  0.00  0.00    -0.000 C 
ATOM     10  C   UNL     1       0.522  -3.818  -1.658  0.00  0.00    -0.081 C 
ATOM     11  N   UNL     1       1.935  -4.188  -1.598  0.00  0.00    +0.380 N 
ATOM     12  C   UNL     1       2.805  -3.151  -1.192  0.00  0.00    -0.063 C 
ATOM     13  C   UNL     1       2.488  -2.728   0.256  0.00  0.00    +0.087 C 
ATOM     14 BR   UNL     1       1.169   3.923  -0.499  0.00  0.00    -0.049 Br
ATOM     15  H   UNL     1       2.035  -4.958  -0.955  0.00  0.00    -0.086 HD
ATOM     16  H   UNL     1       2.221  -4.503  -2.513  0.00  0.00    -0.086 HD
ENDROOT
BRANCH   6  17
ATOM     17  C   UNL     1       1.295  -0.401   2.635  0.00  0.00    +0.390 C 
ATOM     18  O   UNL     1       1.216   0.327   3.615  0.00  0.00    -0.240 OA
ATOM     19  O   UNL     1       1.415  -1.610   2.780  0.00  0.00    -0.240 OA
ENDBRANCH   6  17
TORSDOF 1
