REMARK  Name = ZINC33502013
REMARK  10 active torsions:
REMARK  status: ('A' for Active; 'I' for Inactive)
REMARK    1  A    between atoms: C_1  and  C_2
REMARK    2  A    between atoms: N_6  and  C_21
REMARK    3  A    between atoms: C_9  and  C_14
REMARK    4  A    between atoms: C_14  and  C_16
REMARK    5  A    between atoms: C_14  and  N_20
REMARK    6  A    between atoms: C_16  and  C_17
REMARK    7  A    between atoms: C_16  and  C_18
REMARK    8  A    between atoms: C_16  and  C_19
REMARK    9  A    between atoms: C_21  and  C_22
REMARK   10  A    between atoms: N_24  and  C_25
REMARK                            x       y       z     vdW  Elec       q    Type
REMARK                         _______ _______ _______ _____ _____    ______ ____
ROOT
ATOM      1  C   UNL     1      -3.839   0.808  -3.008  0.00  0.00    +0.062 C 
ATOM      2  C   UNL     1      -2.404   1.337  -2.977  0.00  0.00    +0.256 C 
ATOM      3  C   UNL     1      -1.708   0.836  -1.737  0.00  0.00    +0.261 C 
ATOM      4  O   UNL     1      -2.036  -0.220  -1.239  0.00  0.00    -0.271 OA
ATOM      5  N   UNL     1      -0.721   1.571  -1.179  0.00  0.00    -0.256 N 
ATOM      6  C   UNL     1      -0.382   2.803  -1.757  0.00  0.00    +0.079 A 
ATOM      7  C   UNL     1       0.809   3.432  -1.434  0.00  0.00    +0.029 A 
ATOM      8  C   UNL     1       1.125   4.646  -2.015  0.00  0.00    -0.059 A 
ATOM      9  C   UNL     1       0.256   5.233  -2.916  0.00  0.00    +0.006 A 
ATOM     10  C   UNL     1      -0.935   4.610  -3.243  0.00  0.00    +0.048 A 
ATOM     11  C   UNL     1      -1.258   3.394  -2.665  0.00  0.00    +0.143 A 
ATOM     12  O   UNL     1      -2.424   2.767  -2.975  0.00  0.00    -0.478 OA
ENDROOT
BRANCH   8  13
ATOM     13  C   UNL     1       2.421   5.332  -1.665  0.00  0.00    -0.039 C 
BRANCH  13  14
ATOM     14  C   UNL     1       3.449   5.073  -2.769  0.00  0.00    -0.047 C 
ATOM     15  C   UNL     1       2.922   5.624  -4.096  0.00  0.00    +0.009 C 
ATOM     16  C   UNL     1       4.764   5.770  -2.414  0.00  0.00    +0.009 C 
ATOM     17  C   UNL     1       3.688   3.568  -2.900  0.00  0.00    +0.009 C 
ENDBRANCH  13  14
BRANCH  13  18
ATOM     18  N   UNL     1       2.191   6.777  -1.539  0.00  0.00    +0.383 N 
ATOM     19  H   UNL     1       3.137   7.278  -1.284  0.00  0.00    -0.089 HD
ATOM     20  H   UNL     1       1.452   6.963  -0.746  0.00  0.00    -0.089 HD
ATOM     21  H   UNL     1       1.812   7.173  -2.493  0.00  0.00    -0.089 HD
ENDBRANCH  13  18
ENDBRANCH   8  13
BRANCH   5  22
ATOM     22  C   UNL     1      -0.013   1.086   0.008  0.00  0.00    +0.209 C 
BRANCH  22  23
ATOM     23  C   UNL     1      -0.718   1.572   1.248  0.00  0.00    +0.231 C 
ATOM     24  O   UNL     1      -1.714   2.256   1.150  0.00  0.00    -0.274 OA
ATOM     25  N   UNL     1      -0.242   1.246   2.466  0.00  0.00    -0.317 N 
ATOM     26  C   UNL     1      -0.927   1.718   3.671  0.00  0.00    +0.128 C 
ATOM     27  H   UNL     1       0.662   0.625   2.555  0.00  0.00    +0.148 HD
ENDBRANCH  22  23
ENDBRANCH   5  22
TORSDOF 5
