REMARK  Name = ZINC63349002
REMARK  5 active torsions:
REMARK  status: ('A' for Active; 'I' for Inactive)
REMARK    1  A    between atoms: C_1  and  C_2
REMARK    2  A    between atoms: C_8  and  C_11
REMARK    3  A    between atoms: C_11  and  C_12
REMARK    4  A    between atoms: C_12  and  N_13
REMARK    5  A    between atoms: C_27  and  C_29
REMARK                            x       y       z     vdW  Elec       q    Type
REMARK                         _______ _______ _______ _____ _____    ______ ____
ROOT
ATOM      1  N   UNL     1      -1.377  -2.600   5.613  0.00  0.00    -0.274 N 
ATOM      2  C   UNL     1      -1.497  -1.299   6.076  0.00  0.00    +0.076 C 
ATOM      3  C   UNL     1      -1.319  -0.984   7.337  0.00  0.00    +0.020 C 
ATOM      4  C   UNL     1      -0.965  -2.000   8.374  0.00  0.00    +0.171 C 
ATOM      5  C   UNL     1      -1.206  -3.399   7.858  0.00  0.00    +0.057 C 
ATOM      6  H   UNL     1      -1.165  -4.790  10.748  0.00  0.00    +0.154 HD
ATOM      7  C   UNL     1      -1.263  -3.635   6.466  0.00  0.00    +0.250 C 
ATOM      8  O   UNL     1      -1.206  -4.773   6.038  0.00  0.00    -0.270 OA
ATOM      9  C   UNL     1      -1.421  -4.417   8.724  0.00  0.00    +0.086 C 
ATOM     10  N   UNL     1      -1.464  -4.150  10.083  0.00  0.00    -0.290 N 
ATOM     11  C   UNL     1      -1.969  -2.898  10.425  0.00  0.00    +0.219 A 
ATOM     12  N   UNL     1      -1.759  -1.845   9.588  0.00  0.00    -0.221 N 
ATOM     13  N   UNL     1      -2.401  -0.759  10.161  0.00  0.00    -0.147 NA
ATOM     14  C   UNL     1      -2.954  -1.193  11.279  0.00  0.00    +0.183 A 
ATOM     15  N   UNL     1      -2.663  -2.479  11.437  0.00  0.00    -0.193 NA
ENDROOT
BRANCH  14  16
ATOM     16  C   UNL     1      -3.744  -0.367  12.226  0.00  0.00    +0.021 A 
ATOM     17  C   UNL     1      -3.958   0.984  11.966  0.00  0.00    +0.011 A 
ATOM     18  C   UNL     1      -4.693   1.747  12.850  0.00  0.00    +0.001 A 
ATOM     19  C   UNL     1      -5.217   1.172  13.993  0.00  0.00    +0.000 A 
ATOM     20  C   UNL     1      -5.008  -0.170  14.257  0.00  0.00    +0.001 A 
ATOM     21  C   UNL     1      -4.279  -0.943  13.377  0.00  0.00    +0.011 A 
ENDBRANCH  14  16
BRANCH   1  22
ATOM     22  C   UNL     1      -1.379  -2.854   4.170  0.00  0.00    +0.118 C 
BRANCH  22  23
ATOM     23  C   UNL     1       0.055  -2.799   3.641  0.00  0.00    +0.052 C 
BRANCH  23  31
ATOM     24  C   UNL     1      -0.018   1.503   0.010  0.00  0.00    +0.044 C 
ATOM     25  C   UNL     1       0.002  -0.004   0.002  0.00  0.00    -0.050 A 
ATOM     26  C   UNL     1       0.005  -0.680  -1.226  0.00  0.00    +0.005 A 
ATOM     27  C   UNL     1       0.023  -2.026  -1.317  0.00  0.00    +0.026 A 
ATOM     28  C   UNL     1       0.039  -2.826  -0.141  0.00  0.00    +0.043 A 
ATOM     29  N   UNL     1       0.057  -4.126   0.030  0.00  0.00    -0.380 N 
ATOM     30  C   UNL     1       0.067  -4.408   1.470  0.00  0.00    +0.144 C 
ATOM     31  C   UNL     1       0.052  -3.060   2.156  0.00  0.00    -0.040 C 
ATOM     32  C   UNL     1       0.036  -2.137   1.168  0.00  0.00    -0.001 A 
ATOM     33  C   UNL     1       0.022  -0.669   1.180  0.00  0.00    +0.013 A 
ATOM     34  H   UNL     1       0.062  -4.790  -0.677  0.00  0.00    +0.160 HD
ENDBRANCH  23  31
ENDBRANCH  22  23
ENDBRANCH   1  22
TORSDOF 4
