REMARK  Name = ZINC61916432
REMARK  3 active torsions:
REMARK  status: ('A' for Active; 'I' for Inactive)
REMARK    1  A    between atoms: C_3  and  N_18
REMARK    2  A    between atoms: C_4  and  S_8
REMARK    3  A    between atoms: S_8  and  N_11
REMARK                            x       y       z     vdW  Elec       q    Type
REMARK                         _______ _______ _______ _____ _____    ______ ____
ROOT
ATOM      1  C   UNL     1       0.009   1.362   0.284  0.00  0.00    +0.003 A 
ATOM      2  C   UNL     1       1.215   2.024   0.407  0.00  0.00    +0.025 A 
ATOM      3  C   UNL     1       2.402   1.363   0.118  0.00  0.00    +0.053 A 
ATOM      4  C   UNL     1       2.372   0.038  -0.295  0.00  0.00    +0.144 A 
ATOM      5  C   UNL     1       1.163  -0.620  -0.417  0.00  0.00    +0.069 A 
ATOM      6  C   UNL     1      -0.018   0.042  -0.128  0.00  0.00    +0.022 A 
ATOM      7 CL   UNL     1       1.125  -2.276  -0.934  0.00  0.00    -0.081 Cl
ENDROOT
BRANCH   4   8
ATOM      8  S   UNL     1       3.875  -0.805  -0.664  0.00  0.00    +0.064 S 
ATOM      9  O   UNL     1       3.534  -1.889  -1.518  0.00  0.00    -0.153 OA
ATOM     10  O   UNL     1       4.818   0.191  -1.038  0.00  0.00    -0.153 OA
BRANCH   8  11
ATOM     11  N   UNL     1       4.424  -1.469   0.750  0.00  0.00    -0.174 NA
ATOM     12  C   UNL     1       5.297  -0.730   1.614  0.00  0.00    +0.112 C 
ATOM     13  C   UNL     1       6.821  -0.907   1.366  0.00  0.00    +0.045 C 
ATOM     14  C   UNL     1       7.109  -2.401   1.060  0.00  0.00    +0.161 C 
ATOM     15  O   UNL     1       6.307  -3.227   1.850  0.00  0.00    -0.378 OA
ATOM     16  C   UNL     1       5.220  -3.696   1.060  0.00  0.00    +0.177 C 
ATOM     17  C   UNL     1       4.012  -2.855   1.154  0.00  0.00    +0.137 C 
ENDBRANCH   8  11
ENDBRANCH   4   8
BRANCH   3  18
ATOM     18  N   UNL     1       3.622   2.031   0.242  0.00  0.00    -0.356 N 
ATOM     19  H   UNL     1       3.643   3.000   0.277  0.00  0.00    +0.142 HD
ATOM     20  H   UNL     1       4.449   1.526   0.293  0.00  0.00    +0.142 HD
ENDBRANCH   3  18
TORSDOF 3
