REMARK  Name = ZINC45824054
REMARK  6 active torsions:
REMARK  status: ('A' for Active; 'I' for Inactive)
REMARK    1  A    between atoms: C_9  and  S_11
REMARK    2  A    between atoms: S_11  and  N_14
REMARK    3  A    between atoms: N_14  and  C_15
REMARK    4  A    between atoms: C_18  and  N_21
REMARK    5  A    between atoms: N_24  and  C_25
REMARK    6  A    between atoms: C_25  and  C_26
REMARK                            x       y       z     vdW  Elec       q    Type
REMARK                         _______ _______ _______ _____ _____    ______ ____
ROOT
ATOM      1  C   UNL     1       5.982  -1.941  -2.779  0.00  0.00    +0.048 A 
ATOM      2  C   UNL     1       5.093  -0.878  -2.877  0.00  0.00    +0.026 A 
ATOM      3  C   UNL     1       5.418   0.225  -3.640  0.00  0.00    +0.025 A 
ATOM      4  C   UNL     1       6.633   0.273  -4.309  0.00  0.00    +0.035 A 
ATOM      5  C   UNL     1       7.522  -0.789  -4.211  0.00  0.00    +0.025 A 
ATOM      6  C   UNL     1       7.200  -1.890  -3.443  0.00  0.00    +0.026 A 
ENDROOT
BRANCH   4   7
ATOM      7  N   UNL     1       6.963   1.394  -5.084  0.00  0.00    -0.269 N 
ATOM      8  C   UNL     1       6.539   2.618  -4.714  0.00  0.00    +0.304 C 
ATOM      9  O   UNL     1       5.953   2.765  -3.659  0.00  0.00    -0.252 OA
ATOM     10  N   UNL     1       6.763   3.680  -5.513  0.00  0.00    -0.292 N 
ATOM     11  H   UNL     1       7.497   1.288  -5.887  0.00  0.00    +0.156 HD
ATOM     12  H   UNL     1       7.230   3.563  -6.355  0.00  0.00    +0.151 HD
BRANCH  10  13
ATOM     13  C   UNL     1       6.301   5.011  -5.111  0.00  0.00    +0.180 C 
BRANCH  13  14
ATOM     14  C   UNL     1       6.675   6.014  -6.171  0.00  0.00    +0.122 A 
ATOM     15  C   UNL     1       5.916   6.364  -7.225  0.00  0.00    +0.046 A 
ATOM     16  C   UNL     1       6.649   7.327  -7.955  0.00  0.00    +0.041 A 
ATOM     17  C   UNL     1       7.812   7.509  -7.304  0.00  0.00    +0.195 A 
ATOM     18  O   UNL     1       7.820   6.715  -6.221  0.00  0.00    -0.466 OA
ENDBRANCH  13  14
ENDBRANCH  10  13
ENDBRANCH   4   7
BRANCH   1  19
ATOM     19  N   UNL     1       5.652  -3.059  -2.005  0.00  0.00    -0.217 N 
ATOM     20  H   UNL     1       5.811  -3.952  -2.351  0.00  0.00    +0.174 HD
BRANCH  19  21
ATOM     21  S   UNL     1       4.993  -2.860  -0.500  0.00  0.00    +0.069 S 
ATOM     22  O   UNL     1       5.808  -1.915   0.179  0.00  0.00    -0.150 OA
ATOM     23  O   UNL     1       4.749  -4.163   0.013  0.00  0.00    -0.150 OA
BRANCH  21  32
ATOM     24  C   UNL     1      -0.561   0.958  -0.859  0.00  0.00    +0.000 A 
ATOM     25  C   UNL     1       0.557   1.766  -0.751  0.00  0.00    +0.001 A 
ATOM     26  C   UNL     1       1.809   1.202  -0.607  0.00  0.00    +0.008 A 
ATOM     27  C   UNL     1       1.942  -0.184  -0.576  0.00  0.00    -0.020 A 
ATOM     28  C   UNL     1       0.808  -0.994  -0.664  0.00  0.00    -0.040 A 
ATOM     29  C   UNL     1      -0.436  -0.419  -0.813  0.00  0.00    +0.004 A 
ATOM     30  C   UNL     1       0.957  -2.490  -0.572  0.00  0.00    +0.042 C 
ATOM     31  C   UNL     1       2.266  -2.924  -1.229  0.00  0.00    +0.061 C 
ATOM     32  C   UNL     1       3.417  -2.102  -0.717  0.00  0.00    +0.087 C 
ATOM     33  C   UNL     1       3.267  -0.819  -0.428  0.00  0.00    +0.032 C 
ENDBRANCH  21  32
ENDBRANCH  19  21
ENDBRANCH   1  19
TORSDOF 6
