REMARK  Name = ZINC01177252
REMARK  8 active torsions:
REMARK  status: ('A' for Active; 'I' for Inactive)
REMARK    1  A    between atoms: C_1  and  C_2
REMARK    2  A    between atoms: C_2  and  C_27
REMARK    3  A    between atoms: C_6  and  C_17
REMARK    4  A    between atoms: C_8  and  C_15
REMARK    5  A    between atoms: C_9  and  N_14
REMARK    6  A    between atoms: N_10  and  N_11
REMARK    7  A    between atoms: N_11  and  C_12
REMARK    8  A    between atoms: N_11  and  C_13
REMARK                            x       y       z     vdW  Elec       q    Type
REMARK                         _______ _______ _______ _____ _____    ______ ____
ROOT
ATOM      1  C   UNL     1      -0.853   2.516  -1.253  0.00  0.00    +0.011 C 
ATOM      2  C   UNL     1      -1.240   1.038  -1.182  0.00  0.00    -0.023 C 
ATOM      3  C   UNL     1      -0.234   0.205  -1.981  0.00  0.00    +0.059 C 
ATOM      4  C   UNL     1       1.142   0.361  -1.383  0.00  0.00    +0.037 C 
ATOM      5  C   UNL     1       1.304   0.585  -0.061  0.00  0.00    +0.026 C 
ATOM      6  C   UNL     1       2.680   0.741   0.535  0.00  0.00    +0.097 C 
ATOM      7  C   UNL     1       3.734   0.204  -0.388  0.00  0.00    +0.078 C 
ATOM      8  C   UNL     1       3.474  -0.006  -1.705  0.00  0.00    +0.117 C 
ATOM      9  N   UNL     1       2.226   0.268  -2.213  0.00  0.00    -0.223 N 
ATOM     10  C   UNL     1       0.196   0.683   0.798  0.00  0.00    +0.162 C 
ATOM     11  O   UNL     1       0.377   0.866   1.986  0.00  0.00    -0.292 OA
ATOM     12  C   UNL     1      -1.209   0.567   0.276  0.00  0.00    +0.086 C 
ATOM     13  C   UNL     1      -2.645   0.845  -1.756  0.00  0.00    +0.011 C 
ENDROOT
BRANCH   6  14
ATOM     14  C   UNL     1       2.946   2.203   0.788  0.00  0.00    -0.035 A 
ATOM     15  C   UNL     1       2.922   3.101  -0.262  0.00  0.00    +0.007 A 
ATOM     16  C   UNL     1       3.165   4.442  -0.030  0.00  0.00    +0.038 A 
ATOM     17  C   UNL     1       3.432   4.885   1.254  0.00  0.00    +0.123 A 
ATOM     18  C   UNL     1       3.456   3.984   2.305  0.00  0.00    +0.038 A 
ATOM     19  C   UNL     1       3.208   2.645   2.072  0.00  0.00    +0.007 A 
ATOM     20  F   UNL     1       3.670   6.195   1.481  0.00  0.00    -0.205 F 
ENDBRANCH   6  14
BRANCH   9  21
ATOM     21  N   UNL     1       2.067   0.446  -3.558  0.00  0.00    -0.227 NA
ATOM     22  C   UNL     1       1.274  -0.643  -4.143  0.00  0.00    +0.128 C 
ATOM     23  C   UNL     1       1.461   1.753  -3.847  0.00  0.00    +0.128 C 
ENDBRANCH   9  21
BRANCH   8  24
ATOM     24  N   UNL     1       4.459  -0.491  -2.530  0.00  0.00    -0.344 N 
ATOM     25  H   UNL     1       5.362  -0.604  -2.193  0.00  0.00    +0.144 HD
ATOM     26  H   UNL     1       4.252  -0.720  -3.450  0.00  0.00    +0.144 HD
ENDBRANCH   8  24
BRANCH   7  27
ATOM     27  C   UNL     1       5.037  -0.093   0.128  0.00  0.00    +0.099 C 
ATOM     28  N   UNL     1       6.070  -0.329   0.537  0.00  0.00    -0.191 NA
ENDBRANCH   7  27
TORSDOF 4
