REMARK  Name = ZINC40941837
REMARK  2 active torsions:
REMARK  status: ('A' for Active; 'I' for Inactive)
REMARK    1  A    between atoms: C_11  and  C_12
REMARK    2  A    between atoms: C_12  and  C_14
REMARK                            x       y       z     vdW  Elec       q    Type
REMARK                         _______ _______ _______ _____ _____    ______ ____
ROOT
ATOM      1  C   UNL     1      -0.017   1.384   0.010  0.00  0.00    +0.021 A 
ATOM      2  C   UNL     1       1.164   2.094   0.002  0.00  0.00    +0.012 A 
ATOM      3  C   UNL     1       2.378   1.414  -0.013  0.00  0.00    +0.010 A 
ATOM      4  C   UNL     1       2.400   0.010  -0.021  0.00  0.00    +0.049 A 
ATOM      5  C   UNL     1       1.198  -0.690  -0.013  0.00  0.00    +0.046 A 
ATOM      6  C   UNL     1       0.002  -0.004   0.002  0.00  0.00    +0.043 A 
ATOM      7 CL   UNL     1      -1.494  -0.884   0.012  0.00  0.00    -0.083 Cl
ATOM      8  N   UNL     1       3.722  -0.387  -0.035  0.00  0.00    -0.360 N 
ATOM      9  H   UNL     1       4.020  -1.310  -0.043  0.00  0.00    +0.165 HD
ATOM     10  C   UNL     1       4.541   0.682  -0.036  0.00  0.00    +0.095 A 
ATOM     11  C   UNL     1       3.792   1.839  -0.024  0.00  0.00    +0.043 A 
ENDROOT
BRANCH  11  12
ATOM     12  C   UNL     1       4.280   3.170  -0.021  0.00  0.00    +0.170 C 
ATOM     13  O   UNL     1       3.502   4.102  -0.009  0.00  0.00    -0.292 OA
BRANCH  12  14
ATOM     14  C   UNL     1       5.765   3.427  -0.033  0.00  0.00    +0.088 C 
ATOM     15  C   UNL     1       6.087   4.776   0.656  0.00  0.00    +0.041 C 
ATOM     16  C   UNL     1       7.191   5.355  -0.265  0.00  0.00    +0.160 C 
ATOM     17  O   UNL     1       6.772   4.953  -1.587  0.00  0.00    -0.379 OA
ATOM     18  C   UNL     1       6.269   3.607  -1.478  0.00  0.00    +0.171 C 
ENDBRANCH  12  14
ENDBRANCH  11  12
TORSDOF 2
