REMARK  Name = ZINC05892107
REMARK  5 active torsions:
REMARK  status: ('A' for Active; 'I' for Inactive)
REMARK    1  A    between atoms: C_4  and  C_7
REMARK    2  A    between atoms: N_9  and  C_10
REMARK    3  A    between atoms: C_10  and  C_20
REMARK    4  A    between atoms: C_11  and  C_12
REMARK    5  A    between atoms: N_22  and  N_23
REMARK                            x       y       z     vdW  Elec       q    Type
REMARK                         _______ _______ _______ _____ _____    ______ ____
ROOT
ATOM      1  C   UNL     1       2.393   5.314  -0.101  0.00  0.00    +0.098 C 
ATOM      2  C   UNL     1       2.419   3.961  -0.054  0.00  0.00    +0.038 C 
ENDROOT
BRANCH   2   3
ATOM      3  C   UNL     1       1.160   3.202  -0.044  0.00  0.00    -0.005 A 
ATOM      4  C   UNL     1       0.022   3.735   0.572  0.00  0.00    +0.011 A 
ATOM      5  C   UNL     1      -1.155   3.017   0.577  0.00  0.00    +0.020 A 
ATOM      6  C   UNL     1      -1.214   1.772  -0.029  0.00  0.00    +0.042 A 
ATOM      7  C   UNL     1      -0.092   1.235  -0.635  0.00  0.00    +0.040 A 
ATOM      8  C   UNL     1       1.094   1.941  -0.650  0.00  0.00    +0.050 A 
ATOM      9 CL   UNL     1       2.499   1.269  -1.416  0.00  0.00    -0.083 Cl
ATOM     10 CL   UNL     1      -2.703   0.879  -0.022  0.00  0.00    -0.083 Cl
ENDBRANCH   2   3
BRANCH   1  13
ATOM     11  C   UNL     1       0.919   6.889   0.901  0.00  0.00    +0.248 C 
ATOM     12  O   UNL     1       1.783   7.163   1.712  0.00  0.00    -0.270 OA
ATOM     13  N   UNL     1       1.170   5.991  -0.072  0.00  0.00    -0.277 N 
ATOM     14  H   UNL     1       0.501   5.814  -0.752  0.00  0.00    +0.155 HD
BRANCH  11  18
ATOM     15  C   UNL     1      -2.885   8.762   1.135  0.00  0.00    +0.000 A 
ATOM     16  C   UNL     1      -1.905   9.076   2.059  0.00  0.00    +0.001 A 
ATOM     17  C   UNL     1      -0.667   8.472   1.989  0.00  0.00    +0.013 A 
ATOM     18  C   UNL     1      -0.405   7.541   0.983  0.00  0.00    +0.037 A 
ATOM     19  C   UNL     1      -1.396   7.233   0.050  0.00  0.00    +0.013 A 
ATOM     20  C   UNL     1      -2.632   7.840   0.135  0.00  0.00    +0.001 A 
ENDBRANCH  11  18
ENDBRANCH   1  13
BRANCH   1  21
ATOM     21  C   UNL     1       3.650   6.070  -0.181  0.00  0.00    +0.272 C 
ATOM     22  O   UNL     1       3.632   7.286  -0.141  0.00  0.00    -0.268 OA
ATOM     23  N   UNL     1       4.823   5.417  -0.300  0.00  0.00    -0.249 N 
ATOM     24  H   UNL     1       4.838   4.448  -0.332  0.00  0.00    +0.169 HD
BRANCH  23  25
ATOM     25  N   UNL     1       5.992   6.120  -0.375  0.00  0.00    -0.254 NA
ATOM     26  H   UNL     1       6.097   6.733   0.420  0.00  0.00    +0.140 HD
ATOM     27  H   UNL     1       6.783   5.500  -0.460  0.00  0.00    +0.140 HD
ENDBRANCH  23  25
ENDBRANCH   1  21
TORSDOF 5
