REMARK  Name = ZINC14021220
REMARK  4 active torsions:
REMARK  status: ('A' for Active; 'I' for Inactive)
REMARK    1  A    between atoms: C_6  and  S_7
REMARK    2  A    between atoms: S_7  and  N_10
REMARK    3  A    between atoms: N_10  and  N_11
REMARK    4  A    between atoms: C_12  and  C_14
REMARK                            x       y       z     vdW  Elec       q    Type
REMARK                         _______ _______ _______ _____ _____    ______ ____
ROOT
ATOM      1  N   UNL     1       5.490  -1.832   2.794  0.00  0.00    -0.228 N 
ATOM      2  C   UNL     1       5.077  -0.664   2.263  0.00  0.00    +0.259 C 
ATOM      3  O   UNL     1       5.818   0.299   2.263  0.00  0.00    -0.269 OA
ATOM      4  H   UNL     1       4.899  -2.601   2.794  0.00  0.00    +0.171 HD
ENDROOT
BRANCH   2   5
ATOM      5  C   UNL     1       3.724  -0.555   1.682  0.00  0.00    +0.042 A 
ATOM      6  C   UNL     1       2.871  -1.662   1.682  0.00  0.00    +0.017 A 
ATOM      7  C   UNL     1       1.609  -1.558   1.138  0.00  0.00    +0.050 A 
ATOM      8  C   UNL     1       1.181  -0.356   0.590  0.00  0.00    +0.166 A 
ATOM      9  C   UNL     1       2.028   0.752   0.588  0.00  0.00    +0.167 A 
ATOM     10  C   UNL     1       3.294   0.654   1.131  0.00  0.00    +0.062 A 
ATOM     11  O   UNL     1       1.376   1.797  -0.001  0.00  0.00    -0.453 OA
ATOM     12  C   UNL     1      -0.017   1.435   0.010  0.00  0.00    +0.466 C 
ATOM     13  O   UNL     1       0.002  -0.004   0.002  0.00  0.00    -0.453 OA
ENDBRANCH   2   5
BRANCH   1  14
ATOM     14  N   UNL     1       6.774  -1.936   3.346  0.00  0.00    -0.108 NA
ATOM     15  H   UNL     1       7.550  -1.701   2.814  0.00  0.00    +0.172 HD
BRANCH  14  16
ATOM     16  S   UNL     1       6.965  -2.459   4.905  0.00  0.00    +0.074 S 
ATOM     17  O   UNL     1       8.363  -2.593   5.120  0.00  0.00    -0.152 OA
ATOM     18  O   UNL     1       6.146  -1.627   5.716  0.00  0.00    -0.152 OA
BRANCH  16  24
ATOM     19  C   UNL     1       4.952  -4.253   5.326  0.00  0.00    +0.029 A 
ATOM     20  C   UNL     1       4.415  -5.525   5.394  0.00  0.00    +0.017 A 
ATOM     21  C   UNL     1       5.214  -6.627   5.144  0.00  0.00    +0.018 A 
ATOM     22  C   UNL     1       6.547  -6.454   4.821  0.00  0.00    +0.017 A 
ATOM     23  C   UNL     1       7.082  -5.182   4.747  0.00  0.00    +0.029 A 
ATOM     24  C   UNL     1       6.283  -4.081   4.998  0.00  0.00    +0.107 A 
ATOM     25 BR   UNL     1       4.482  -8.368   5.243  0.00  0.00    -0.050 Br
ENDBRANCH  16  24
ENDBRANCH  14  16
ENDBRANCH   1  14
TORSDOF 4
