REMARK  Name = ZINC41034497
REMARK  7 active torsions:
REMARK  status: ('A' for Active; 'I' for Inactive)
REMARK    1  A    between atoms: C_1  and  C_2
REMARK    2  A    between atoms: C_7  and  C_9
REMARK    3  A    between atoms: C_7  and  N_12
REMARK    4  A    between atoms: C_13  and  C_15
REMARK    5  A    between atoms: C_15  and  C_16
REMARK    6  A    between atoms: C_16  and  S_17
REMARK    7  A    between atoms: S_17  and  C_20
REMARK                            x       y       z     vdW  Elec       q    Type
REMARK                         _______ _______ _______ _____ _____    ______ ____
ROOT
ATOM      1  C   UNL     1      -0.087   1.524   0.176  0.00  0.00    +0.007 C 
ATOM      2  C   UNL     1      -0.066  -0.006   0.168  0.00  0.00    -0.012 C 
ATOM      3  C   UNL     1       0.442  -0.502  -1.188  0.00  0.00    +0.003 C 
ATOM      4  C   UNL     1       1.857   0.029  -1.427  0.00  0.00    +0.003 C 
ATOM      5  C   UNL     1       2.785  -0.475  -0.319  0.00  0.00    +0.037 C 
ATOM      6  C   UNL     1       2.276   0.021   1.036  0.00  0.00    +0.136 C 
ATOM      7  C   UNL     1       0.861  -0.509   1.275  0.00  0.00    +0.040 C 
ENDROOT
BRANCH   6   8
ATOM      8  N   UNL     1       2.256   1.486   1.044  0.00  0.00    -0.300 N 
ATOM      9  C   UNL     1       1.859   2.148   2.149  0.00  0.00    +0.215 C 
ATOM     10  O   UNL     1       1.517   1.532   3.136  0.00  0.00    -0.276 OA
ATOM     11  H   UNL     1       2.530   1.979   0.255  0.00  0.00    +0.150 HD
BRANCH   9  12
ATOM     12  C   UNL     1       1.838   3.655   2.157  0.00  0.00    +0.118 C 
BRANCH  12  13
ATOM     13  C   UNL     1       1.351   4.151   3.520  0.00  0.00    +0.175 C 
BRANCH  13  14
ATOM     14  S   UNL     1       1.326   5.965   3.530  0.00  0.00    -0.033 S 
ATOM     15  O   UNL     1       2.663   6.433   3.410  0.00  0.00    -0.175 OA
ATOM     16  O   UNL     1       0.353   6.407   2.594  0.00  0.00    -0.175 OA
ATOM     17  C   UNL     1       0.732   6.348   5.200  0.00  0.00    +0.194 C 
ENDBRANCH  13  14
ENDBRANCH  12  13
ENDBRANCH   9  12
ENDBRANCH   6   8
BRANCH   6  18
ATOM     18  C   UNL     1       3.190  -0.475   2.128  0.00  0.00    +0.379 C 
ATOM     19  O   UNL     1       3.770   0.321   2.845  0.00  0.00    -0.244 OA
ATOM     20  O   UNL     1       3.348  -1.673   2.293  0.00  0.00    -0.244 OA
ENDBRANCH   6  18
TORSDOF 5
