REMARK  Name = ZINC12649476
REMARK  1 active torsions:
REMARK  status: ('A' for Active; 'I' for Inactive)
REMARK    1  A    between atoms: C_7  and  C_9
REMARK                            x       y       z     vdW  Elec       q    Type
REMARK                         _______ _______ _______ _____ _____    ______ ____
ROOT
ATOM      1  C   UNL     1       2.835   6.963   0.012  0.00  0.00    +0.088 A 
ATOM      2  C   UNL     1       3.043   8.299   0.017  0.00  0.00    +0.232 A 
ATOM      3  O   UNL     1       1.833   8.876   0.031  0.00  0.00    -0.361 OA
ATOM      4  N   UNL     1       0.945   8.055   0.031  0.00  0.00    -0.063 NA
ATOM      5  C   UNL     1       1.420   6.837   0.025  0.00  0.00    +0.168 A 
ATOM      6  N   UNL     1       0.685   5.652   0.026  0.00  0.00    -0.262 N 
ATOM      7  C   UNL     1       1.322   4.464   0.013  0.00  0.00    +0.271 C 
ATOM      8  O   UNL     1       2.537   4.426   0.002  0.00  0.00    -0.268 OA
ATOM      9  H   UNL     1      -0.284   5.682   0.035  0.00  0.00    +0.157 HD
ENDROOT
BRANCH   7  10
ATOM     10  C   UNL     1       0.544   3.209   0.014  0.00  0.00    +0.160 A 
ATOM     11  C   UNL     1       1.067   1.894   0.002  0.00  0.00    +0.063 A 
ATOM     12  C   UNL     1      -0.013   1.076   0.008  0.00  0.00    +0.120 A 
ATOM     13  N   UNL     1      -1.111   1.862   0.017  0.00  0.00    -0.283 N 
ATOM     14  H   UNL     1      -2.053   1.528   0.016  0.00  0.00    +0.188 HD
ATOM     15  N   UNL     1      -0.770   3.101   0.026  0.00  0.00    -0.168 NA
ATOM     16  I   UNL     1       3.084   1.331  -0.020  0.00  0.00    -0.040 I 
ENDBRANCH   7  10
TORSDOF 1
