REMARK  Name = ZINC50002041
REMARK  6 active torsions:
REMARK  status: ('A' for Active; 'I' for Inactive)
REMARK    1  A    between atoms: C_1  and  C_2
REMARK    2  A    between atoms: C_5  and  N_8
REMARK    3  A    between atoms: N_8  and  C_9
REMARK    4  A    between atoms: N_8  and  S_10
REMARK    5  A    between atoms: S_10  and  C_13
REMARK    6  A    between atoms: C_14  and  N_21
REMARK                            x       y       z     vdW  Elec       q    Type
REMARK                         _______ _______ _______ _____ _____    ______ ____
ROOT
ATOM      1  S   UNL     1      -0.596  -5.324   2.200  0.00  0.00    +0.078 S 
ATOM      2  O   UNL     1      -0.074  -6.619   2.459  0.00  0.00    -0.150 OA
ATOM      3  O   UNL     1      -0.738  -4.342   3.217  0.00  0.00    -0.150 OA
ENDROOT
BRANCH   1   4
ATOM      4  C   UNL     1      -2.196  -5.556   1.498  0.00  0.00    +0.147 A 
ATOM      5  C   UNL     1      -3.100  -4.502   1.462  0.00  0.00    +0.054 A 
ATOM      6  C   UNL     1      -4.359  -4.689   0.908  0.00  0.00    +0.044 A 
ATOM      7  C   UNL     1      -4.710  -5.923   0.393  0.00  0.00    +0.044 A 
ATOM      8  C   UNL     1      -3.808  -6.971   0.430  0.00  0.00    +0.042 A 
ATOM      9  C   UNL     1      -2.550  -6.787   0.977  0.00  0.00    +0.071 A 
ATOM     10 CL   UNL     1      -1.418  -8.102   1.014  0.00  0.00    -0.081 Cl
ATOM     11 CL   UNL     1      -6.284  -6.158  -0.300  0.00  0.00    -0.083 Cl
BRANCH   5  12
ATOM     12  N   UNL     1      -2.743  -3.257   1.984  0.00  0.00    -0.356 N 
ATOM     13  H   UNL     1      -1.812  -3.057   2.170  0.00  0.00    +0.142 HD
ATOM     14  H   UNL     1      -3.426  -2.591   2.160  0.00  0.00    +0.142 HD
ENDBRANCH   5  12
ENDBRANCH   1   4
BRANCH   1  15
ATOM     15  N   UNL     1       0.361  -4.654   1.026  0.00  0.00    -0.206 N 
ATOM     16  C   UNL     1       1.021  -5.513   0.040  0.00  0.00    +0.157 C 
BRANCH  15  21
ATOM     17  C   UNL     1       1.082   0.967   0.822  0.00  0.00    +0.044 C 
ATOM     18  C   UNL     1       0.890  -0.526   0.876  0.00  0.00    -0.050 A 
ATOM     19  C   UNL     1       0.283  -1.183  -0.179  0.00  0.00    +0.005 A 
ATOM     20  C   UNL     1       0.106  -2.552  -0.132  0.00  0.00    +0.025 A 
ATOM     21  C   UNL     1       0.539  -3.269   0.976  0.00  0.00    +0.051 A 
ATOM     22  C   UNL     1       1.148  -2.607   2.034  0.00  0.00    +0.025 A 
ATOM     23  C   UNL     1       1.327  -1.238   1.978  0.00  0.00    +0.005 A 
ENDBRANCH  15  21
ENDBRANCH   1  15
TORSDOF 4
