REMARK  Name = ZINC50093074
REMARK  7 active torsions:
REMARK  status: ('A' for Active; 'I' for Inactive)
REMARK    1  A    between atoms: C_1  and  C_2
REMARK    2  A    between atoms: C_2  and  N_3
REMARK    3  A    between atoms: N_3  and  C_4
REMARK    4  A    between atoms: N_3  and  S_13
REMARK    5  A    between atoms: C_4  and  C_11
REMARK    6  A    between atoms: C_11  and  N_12
REMARK    7  A    between atoms: S_13  and  C_16
REMARK                            x       y       z     vdW  Elec       q    Type
REMARK                         _______ _______ _______ _____ _____    ______ ____
ROOT
ATOM      1  N   UNL     1       0.671  -0.441   1.020  0.00  0.00    -0.172 NA
ENDROOT
BRANCH   1   2
ATOM      2  C   UNL     1      -0.198  -0.788   2.147  0.00  0.00    +0.028 C 
ATOM      3  C   UNL     1      -1.143   0.396   2.433  0.00  0.00    +0.022 C 
ATOM      4  C   UNL     1      -1.611   0.962   1.119  0.00  0.00    +0.002 C 
ATOM      5  C   UNL     1      -2.958   0.367   0.667  0.00  0.00    +0.000 C 
ATOM      6  C   UNL     1      -3.050  -1.153   0.906  0.00  0.00    +0.000 C 
ATOM      7  C   UNL     1      -1.776  -1.870   0.551  0.00  0.00    +0.002 C 
ATOM      8  C   UNL     1      -0.920  -2.010   1.827  0.00  0.00    +0.022 C 
BRANCH   2   9
ATOM      9  C   UNL     1       0.670  -1.036   3.383  0.00  0.00    -0.062 C 
BRANCH   9  10
ATOM     10  N   UNL     1       1.652  -2.088   3.089  0.00  0.00    +0.379 N 
ATOM     11  H   UNL     1       2.134  -2.345   3.938  0.00  0.00    -0.090 HD
ATOM     12  H   UNL     1       1.177  -2.896   2.715  0.00  0.00    -0.090 HD
ATOM     13  H   UNL     1       2.319  -1.747   2.413  0.00  0.00    -0.090 HD
ENDBRANCH   9  10
ENDBRANCH   2   9
ENDBRANCH   1   2
BRANCH   1  14
ATOM     14  S   UNL     1       1.107  -1.602  -0.077  0.00  0.00    +0.064 S 
ATOM     15  O   UNL     1       0.192  -2.677   0.084  0.00  0.00    -0.153 OA
ATOM     16  O   UNL     1       1.290  -0.938  -1.320  0.00  0.00    -0.153 OA
BRANCH  14  17
ATOM     17  C   UNL     1       2.688  -2.210   0.407  0.00  0.00    +0.142 A 
ATOM     18  C   UNL     1       3.881  -1.629   0.139  0.00  0.00    +0.133 A 
ATOM     19  N   UNL     1       4.845  -2.402   0.680  0.00  0.00    -0.283 N 
ATOM     20  H   UNL     1       5.800  -2.232   0.645  0.00  0.00    +0.188 HD
ATOM     21  N   UNL     1       4.225  -3.494   1.302  0.00  0.00    -0.180 NA
ATOM     22  C   UNL     1       2.932  -3.375   1.142  0.00  0.00    +0.162 A 
ENDBRANCH  14  17
ENDBRANCH   1  14
BRANCH   1  24
ATOM     23  C   UNL     1       2.432   1.121   1.683  0.00  0.00    +0.022 C 
ATOM     24  C   UNL     1       1.154   0.933   0.864  0.00  0.00    +0.106 C 
ENDBRANCH   1  24
TORSDOF 6
