REMARK  Name = ZINC39557917
REMARK  5 active torsions:
REMARK  status: ('A' for Active; 'I' for Inactive)
REMARK    1  A    between atoms: C_1  and  C_2
REMARK    2  A    between atoms: C_2  and  C_4
REMARK    3  A    between atoms: C_2  and  N_14
REMARK    4  A    between atoms: N_17  and  C_18
REMARK    5  A    between atoms: C_22  and  C_25
REMARK                            x       y       z     vdW  Elec       q    Type
REMARK                         _______ _______ _______ _____ _____    ______ ____
ROOT
ATOM      1  N   UNL     1       0.711  -0.489   1.189  0.00  0.00    -0.293 N 
ATOM      2  C   UNL     1       2.054  -0.600   1.174  0.00  0.00    +0.302 C 
ATOM      3  O   UNL     1       2.677  -0.297   0.175  0.00  0.00    -0.253 OA
ATOM      4  N   UNL     1       2.706  -1.046   2.266  0.00  0.00    -0.274 N 
ATOM      5  H   UNL     1       0.213  -0.731   1.986  0.00  0.00    +0.151 HD
ATOM      6  H   UNL     1       2.208  -1.288   3.062  0.00  0.00    +0.153 HD
ENDROOT
BRANCH   4   7
ATOM      7  C   UNL     1       4.166  -1.166   2.249  0.00  0.00    +0.218 C 
ATOM      8  N   UNL     1       4.670  -1.904   3.448  0.00  0.00    -0.226 NA
ATOM      9  N   UNL     1       6.051  -1.586   3.747  0.00  0.00    -0.236 NA
ATOM     10  C   UNL     1       6.474  -0.203   3.423  0.00  0.00    +0.166 C 
ATOM     11  S   UNL     1       4.985   0.462   2.559  0.00  0.00    -0.097 S 
ATOM     12  H   UNL     1       4.543  -2.900   3.340  0.00  0.00    +0.143 HD
ATOM     13  H   UNL     1       6.675  -2.262   3.333  0.00  0.00    +0.142 HD
BRANCH  10  14
ATOM     14  C   UNL     1       6.764   0.579   4.678  0.00  0.00    +0.018 A 
ATOM     15  C   UNL     1       7.638   1.598   4.866  0.00  0.00    +0.013 A 
ATOM     16  C   UNL     1       7.738   2.174   6.118  0.00  0.00    +0.008 A 
ATOM     17  C   UNL     1       6.959   1.702   7.122  0.00  0.00    +0.045 A 
ATOM     18  S   UNL     1       6.041   0.410   6.301  0.00  0.00    -0.099 S 
ENDBRANCH  10  14
ENDBRANCH   4   7
BRANCH   1  20
ATOM     19  C   UNL     1      -0.019   1.526   0.010  0.00  0.00    +0.033 C 
ATOM     20  C   UNL     1       0.002  -0.004   0.002  0.00  0.00    +0.102 C 
BRANCH  20  21
ATOM     21  C   UNL     1      -1.412  -0.526   0.013  0.00  0.00    -0.027 C 
ATOM     22  C   UNL     1      -1.888  -1.231  -1.058  0.00  0.00    +0.011 C 
ATOM     23  C   UNL     1      -3.199  -1.720  -0.916  0.00  0.00    -0.018 C 
ATOM     24  C   UNL     1      -4.186  -1.959  -1.794  0.00  0.00    +0.025 C 
ATOM     25  C   UNL     1      -5.396  -2.163  -1.093  0.00  0.00    +0.106 C 
ATOM     26  N   UNL     1      -5.217  -2.189   0.197  0.00  0.00    -0.279 NA
ATOM     27  C   UNL     1      -3.789  -2.055   0.444  0.00  0.00    +0.158 C 
ATOM     28  C   UNL     1      -3.404  -0.955   1.387  0.00  0.00    +0.004 C 
ATOM     29  C   UNL     1      -2.270  -0.283   1.169  0.00  0.00    +0.003 C 
ENDBRANCH  20  21
ENDBRANCH   1  20
TORSDOF 4
