REMARK  Name = ZINC49102143
REMARK  6 active torsions:
REMARK  status: ('A' for Active; 'I' for Inactive)
REMARK    1  A    between atoms: C_1  and  C_2
REMARK    2  A    between atoms: C_3  and  C_21
REMARK    3  A    between atoms: N_7  and  S_8
REMARK    4  A    between atoms: S_8  and  C_11
REMARK    5  A    between atoms: C_12  and  N_19
REMARK    6  A    between atoms: N_19  and  N_20
REMARK                            x       y       z     vdW  Elec       q    Type
REMARK                         _______ _______ _______ _____ _____    ______ ____
ROOT
ATOM      1  C   UNL     1       4.804  -3.724  -0.045  0.00  0.00    +0.229 A 
ATOM      2  C   UNL     1       5.287  -4.368   1.037  0.00  0.00    +0.180 A 
ATOM      3  N   UNL     1       6.060  -5.383   0.614  0.00  0.00    -0.203 NA
ATOM      4  C   UNL     1       6.074  -5.391  -0.689  0.00  0.00    +0.181 A 
ATOM      5  N   UNL     1       5.298  -4.374  -1.179  0.00  0.00    -0.276 N 
ATOM      6  C   UNL     1       5.211  -4.260  -2.549  0.00  0.00    +0.102 A 
ATOM      7  C   UNL     1       5.856  -5.109  -3.347  0.00  0.00    +0.067 A 
ATOM      8  S   UNL     1       6.676  -6.171  -2.169  0.00  0.00    -0.058 S 
ENDROOT
BRANCH   1   9
ATOM      9  S   UNL     1       3.739  -2.321  -0.031  0.00  0.00    +0.120 S 
ATOM     10  O   UNL     1       3.925  -1.656  -1.273  0.00  0.00    -0.145 OA
ATOM     11  O   UNL     1       3.938  -1.671   1.218  0.00  0.00    -0.145 OA
BRANCH   9  18
ATOM     12  C   UNL     1      -0.018   1.503   0.010  0.00  0.00    +0.064 C 
ATOM     13  C   UNL     1       0.002  -0.004   0.002  0.00  0.00    +0.025 A 
ATOM     14  C   UNL     1      -1.144  -0.684   0.004  0.00  0.00    +0.009 A 
ATOM     15  S   UNL     1      -0.577  -2.377  -0.009  0.00  0.00    -0.053 S 
ATOM     16  C   UNL     1       1.179  -2.046  -0.016  0.00  0.00    +0.192 A 
ATOM     17  N   UNL     1       1.194  -0.668  -0.013  0.00  0.00    -0.336 N 
ATOM     18  N   UNL     1       2.183  -2.888  -0.026  0.00  0.00    -0.102 NA
ATOM     19  C   UNL     1      -2.557  -0.159   0.016  0.00  0.00    +0.053 C 
ATOM     20  H   UNL     1       2.033  -0.181  -0.019  0.00  0.00    +0.168 HD
ENDBRANCH   9  18
ENDBRANCH   1   9
BRANCH   2  21
ATOM     21  N   UNL     1       5.027  -4.036   2.376  0.00  0.00    -0.265 N 
ATOM     22  H   UNL     1       4.454  -3.283   2.586  0.00  0.00    +0.168 HD
BRANCH  21  23
ATOM     23  N   UNL     1       5.582  -4.775   3.383  0.00  0.00    -0.255 NA
ATOM     24  H   UNL     1       5.306  -4.419   4.286  0.00  0.00    +0.140 HD
ATOM     25  H   UNL     1       5.342  -5.750   3.290  0.00  0.00    +0.140 HD
ENDBRANCH  21  23
ENDBRANCH   2  21
TORSDOF 4
