REMARK  Name = ZINC52788046
REMARK  6 active torsions:
REMARK  status: ('A' for Active; 'I' for Inactive)
REMARK    1  A    between atoms: C_1  and  O_2
REMARK    2  A    between atoms: O_2  and  C_3
REMARK    3  A    between atoms: C_3  and  C_4
REMARK    4  A    between atoms: C_4  and  CA_5
REMARK    5  A    between atoms: CA_5  and  C_7
REMARK    6  A    between atoms: CA_5  and  N_10
REMARK                            x       y       z     vdW  Elec       q    Type
REMARK                         _______ _______ _______ _____ _____    ______ ____
ROOT
ATOM      1  N   UNL     1       2.728  -2.341  -2.240  0.00  0.00    -0.286 N 
ATOM      2  C   UNL     1       3.434  -2.313  -3.388  0.00  0.00    +0.303 C 
ATOM      3  O   UNL     1       2.890  -2.581  -4.442  0.00  0.00    -0.253 OA
ATOM      4  N   UNL     1       4.741  -1.987  -3.368  0.00  0.00    -0.278 N 
ATOM      5  C   UNL     1       5.439  -1.561  -2.133  0.00  0.00    +0.137 C 
ATOM      6  C   UNL     1       6.252  -0.291  -2.382  0.00  0.00    +0.179 C 
ATOM      7  O   UNL     1       7.002  -0.365  -3.608  0.00  0.00    -0.373 OA
ATOM      8  C   UNL     1       6.152  -0.589  -4.712  0.00  0.00    +0.139 C 
ATOM      9  C   UNL     1       5.581  -2.033  -4.557  0.00  0.00    +0.106 C 
ATOM     10  C   UNL     1       4.898  -2.279  -5.895  0.00  0.00    +0.025 C 
ATOM     11  C   UNL     1       5.708  -1.449  -6.925  0.00  0.00    +0.004 C 
ATOM     12  C   UNL     1       6.773  -0.652  -6.107  0.00  0.00    +0.033 C 
ATOM     13  H   UNL     1       3.162  -2.127  -1.399  0.00  0.00    +0.151 HD
ENDROOT
BRANCH   1  14
ATOM     14  CA  UNL     1       1.307  -2.695  -2.263  0.00  0.00    +0.190 C 
BRANCH  14  15
ATOM     15  C   UNL     1       1.161  -4.194  -2.220  0.00  0.00    +0.376 C 
ATOM     16  O   UNL     1       0.072  -4.707  -2.413  0.00  0.00    -0.244 OA
ATOM     17  OXT UNL     1       2.133  -4.894  -1.992  0.00  0.00    -0.244 OA
ENDBRANCH  14  15
BRANCH  14  18
ATOM     18  C   UNL     1       0.609  -2.080  -1.048  0.00  0.00    +0.062 C 
BRANCH  18  19
ATOM     19  C   UNL     1       0.648  -0.554  -1.155  0.00  0.00    +0.162 C 
BRANCH  19  21
ATOM     20  C   UNL     1      -0.023   1.449  -0.023  0.00  0.00    +0.193 C 
ATOM     21  O   UNL     1      -0.004   0.020  -0.021  0.00  0.00    -0.383 OA
ENDBRANCH  19  21
ENDBRANCH  18  19
ENDBRANCH  14  18
ENDBRANCH   1  14
TORSDOF 5
