REMARK  Name = ZINC09975180
REMARK  10 active torsions:
REMARK  status: ('A' for Active; 'I' for Inactive)
REMARK    1  A    between atoms: C_1  and  N_2
REMARK    2  A    between atoms: N_2  and  C_3
REMARK    3  A    between atoms: N_2  and  C_4
REMARK    4  A    between atoms: C_7  and  C_10
REMARK    5  A    between atoms: N_11  and  N_12
REMARK    6  A    between atoms: N_21  and  C1*_22
REMARK    7  A    between atoms: C2*_24  and  O2*_34
REMARK    8  A    between atoms: C3*_26  and  O3*_33
REMARK    9  A    between atoms: C4*_28  and  C5*_31
REMARK   10  A    between atoms: C5*_31  and  O5*_32
REMARK                            x       y       z     vdW  Elec       q    Type
REMARK                         _______ _______ _______ _____ _____    ______ ____
ROOT
ATOM      1  N   UNL     1      -2.613   3.949  -0.235  0.00  0.00    -0.206 N 
ATOM      2  C   UNL     1      -2.565   5.320  -0.083  0.00  0.00    +0.220 A 
ATOM      3  N   UNL     1      -1.476   6.047  -0.137  0.00  0.00    -0.208 NA
ATOM      4  C   UNL     1      -1.795   7.351   0.054  0.00  0.00    +0.149 A 
ATOM      5  C   UNL     1      -1.061   8.548   0.098  0.00  0.00    +0.147 A 
ATOM      6  N   UNL     1      -1.716   9.685   0.311  0.00  0.00    -0.219 NA
ATOM      7  C   UNL     1      -3.026   9.699   0.478  0.00  0.00    +0.225 A 
ATOM      8  N   UNL     1      -3.753   8.602   0.445  0.00  0.00    -0.216 NA
ATOM      9  C   UNL     1      -3.186   7.418   0.237  0.00  0.00    +0.169 A 
ATOM     10  N   UNL     1      -3.648   6.127   0.141  0.00  0.00    -0.266 N 
ATOM     11  N   UNL     1       0.313   8.544  -0.076  0.00  0.00    -0.341 N 
ATOM     12  H   UNL     1      -3.469   3.494  -0.254  0.00  0.00    +0.177 HD
ATOM     13  H   UNL     1       0.737   7.982   0.635  0.00  0.00    +0.144 HD
ATOM     14  H   UNL     1       0.809   9.377  -0.043  0.00  0.00    +0.144 HD
ENDROOT
BRANCH  10  15
ATOM     15  C1* UNL     1      -5.042   5.693   0.260  0.00  0.00    +0.255 C 
ATOM     16  C2* UNL     1      -5.503   5.805   1.726  0.00  0.00    +0.195 C 
ATOM     17  C3* UNL     1      -6.648   6.846   1.686  0.00  0.00    +0.178 C 
ATOM     18  C4* UNL     1      -6.359   7.596   0.360  0.00  0.00    +0.177 C 
ATOM     19  O4* UNL     1      -5.889   6.553  -0.521  0.00  0.00    -0.346 OA
BRANCH  17  20
ATOM     20  O3* UNL     1      -7.922   6.201   1.639  0.00  0.00    -0.386 OA
ATOM     21  H3* UNL     1      -8.666   6.808   1.523  0.00  0.00    +0.210 HD
ENDBRANCH  17  20
BRANCH  16  22
ATOM     22  O2* UNL     1      -4.434   6.269   2.552  0.00  0.00    -0.385 OA
ATOM     23  H2* UNL     1      -4.668   6.359   3.486  0.00  0.00    +0.210 HD
ENDBRANCH  16  22
BRANCH  18  24
ATOM     24  C5* UNL     1      -7.638   8.231  -0.190  0.00  0.00    +0.190 C 
BRANCH  24  25
ATOM     25  O5* UNL     1      -7.341   8.924  -1.403  0.00  0.00    -0.392 OA
ATOM     26  H5* UNL     1      -8.107   9.352  -1.809  0.00  0.00    +0.210 HD
ENDBRANCH  24  25
ENDBRANCH  18  24
ENDBRANCH  10  15
BRANCH   1  28
ATOM     27  C   UNL     1      -1.472   1.927  -0.505  0.00  0.00    +0.138 C 
ATOM     28  N   UNL     1      -1.426   3.216  -0.362  0.00  0.00    -0.188 NA
BRANCH  27  32
ATOM     29  C   UNL     1       2.126  -0.293  -0.901  0.00  0.00    +0.029 A 
ATOM     30  C   UNL     1       0.900  -0.950  -0.923  0.00  0.00    +0.024 A 
ATOM     31  C   UNL     1      -0.270  -0.233  -0.793  0.00  0.00    +0.011 A 
ATOM     32  C   UNL     1      -0.223   1.156  -0.639  0.00  0.00    -0.005 A 
ATOM     33  C   UNL     1       1.012   1.812  -0.617  0.00  0.00    +0.011 A 
ATOM     34  C   UNL     1       2.176   1.088  -0.748  0.00  0.00    +0.024 A 
BRANCH  29  36
ATOM     35  C   UNL     1       3.265  -2.487  -1.069  0.00  0.00    +0.129 C 
ATOM     36  N   UNL     1       3.308  -1.023  -1.033  0.00  0.00    -0.336 N 
ATOM     37  C   UNL     1       4.592  -0.325  -1.137  0.00  0.00    +0.129 C 
ENDBRANCH  29  36
ENDBRANCH  27  32
ENDBRANCH   1  28
TORSDOF 8
