REMARK  Name = ZINC34871097
REMARK  5 active torsions:
REMARK  status: ('A' for Active; 'I' for Inactive)
REMARK    1  A    between atoms: C_2  and  N_9
REMARK    2  A    between atoms: C_10  and  C_12
REMARK    3  A    between atoms: C_12  and  S_13
REMARK    4  A    between atoms: S_13  and  C_14
REMARK    5  A    between atoms: C_16  and  N_21
REMARK                            x       y       z     vdW  Elec       q    Type
REMARK                         _______ _______ _______ _____ _____    ______ ____
ROOT
ATOM      1  C   UNL     1       2.293   5.675   0.225  0.00  0.00    +0.173 C 
ENDROOT
BRANCH   1   3
ATOM      2  N   UNL     1       1.161   3.486   0.009  0.00  0.00    -0.285 N 
ATOM      3  C   UNL     1       2.317   4.173   0.104  0.00  0.00    +0.227 C 
ATOM      4  O   UNL     1       3.376   3.582   0.091  0.00  0.00    -0.275 OA
ATOM      5  H   UNL     1       0.318   3.962  -0.058  0.00  0.00    +0.155 HD
BRANCH   2   7
ATOM      6  C   UNL     1       2.132   1.401   0.746  0.00  0.00    +0.038 A 
ATOM      7  C   UNL     1       1.177   2.087   0.008  0.00  0.00    +0.035 A 
ATOM      8  C   UNL     1       0.236   1.382  -0.732  0.00  0.00    +0.038 A 
ATOM      9  C   UNL     1       0.254  -0.000  -0.731  0.00  0.00    +0.021 A 
ATOM     10  C   UNL     1       1.207  -0.681   0.006  0.00  0.00    +0.030 A 
ATOM     11  C   UNL     1       2.145   0.019   0.744  0.00  0.00    +0.021 A 
ATOM     12 BR   UNL     1       3.446  -0.915   1.748  0.00  0.00    -0.050 Br
ATOM     13 BR   UNL     1      -1.026  -0.962  -1.738  0.00  0.00    -0.050 Br
ENDBRANCH   2   7
ENDBRANCH   1   3
BRANCH   1  14
ATOM     14  S   UNL     1       3.993   6.300   0.332  0.00  0.00    -0.078 S 
BRANCH  14  15
ATOM     15  C   UNL     1       3.798   8.046   0.468  0.00  0.00    +0.171 A 
ATOM     16  N   UNL     1       2.585   8.561   0.475  0.00  0.00    -0.209 NA
ATOM     17  C   UNL     1       2.395   9.881   0.576  0.00  0.00    +0.124 A 
ATOM     18  C   UNL     1       3.489  10.729   0.676  0.00  0.00    +0.113 A 
ATOM     19  C   UNL     1       4.772  10.174   0.668  0.00  0.00    +0.254 A 
ATOM     20  N   UNL     1       4.903   8.835   0.569  0.00  0.00    -0.302 N 
ATOM     21  O   UNL     1       5.758  10.890   0.754  0.00  0.00    -0.268 OA
ATOM     22  H   UNL     1       5.786   8.434   0.566  0.00  0.00    +0.171 HD
BRANCH  17  23
ATOM     23  N   UNL     1       1.115  10.398   0.581  0.00  0.00    -0.343 N 
ATOM     24  H   UNL     1       0.351   9.803   0.510  0.00  0.00    +0.144 HD
ATOM     25  H   UNL     1       0.979  11.355   0.654  0.00  0.00    +0.144 HD
ENDBRANCH  17  23
ENDBRANCH  14  15
ENDBRANCH   1  14
TORSDOF 5
