REMARK  Name = ZINC51131533
REMARK  3 active torsions:
REMARK  status: ('A' for Active; 'I' for Inactive)
REMARK    1  A    between atoms: C_11  and  C_16
REMARK    2  A    between atoms: C_16  and  N_17
REMARK    3  A    between atoms: C_21  and  C_24
REMARK                            x       y       z     vdW  Elec       q    Type
REMARK                         _______ _______ _______ _____ _____    ______ ____
ROOT
ATOM      1  C   UNL     1       0.077   1.570  -0.224  0.00  0.00    +0.001 A 
ATOM      2  C   UNL     1       1.297   2.236  -0.172  0.00  0.00    +0.001 A 
ATOM      3  C   UNL     1       2.471   1.544  -0.079  0.00  0.00    +0.009 A 
ATOM      4  C   UNL     1       2.472   0.151  -0.006  0.00  0.00    -0.007 A 
ATOM      5  C   UNL     1       1.236  -0.522  -0.205  0.00  0.00    -0.017 A 
ATOM      6  C   UNL     1       0.038   0.209  -0.235  0.00  0.00    +0.008 A 
ATOM      7  C   UNL     1       1.225  -1.913  -0.423  0.00  0.00    +0.012 A 
ATOM      8  C   UNL     1       2.373  -2.631  -0.376  0.00  0.00    +0.047 A 
ATOM      9  C   UNL     1       3.591  -2.036  -0.040  0.00  0.00    +0.140 A 
ATOM     10  C   UNL     1       3.663  -0.658   0.234  0.00  0.00    +0.030 A 
ATOM     11  C   UNL     1       4.859  -0.164   0.799  0.00  0.00    -0.015 A 
ATOM     12  C   UNL     1       5.990  -0.926   0.718  0.00  0.00    +0.097 A 
ATOM     13  C   UNL     1       5.913  -2.223   0.177  0.00  0.00    +0.338 A 
ATOM     14  O   UNL     1       6.926  -2.838  -0.091  0.00  0.00    -0.245 OA
ATOM     15  O   UNL     1       4.710  -2.793  -0.011  0.00  0.00    -0.422 OA
ENDROOT
BRANCH  11  16
ATOM     16  C   UNL     1       4.934   1.134   1.560  0.00  0.00    +0.120 C 
BRANCH  16  17
ATOM     17  N   UNL     1       4.444   0.929   2.929  0.00  0.00    -0.293 NA
ATOM     18  C   UNL     1       5.408   0.153   3.723  0.00  0.00    +0.113 C 
ATOM     19  C   UNL     1       4.832  -0.089   5.121  0.00  0.00    +0.176 C 
ATOM     20  O   UNL     1       4.520   1.169   5.726  0.00  0.00    -0.365 OA
ATOM     21  C   UNL     1       3.583   1.950   4.980  0.00  0.00    +0.217 C 
ATOM     22  C   UNL     1       4.146   2.213   3.580  0.00  0.00    +0.126 C 
BRANCH  21  23
ATOM     23  C   UNL     1       3.349   3.262   5.683  0.00  0.00    +0.241 C 
ATOM     24  O   UNL     1       3.994   3.544   6.671  0.00  0.00    -0.273 OA
ATOM     25  N   UNL     1       2.424   4.123   5.214  0.00  0.00    -0.327 N 
ATOM     26  H   UNL     1       1.909   3.898   4.423  0.00  0.00    +0.145 HD
ATOM     27  H   UNL     1       2.274   4.968   5.667  0.00  0.00    +0.145 HD
ENDBRANCH  21  23
ENDBRANCH  16  17
ENDBRANCH  11  16
TORSDOF 3
