REMARK  Name = ZINC44255308
REMARK  10 active torsions:
REMARK  status: ('A' for Active; 'I' for Inactive)
REMARK    1  A    between atoms: C_1  and  C_2
REMARK    2  A    between atoms: C_5  and  S_8
REMARK    3  A    between atoms: S_8  and  O_11
REMARK    4  A    between atoms: O_11  and  C_12
REMARK    5  A    between atoms: C_15  and  C_20
REMARK    6  A    between atoms: C_17  and  O_18
REMARK    7  A    between atoms: O_18  and  C_19
REMARK    8  A    between atoms: C_20  and  C_22
REMARK    9  A    between atoms: C_20  and  N_26
REMARK   10  A    between atoms: C_22  and  C_23
REMARK                            x       y       z     vdW  Elec       q    Type
REMARK                         _______ _______ _______ _____ _____    ______ ____
ROOT
ATOM      1  C   UNL     1       2.151  -4.816   1.164  0.00  0.00    +0.198 A 
ATOM      2  C   UNL     1       2.793  -3.628   1.472  0.00  0.00    +0.052 A 
ATOM      3  C   UNL     1       3.431  -3.482   2.689  0.00  0.00    +0.006 A 
ATOM      4  C   UNL     1       3.430  -4.520   3.603  0.00  0.00    -0.058 A 
ATOM      5  C   UNL     1       2.791  -5.708   3.302  0.00  0.00    +0.051 A 
ATOM      6  C   UNL     1       2.145  -5.859   2.085  0.00  0.00    +0.165 A 
ENDROOT
BRANCH   6   7
ATOM      7  O   UNL     1       1.511  -7.026   1.790  0.00  0.00    -0.491 OA
ATOM      8  C   UNL     1       1.546  -8.052   2.784  0.00  0.00    +0.277 C 
ENDBRANCH   6   7
BRANCH   1   9
ATOM      9  O   UNL     1       1.522  -4.962  -0.033  0.00  0.00    -0.339 OA
BRANCH   9  10
ATOM     10  S   UNL     1       0.063  -4.530  -0.023  0.00  0.00    +0.151 S 
ATOM     11  O   UNL     1      -0.476  -4.950   1.223  0.00  0.00    -0.131 OA
ATOM     12  O   UNL     1      -0.490  -4.937  -1.267  0.00  0.00    -0.131 OA
BRANCH  10  17
ATOM     13  C   UNL     1      -0.018   1.503   0.010  0.00  0.00    +0.044 C 
ATOM     14  C   UNL     1       0.002  -0.004   0.002  0.00  0.00    -0.050 A 
ATOM     15  C   UNL     1       0.006  -0.689  -1.199  0.00  0.00    +0.005 A 
ATOM     16  C   UNL     1       0.025  -2.071  -1.206  0.00  0.00    +0.031 A 
ATOM     17  C   UNL     1       0.040  -2.768  -0.013  0.00  0.00    +0.128 A 
ATOM     18  C   UNL     1       0.037  -2.084   1.188  0.00  0.00    +0.031 A 
ATOM     19  C   UNL     1       0.023  -0.702   1.195  0.00  0.00    +0.005 A 
ENDBRANCH  10  17
ENDBRANCH   9  10
ENDBRANCH   1   9
BRANCH   4  20
ATOM     20  C   UNL     1       4.127  -4.355   4.928  0.00  0.00    -0.035 C 
BRANCH  20  21
ATOM     21  N   UNL     1       5.389  -3.630   4.731  0.00  0.00    +0.383 N 
ATOM     22  H   UNL     1       5.982  -4.151   4.102  0.00  0.00    -0.089 HD
ATOM     23  H   UNL     1       5.197  -2.721   4.337  0.00  0.00    -0.089 HD
ATOM     24  H   UNL     1       5.856  -3.520   5.619  0.00  0.00    -0.089 HD
ENDBRANCH  20  21
BRANCH  20  25
ATOM     25  C   UNL     1       3.229  -3.565   5.882  0.00  0.00    +0.084 C 
BRANCH  25  26
ATOM     26  C   UNL     1       3.872  -3.506   7.244  0.00  0.00    +0.209 C 
ATOM     27  O   UNL     1       4.942  -4.043   7.433  0.00  0.00    -0.276 OA
ATOM     28  N   UNL     1       3.256  -2.857   8.252  0.00  0.00    -0.329 N 
ATOM     29  H   UNL     1       2.400  -2.427   8.101  0.00  0.00    +0.145 HD
ATOM     30  H   UNL     1       3.670  -2.818   9.129  0.00  0.00    +0.145 HD
ENDBRANCH  25  26
ENDBRANCH  20  25
ENDBRANCH   4  20
TORSDOF 8
