REMARK  Name = ZINC44926355
REMARK  4 active torsions:
REMARK  status: ('A' for Active; 'I' for Inactive)
REMARK    1  A    between atoms: C_1  and  C_2
REMARK    2  A    between atoms: C_2  and  C_4
REMARK    3  A    between atoms: C_2  and  N_9
REMARK    4  A    between atoms: N_9  and  C_10
REMARK                            x       y       z     vdW  Elec       q    Type
REMARK                         _______ _______ _______ _____ _____    ______ ____
ROOT
ATOM      1  C   UNL     1       2.255  -0.197   1.121  0.00  0.00    -0.033 C 
ATOM      2  C   UNL     1       3.006  -0.810   2.305  0.00  0.00    +0.030 C 
ATOM      3  C   UNL     1       4.510  -0.745   2.008  0.00  0.00    +0.228 C 
ATOM      4  O   UNL     1       4.781  -1.576   0.878  0.00  0.00    -0.492 OA
ATOM      5  C   UNL     1       4.001  -1.425  -0.224  0.00  0.00    +0.122 A 
ATOM      6  C   UNL     1       2.779  -0.777  -0.168  0.00  0.00    -0.019 A 
ATOM      7  C   UNL     1       2.014  -0.651  -1.315  0.00  0.00    +0.020 A 
ATOM      8  C   UNL     1       2.466  -1.167  -2.515  0.00  0.00    +0.018 A 
ATOM      9  C   UNL     1       3.688  -1.813  -2.573  0.00  0.00    +0.019 A 
ATOM     10  C   UNL     1       4.453  -1.941  -1.433  0.00  0.00    +0.047 A 
ATOM     11 BR   UNL     1       1.415  -0.991  -4.077  0.00  0.00    -0.050 Br
ENDROOT
BRANCH   1  12
ATOM     12  N   UNL     1       0.822  -0.495   1.244  0.00  0.00    +0.390 N 
ATOM     13  H   UNL     1       0.345  -0.209   0.402  0.00  0.00    -0.084 HD
ATOM     14  H   UNL     1       0.440   0.005   2.033  0.00  0.00    -0.084 HD
BRANCH  12  16
ATOM     15  C   UNL     1       1.043  -2.686   0.172  0.00  0.00    -0.006 C 
ATOM     16  C   UNL     1       0.638  -1.939   1.444  0.00  0.00    -0.001 C 
BRANCH  16  17
ATOM     17  C   UNL     1      -0.809  -2.223   1.754  0.00  0.00    +0.163 A 
ATOM     18  N   UNL     1      -1.272  -3.022   2.705  0.00  0.00    -0.113 NA
ATOM     19  N   UNL     1      -2.560  -2.994   2.645  0.00  0.00    -0.021 NA
ATOM     20  N   UNL     1      -2.918  -2.207   1.691  0.00  0.00    -0.021 NA
ATOM     21  N   UNL     1      -1.865  -1.717   1.132  0.00  0.00    -0.113 NA
ENDBRANCH  16  17
ENDBRANCH  12  16
ENDBRANCH   1  12
TORSDOF 3
