REMARK  Name = ZINC33463699
REMARK  11 active torsions:
REMARK  status: ('A' for Active; 'I' for Inactive)
REMARK    1  A    between atoms: CD1_1  and  CG1_2
REMARK    2  A    between atoms: CG1_2  and  CB_3
REMARK    3  A    between atoms: CB_3  and  CG2_5
REMARK    4  A    between atoms: CB_3  and  CA_6
REMARK    5  A    between atoms: CA_6  and  C_8
REMARK    6  A    between atoms: CA_6  and  N_11
REMARK    7  A    between atoms: C_12  and  C_14
REMARK    8  A    between atoms: C_14  and  C_15
REMARK    9  A    between atoms: C_14  and  C_16
REMARK   10  A    between atoms: C_14  and  N_17
REMARK   11  A    between atoms: C_20  and  C_23
REMARK                            x       y       z     vdW  Elec       q    Type
REMARK                         _______ _______ _______ _____ _____    ______ ____
ROOT
ATOM      1  C   UNK A   0      -6.675   1.914   3.825  0.00  0.00    +0.007 C 
ATOM      2  C   UNK A   0      -7.003   1.181   5.127  0.00  0.00    -0.000 C 
ATOM      3  C   UNK A   0      -7.352   3.286   3.828  0.00  0.00    -0.000 C 
ENDROOT
BRANCH   1   4
ATOM      4  N   UNK A   0      -7.164   1.129   2.684  0.00  0.00    +0.389 N 
ATOM      5  C   UNK A   0      -8.603   0.862   2.807  0.00  0.00    -0.077 C 
ATOM      6  C   UNK A   0      -9.047  -0.076   1.682  0.00  0.00    -0.006 C 
ATOM      7  C   UNK A   0      -8.743   0.575   0.330  0.00  0.00    +0.071 C 
ATOM      8  C   UNK A   0      -7.246   0.886   0.248  0.00  0.00    -0.006 C 
ATOM      9  C   UNK A   0      -6.854   1.797   1.414  0.00  0.00    -0.077 C 
ATOM     10  H   UNK A   0      -6.642   0.161   2.689  0.00  0.00    -0.080 HD
BRANCH   7  11
ATOM     11  C   UNK A   0      -9.122  -0.370  -0.781  0.00  0.00    +0.213 C 
ATOM     12  O   UNK A   0      -8.280  -0.756  -1.562  0.00  0.00    -0.276 OA
ATOM     13  N   UNK A   0     -10.399  -0.784  -0.906  0.00  0.00    -0.329 N 
ATOM     14  H   UNK A   0     -10.676  -1.474  -1.717  0.00  0.00    +0.145 HD
ATOM     15  H   UNK A   0     -11.163  -0.434  -0.197  0.00  0.00    +0.145 HD
ENDBRANCH   7  11
ENDBRANCH   1   4
BRANCH   1  17
ATOM     16  N   ILE A   1      -4.419   1.085   3.239  0.00  0.00    -0.303 N 
ATOM     17  C   UNK A   0      -5.183   2.091   3.711  0.00  0.00    +0.203 C 
ATOM     18  O   UNK A   0      -4.669   3.138   4.043  0.00  0.00    -0.277 OA
ATOM     19  H   ILE A   1      -4.874   0.110   3.011  0.00  0.00    +0.149 HD
BRANCH  16  20
ATOM     20  CA  ILE A   1      -2.984   1.291   3.030  0.00  0.00    +0.189 C 
BRANCH  20  21
ATOM     21  C   ILE A   1      -2.249   1.049   4.324  0.00  0.00    +0.376 C 
ATOM     22  O   ILE A   1      -2.796   0.467   5.230  0.00  0.00    -0.244 OA
ATOM     23  OXT ILE A   1      -0.986   1.481   4.468  0.00  0.00    -0.244 OA
ENDBRANCH  20  21
BRANCH  20  24
ATOM     24  CB  ILE A   1      -2.478   0.315   1.966  0.00  0.00    +0.017 C 
ATOM     25  CG2 ILE A   1      -2.753  -1.121   2.419  0.00  0.00    +0.010 C 
BRANCH  24  27
ATOM     26  CD1 ILE A   1      -2.633  -0.334  -0.442  0.00  0.00    +0.004 C 
ATOM     27  CG1 ILE A   1      -3.202   0.581   0.645  0.00  0.00    +0.002 C 
ENDBRANCH  24  27
ENDBRANCH  20  24
ENDBRANCH  16  20
ENDBRANCH   1  17
TORSDOF 7
