REMARK  Name = ZINC20209518
REMARK  5 active torsions:
REMARK  status: ('A' for Active; 'I' for Inactive)
REMARK    1  A    between atoms: C_1  and  C_2
REMARK    2  A    between atoms: C_7  and  N_8
REMARK    3  A    between atoms: N_11  and  C_12
REMARK    4  A    between atoms: C_12  and  C_13
REMARK    5  A    between atoms: C_12  and  C_14
REMARK                            x       y       z     vdW  Elec       q    Type
REMARK                         _______ _______ _______ _____ _____    ______ ____
ROOT
ATOM      1  N   UNL     1      -1.191   1.870   0.018  0.00  0.00    -0.269 N 
ATOM      2  C   UNL     1      -0.014   1.212   0.005  0.00  0.00    +0.304 C 
ATOM      3  O   UNL     1       0.003  -0.004   0.006  0.00  0.00    -0.253 OA
ATOM      4  N   UNL     1       1.143   1.902  -0.015  0.00  0.00    -0.297 N 
ATOM      5  H   UNL     1      -1.207   2.966   0.110  0.00  0.00    +0.156 HD
ATOM      6  H   UNL     1       1.128   3.002  -0.016  0.00  0.00    +0.151 HD
ENDROOT
BRANCH   1  13
ATOM      7  C   UNL     1      -3.546   3.043   1.099  0.00  0.00    +0.046 C 
ATOM      8  C   UNL     1      -3.564   1.694   0.428  0.00  0.00    -0.028 A 
ATOM      9  C   UNL     1      -4.749   0.992   0.320  0.00  0.00    +0.020 A 
ATOM     10  C   UNL     1      -4.766  -0.249  -0.291  0.00  0.00    +0.018 A 
ATOM     11  C   UNL     1      -3.597  -0.788  -0.800  0.00  0.00    +0.017 A 
ATOM     12  C   UNL     1      -2.411  -0.088  -0.699  0.00  0.00    +0.025 A 
ATOM     13  C   UNL     1      -2.392   1.158  -0.086  0.00  0.00    +0.038 A 
ATOM     14 BR   UNL     1      -6.388  -1.210  -0.432  0.00  0.00    -0.050 Br
ENDBRANCH   1  13
BRANCH   4  15
ATOM     15  C   UNL     1       2.422   1.187  -0.035  0.00  0.00    +0.068 C 
ATOM     16  C   UNL     1       2.782   0.827  -1.478  0.00  0.00    +0.027 C 
ATOM     17  C   UNL     1       3.515   2.080   0.555  0.00  0.00    +0.027 C 
ENDBRANCH   4  15
TORSDOF 2
