REMARK  Name = ZINC24906453
REMARK  3 active torsions:
REMARK  status: ('A' for Active; 'I' for Inactive)
REMARK    1  A    between atoms: C_3  and  C_29
REMARK    2  A    between atoms: N_11  and  C_12
REMARK    3  A    between atoms: C_15  and  N_18
REMARK                            x       y       z     vdW  Elec       q    Type
REMARK                         _______ _______ _______ _____ _____    ______ ____
ROOT
ATOM      1  C   UNL     1       3.863  -0.828  -0.039  0.00  0.00    +0.072 C 
ATOM      2  C   UNL     1       4.364  -0.929  -1.481  0.00  0.00    +0.024 C 
ATOM      3  C   UNL     1       3.381  -1.764  -2.305  0.00  0.00    +0.024 C 
ATOM      4  C   UNL     1       3.274  -3.166  -1.702  0.00  0.00    +0.072 C 
ATOM      5  C   UNL     1       2.773  -3.065  -0.260  0.00  0.00    +0.024 C 
ATOM      6  C   UNL     1       3.756  -2.230   0.563  0.00  0.00    +0.024 C 
ENDROOT
BRANCH   1  17
ATOM      7  C   UNL     1      -0.013   1.076   0.008  0.00  0.00    +0.015 A 
ATOM      8  C   UNL     1      -1.196   1.764   0.017  0.00  0.00    +0.033 A 
ATOM      9  C   UNL     1      -1.190   3.155   0.030  0.00  0.00    +0.144 A 
ATOM     10  N   UNL     1      -0.071   3.842   0.024  0.00  0.00    -0.243 NA
ATOM     11  C   UNL     1       1.113   3.230   0.009  0.00  0.00    +0.076 A 
ATOM     12  C   UNL     1       1.179   1.814   0.001  0.00  0.00    +0.040 A 
ATOM     13  C   UNL     1       2.448   1.193  -0.015  0.00  0.00    +0.128 A 
ATOM     14  N   UNL     1       3.539   1.935  -0.021  0.00  0.00    -0.240 NA
ATOM     15  C   UNL     1       3.499   3.261  -0.013  0.00  0.00    +0.115 A 
ATOM     16  C   UNL     1       2.325   3.949   0.002  0.00  0.00    +0.048 A 
ATOM     17  N   UNL     1       2.546  -0.187  -0.024  0.00  0.00    -0.326 N 
ATOM     18  H   UNL     1       1.635  -0.803  -0.019  0.00  0.00    +0.148 HD
BRANCH   9  19
ATOM     19  C   UNL     1      -2.504   3.894   0.047  0.00  0.00    +0.434 C 
ATOM     20  F   UNL     1      -2.268   5.268  -0.063  0.00  0.00    -0.164 F 
ATOM     21  F   UNL     1      -3.292   3.469  -1.028  0.00  0.00    -0.164 F 
ATOM     22  F   UNL     1      -3.172   3.630   1.247  0.00  0.00    -0.164 F 
ENDBRANCH   9  19
ENDBRANCH   1  17
BRANCH   4  23
ATOM     23  N   UNL     1       2.333  -3.966  -2.491  0.00  0.00    -0.324 N 
ATOM     24  C   UNL     1       2.769  -4.630  -3.624  0.00  0.00    +0.150 A 
ATOM     25  C   UNL     1       1.880  -5.401  -4.392  0.00  0.00    +0.147 A 
ATOM     26  C   UNL     1       2.382  -6.053  -5.531  0.00  0.00    +0.163 A 
ATOM     27  N   UNL     1       1.319  -6.722  -6.083  0.00  0.00    -0.329 N 
ATOM     28  H   UNL     1       1.458  -7.316  -6.998  0.00  0.00    +0.168 HD
ATOM     29  C   UNL     1       0.230  -6.476  -5.301  0.00  0.00    +0.198 A 
ATOM     30  N   UNL     1       0.562  -5.701  -4.309  0.00  0.00    -0.231 NA
ATOM     31  N   UNL     1       3.668  -5.918  -5.839  0.00  0.00    -0.216 NA
ATOM     32  C   UNL     1       4.464  -5.185  -5.090  0.00  0.00    +0.225 A 
ATOM     33  N   UNL     1       4.037  -4.549  -4.013  0.00  0.00    -0.219 NA
ATOM     34  H   UNL     1       1.279  -4.038  -2.182  0.00  0.00    +0.148 HD
ENDBRANCH   4  23
TORSDOF 3
