REMARK  Name = ZINC12088303
REMARK  9 active torsions:
REMARK  status: ('A' for Active; 'I' for Inactive)
REMARK    1  A    between atoms: C_1  and  C_2
REMARK    2  A    between atoms: C_2  and  C_3
REMARK    3  A    between atoms: C_2  and  C_4
REMARK    4  A    between atoms: C_2  and  C_5
REMARK    5  A    between atoms: C_12  and  C_17
REMARK    6  A    between atoms: C_17  and  N_18
REMARK    7  A    between atoms: N_18  and  C_19
REMARK    8  A    between atoms: C_22  and  N_25
REMARK    9  A    between atoms: C_29  and  O_32
REMARK                            x       y       z     vdW  Elec       q    Type
REMARK                         _______ _______ _______ _____ _____    ______ ____
ROOT
ATOM      1  C   UNL     1       2.511   1.162  -0.016  0.00  0.00    +0.142 C 
ENDROOT
BRANCH   1   9
ATOM      2  C   UNL     1      -1.337   6.007   0.046  0.00  0.00    -0.041 A 
ATOM      3  C   UNL     1      -2.514   5.271   0.054  0.00  0.00    +0.006 A 
ATOM      4  C   UNL     1      -2.482   3.893   0.047  0.00  0.00    +0.026 A 
ATOM      5  C   UNL     1      -1.259   3.231   0.031  0.00  0.00    +0.049 A 
ATOM      6  C   UNL     1      -0.068   3.981   0.024  0.00  0.00    -0.001 A 
ATOM      7  C   UNL     1      -0.124   5.379   0.032  0.00  0.00    +0.014 A 
ATOM      8  C   UNL     1       1.215   3.275   0.008  0.00  0.00    +0.020 A 
ATOM      9  C   UNL     1       1.208   1.919   0.001  0.00  0.00    +0.034 A 
ATOM     10  C   UNL     1      -0.015   1.215   0.009  0.00  0.00    +0.254 A 
ATOM     11  O   UNL     1       0.002  -0.004   0.002  0.00  0.00    -0.268 OA
ATOM     12  N   UNL     1      -1.197   1.854   0.018  0.00  0.00    -0.322 N 
ATOM     13  H   UNL     1      -2.019   1.339   0.019  0.00  0.00    +0.169 HD
BRANCH   2  15
ATOM     14  C   UNL     1      -0.710   8.058  -1.199  0.00  0.00    +0.015 C 
ATOM     15  C   UNL     1      -1.398   7.513   0.054  0.00  0.00    -0.013 C 
ATOM     16  C   UNL     1      -2.860   7.964   0.070  0.00  0.00    +0.015 C 
ATOM     17  C   UNL     1      -0.686   8.045   1.299  0.00  0.00    +0.015 C 
ENDBRANCH   2  15
ENDBRANCH   1   9
BRANCH   1  18
ATOM     18  N   UNL     1       2.886   0.805   1.354  0.00  0.00    -0.340 N 
ATOM     19  H   UNL     1       2.316   1.062   2.096  0.00  0.00    +0.146 HD
BRANCH  18  20
ATOM     20  C   UNL     1       4.067   0.092   1.594  0.00  0.00    +0.027 A 
ATOM     21  C   UNL     1       4.881  -0.281   0.532  0.00  0.00    +0.025 A 
ATOM     22  C   UNL     1       6.048  -0.980   0.768  0.00  0.00    +0.025 A 
ATOM     23  C   UNL     1       6.404  -1.318   2.067  0.00  0.00    +0.030 A 
ATOM     24  C   UNL     1       5.588  -0.949   3.128  0.00  0.00    +0.025 A 
ATOM     25  C   UNL     1       4.423  -0.246   2.893  0.00  0.00    +0.025 A 
BRANCH  23  26
ATOM     26  N   UNL     1       7.585  -2.030   2.306  0.00  0.00    -0.327 N 
ATOM     27  C   UNL     1       7.312  -3.267   3.049  0.00  0.00    +0.105 C 
ATOM     28  C   UNL     1       8.598  -4.088   3.165  0.00  0.00    +0.021 C 
ATOM     29  C   UNL     1       9.663  -3.260   3.890  0.00  0.00    +0.034 C 
ATOM     30  C   UNL     1       9.893  -1.955   3.122  0.00  0.00    +0.132 C 
ATOM     31  C   UNL     1       8.570  -1.196   3.007  0.00  0.00    +0.136 C 
BRANCH  30  32
ATOM     32  O   UNL     1      10.846  -1.152   3.822  0.00  0.00    -0.390 OA
ATOM     33  H   UNL     1      11.709  -1.573   3.934  0.00  0.00    +0.210 HD
ENDBRANCH  30  32
ENDBRANCH  23  26
ENDBRANCH  18  20
ENDBRANCH   1  18
TORSDOF 6
