REMARK  Name = ZINC20028346
REMARK  7 active torsions:
REMARK  status: ('A' for Active; 'I' for Inactive)
REMARK    1  A    between atoms: C_1  and  O_2
REMARK    2  A    between atoms: O_2  and  C_3
REMARK    3  A    between atoms: C_8  and  O_9
REMARK    4  A    between atoms: O_9  and  C_10
REMARK    5  A    between atoms: N_20  and  C_21
REMARK    6  A    between atoms: C_21  and  C_22
REMARK    7  A    between atoms: C_22  and  N_23
REMARK                            x       y       z     vdW  Elec       q    Type
REMARK                         _______ _______ _______ _____ _____    ______ ____
ROOT
ATOM      1  C   UNL     1       1.099  -4.915  -0.142  0.00  0.00    +0.162 A 
ATOM      2  C   UNL     1      -0.006  -4.173  -0.542  0.00  0.00    +0.053 A 
ATOM      3  C   UNL     1       0.043  -2.801  -0.506  0.00  0.00    -0.033 A 
ATOM      4  C   UNL     1       1.203  -2.148  -0.062  0.00  0.00    +0.006 A 
ATOM      5  C   UNL     1       2.310  -2.891   0.337  0.00  0.00    +0.059 A 
ATOM      6  C   UNL     1       2.256  -4.273   0.296  0.00  0.00    +0.162 A 
ATOM      7  C   UNL     1       1.204  -0.674  -0.029  0.00  0.00    +0.057 A 
ATOM      8  C   UNL     1       2.368   0.037  -0.034  0.00  0.00    +0.070 A 
ATOM      9  C   UNL     1       2.299   1.441  -0.016  0.00  0.00    +0.126 A 
ATOM     10  N   UNL     1       1.115   2.043   0.002  0.00  0.00    -0.178 NA
ATOM     11  C   UNL     1      -0.016   1.340   0.009  0.00  0.00    +0.351 A 
ATOM     12  O   UNL     1      -1.086   1.925   0.018  0.00  0.00    -0.244 OA
ATOM     13  N   UNL     1       0.002  -0.004   0.002  0.00  0.00    -0.292 N 
ATOM     14  C   UNL     1      -1.249  -0.770   0.035  0.00  0.00    +0.131 C 
ATOM     15  C   UNL     1      -1.132  -1.956  -0.935  0.00  0.00    +0.057 C 
ATOM     16  N   UNL     1       3.455   2.190  -0.018  0.00  0.00    -0.328 N 
ATOM     17  H   UNL     1       4.434   1.690  -0.034  0.00  0.00    +0.147 HD
ENDROOT
BRANCH   1  19
ATOM     18  C   UNL     1      -0.165  -6.867  -0.637  0.00  0.00    +0.277 C 
ATOM     19  O   UNL     1       1.051  -6.272  -0.178  0.00  0.00    -0.491 OA
ENDBRANCH   1  19
BRANCH   6  20
ATOM     20  O   UNL     1       3.333  -5.006   0.685  0.00  0.00    -0.491 OA
ATOM     21  C   UNL     1       4.486  -4.284   1.123  0.00  0.00    +0.277 C 
ENDBRANCH   6  20
BRANCH  16  22
ATOM     22  C   UNL     1       3.380   3.653  -0.000  0.00  0.00    +0.118 C 
BRANCH  22  23
ATOM     23  C   UNL     1       4.794   4.237  -0.007  0.00  0.00    +0.103 C 
BRANCH  23  24
ATOM     24  N   UNL     1       4.718   5.704   0.011  0.00  0.00    -0.304 NA
ATOM     25  C   UNL     1       3.753   6.169   1.016  0.00  0.00    +0.065 C 
ATOM     26  C   UNL     1       3.645   7.694   0.949  0.00  0.00    -0.067 C 
ATOM     27  N   UNL     1       4.970   8.287   1.181  0.00  0.00    +0.381 N 
ATOM     28  C   UNL     1       5.935   7.822   0.176  0.00  0.00    -0.067 C 
ATOM     29  C   UNL     1       6.043   6.296   0.243  0.00  0.00    +0.065 C 
ATOM     30  H   UNL     1       4.897   9.383   1.121  0.00  0.00    -0.086 HD
ATOM     31  H   UNL     1       5.331   7.998   2.179  0.00  0.00    -0.086 HD
ENDBRANCH  23  24
ENDBRANCH  22  23
ENDBRANCH  16  22
TORSDOF 5
