REMARK  Name = ZINC39695817
REMARK  11 active torsions:
REMARK  status: ('A' for Active; 'I' for Inactive)
REMARK    1  A    between atoms: C_1  and  C_2
REMARK    2  A    between atoms: C_9  and  C_11
REMARK    3  A    between atoms: C_11  and  C_13
REMARK    4  A    between atoms: C_11  and  N_14
REMARK    5  A    between atoms: C_15  and  C_17
REMARK    6  A    between atoms: C_28  and  C_30
REMARK    7  A    between atoms: C_32  and  C_39
REMARK    8  A    between atoms: N_34  and  C_35
REMARK    9  A    between atoms: C_35  and  C_36
REMARK   10  A    between atoms: C_35  and  C_37
REMARK   11  A    between atoms: C_35  and  C_38
REMARK                            x       y       z     vdW  Elec       q    Type
REMARK                         _______ _______ _______ _____ _____    ______ ____
ROOT
ATOM      1  C   UNL     1      -1.501  -9.137   0.849  0.00  0.00    +0.100 C 
ATOM      2  C   UNL     1      -2.514  -8.331   0.006  0.00  0.00    +0.121 C 
ATOM      3  N   UNL     1      -3.694  -9.220  -0.113  0.00  0.00    -0.295 N 
ATOM      4  C   UNL     1      -3.812  -9.856   1.222  0.00  0.00    +0.115 C 
ATOM      5  C   UNL     1      -2.356 -10.136   1.645  0.00  0.00    -0.004 C 
ATOM      6  C   UNL     1      -1.968 -11.568   1.287  0.00  0.00    -0.010 C 
ATOM      7  C   UNL     1      -2.793 -12.542   2.133  0.00  0.00    -0.082 C 
ATOM      8  N   UNL     1      -2.543 -12.288   3.557  0.00  0.00    +0.379 N 
ATOM      9  C   UNL     1      -3.004 -10.941   3.914  0.00  0.00    -0.082 C 
ATOM     10  C   UNL     1      -2.189  -9.899   3.143  0.00  0.00    -0.010 C 
ATOM     11  C   UNL     1      -4.482  -9.408  -1.190  0.00  0.00    +0.265 C 
ATOM     12  O   UNL     1      -5.415 -10.186  -1.132  0.00  0.00    -0.268 OA
ATOM     13  H   UNL     1      -3.039 -12.970   4.111  0.00  0.00    -0.086 HD
ATOM     14  H   UNL     1      -1.554 -12.364   3.742  0.00  0.00    -0.086 HD
ENDROOT
BRANCH  11  15
ATOM     15  C   UNL     1      -4.213  -8.672  -2.436  0.00  0.00    +0.124 A 
ATOM     16  C   UNL     1      -3.339  -7.612  -2.602  0.00  0.00    +0.057 A 
ATOM     17  C   UNL     1      -3.436  -7.261  -3.951  0.00  0.00    +0.061 A 
ATOM     18  N   UNL     1      -4.303  -8.064  -4.513  0.00  0.00    -0.175 NA
ATOM     19  N   UNL     1      -4.772  -8.903  -3.661  0.00  0.00    -0.254 N 
ATOM     20  C   UNL     1      -2.676  -6.155  -4.636  0.00  0.00    +0.067 C 
BRANCH  19  21
ATOM     21  C   UNL     1      -5.758  -9.945  -3.956  0.00  0.00    +0.056 C 
ATOM     22  C   UNL     1      -7.043  -9.668  -3.174  0.00  0.00    +0.036 C 
ATOM     23  C   UNL     1      -6.064  -9.947  -5.455  0.00  0.00    +0.036 C 
ATOM     24  C   UNL     1      -5.196 -11.309  -3.549  0.00  0.00    +0.036 C 
ENDBRANCH  19  21
ENDBRANCH  11  15
BRANCH   1  26
ATOM     25  N   UNL     1       0.513  -8.515   2.143  0.00  0.00    -0.305 N 
ATOM     26  C   UNL     1      -0.752  -8.223   1.785  0.00  0.00    +0.219 C 
ATOM     27  O   UNL     1      -1.290  -7.225   2.216  0.00  0.00    -0.275 OA
ATOM     28  H   UNL     1       0.918  -9.349   1.857  0.00  0.00    +0.149 HD
BRANCH  25  29
ATOM     29  C   UNL     1       1.278  -7.573   2.963  0.00  0.00    +0.136 C 
ATOM     30  C   UNL     1       0.962  -7.810   4.441  0.00  0.00    +0.036 C 
BRANCH  29  39
ATOM     31  C   UNL     1       8.675  -7.330   2.177  0.00  0.00    +0.044 C 
ATOM     32  C   UNL     1       7.249  -7.817   2.191  0.00  0.00    -0.048 A 
ATOM     33  C   UNL     1       6.963  -9.122   1.817  0.00  0.00    +0.005 A 
ATOM     34  C   UNL     1       5.677  -9.583   1.822  0.00  0.00    +0.030 A 
ATOM     35  C   UNL     1       4.635  -8.735   2.209  0.00  0.00    +0.089 A 
ATOM     36  C   UNL     1       4.924  -7.414   2.588  0.00  0.00    +0.067 A 
ATOM     37  C   UNL     1       6.238  -6.964   2.580  0.00  0.00    +0.031 A 
ATOM     38  N   UNL     1       3.712  -6.836   2.910  0.00  0.00    -0.340 N 
ATOM     39  C   UNL     1       2.752  -7.782   2.726  0.00  0.00    +0.128 A 
ATOM     40  N   UNL     1       3.291  -8.893   2.316  0.00  0.00    -0.231 NA
ATOM     41  H   UNL     1       3.572  -5.925   3.211  0.00  0.00    +0.167 HD
ENDBRANCH  29  39
ENDBRANCH  25  29
ENDBRANCH   1  26
TORSDOF 5
