REMARK  Name = ZINC53127388
REMARK  8 active torsions:
REMARK  status: ('A' for Active; 'I' for Inactive)
REMARK    1  A    between atoms: C_1  and  C_2
REMARK    2  A    between atoms: C_5  and  C_8
REMARK    3  A    between atoms: C_5  and  N_10
REMARK    4  A    between atoms: C_8  and  O_9
REMARK    5  A    between atoms: C_11  and  C_13
REMARK    6  A    between atoms: C_13  and  C_14
REMARK    7  A    between atoms: C_13  and  C_15
REMARK    8  A    between atoms: C_13  and  N_18
REMARK                            x       y       z     vdW  Elec       q    Type
REMARK                         _______ _______ _______ _____ _____    ______ ____
ROOT
ATOM      1  N   UNL     1      -1.274  -2.244   2.548  0.00  0.00    -0.309 N 
ATOM      2  C   UNL     1      -2.470  -2.761   2.891  0.00  0.00    +0.202 C 
ATOM      3  O   UNL     1      -3.013  -3.568   2.167  0.00  0.00    -0.277 OA
ATOM      4  H   UNL     1      -0.804  -1.658   3.161  0.00  0.00    +0.149 HD
ENDROOT
BRANCH   1   9
ATOM      5  C   UNL     1      -0.757   1.621   0.168  0.00  0.00    +0.007 C 
ATOM      6  C   UNL     1      -0.526   0.112   0.075  0.00  0.00    -0.014 C 
ATOM      7  C   UNL     1      -1.862  -0.619   0.224  0.00  0.00    +0.005 C 
ATOM      8  C   UNL     1      -1.631  -2.129   0.131  0.00  0.00    +0.028 C 
ATOM      9  C   UNL     1      -0.682  -2.569   1.247  0.00  0.00    +0.058 C 
ATOM     10  C   UNL     1       0.654  -1.838   1.099  0.00  0.00    +0.028 C 
ATOM     11  C   UNL     1       0.423  -0.329   1.191  0.00  0.00    +0.005 C 
BRANCH   9  12
ATOM     12  C   UNL     1      -0.451  -4.078   1.155  0.00  0.00    +0.181 C 
BRANCH  12  13
ATOM     13  O   UNL     1       0.333  -4.510   2.269  0.00  0.00    -0.393 OA
ATOM     14  H   UNL     1       0.519  -5.458   2.275  0.00  0.00    +0.209 HD
ENDBRANCH  12  13
ENDBRANCH   9  12
ENDBRANCH   1   9
BRANCH   2  15
ATOM     15  C   UNL     1      -3.133  -2.336   4.176  0.00  0.00    +0.007 C 
ATOM     16  C   UNL     1      -3.922  -1.047   3.941  0.00  0.00    -0.001 C 
BRANCH  15  17
ATOM     17  N   UNL     1      -2.108  -2.103   5.202  0.00  0.00    +0.388 N 
ATOM     18  H   UNL     1      -1.481  -1.376   4.892  0.00  0.00    -0.089 HD
ATOM     19  H   UNL     1      -2.552  -1.818   6.063  0.00  0.00    -0.089 HD
ATOM     20  H   UNL     1      -1.588  -2.953   5.358  0.00  0.00    -0.089 HD
ENDBRANCH  15  17
BRANCH  15  21
ATOM     21  C   UNL     1      -4.085  -3.438   4.647  0.00  0.00    -0.014 C 
ATOM     22  C   UNL     1      -5.586  -3.189   4.490  0.00  0.00    +0.003 C 
ATOM     23  C   UNL     1      -4.946  -3.148   5.879  0.00  0.00    +0.003 C 
ENDBRANCH  15  21
ENDBRANCH   2  15
TORSDOF 6
