REMARK  Name = ZINC13442821
REMARK  6 active torsions:
REMARK  status: ('A' for Active; 'I' for Inactive)
REMARK    1  A    between atoms: C_1  and  N_2
REMARK    2  A    between atoms: C_4  and  C_17
REMARK    3  A    between atoms: C_7  and  O_15
REMARK    4  A    between atoms: C_10  and  C_11
REMARK    5  A    between atoms: O_15  and  C_16
REMARK    6  A    between atoms: N_19  and  C_20
REMARK                            x       y       z     vdW  Elec       q    Type
REMARK                         _______ _______ _______ _____ _____    ______ ____
ROOT
ATOM      1  C   UNL     1       2.400   6.142  -1.093  0.00  0.00    +0.151 C 
ATOM      2  N   UNL     1       3.840   6.414  -1.093  0.00  0.00    -0.323 N 
ATOM      3  C   UNL     1       4.839   5.508  -0.828  0.00  0.00    +0.085 A 
ATOM      4  C   UNL     1       4.856   4.143  -0.497  0.00  0.00    +0.063 A 
ATOM      5  C   UNL     1       6.077   3.498  -0.292  0.00  0.00    +0.019 A 
ATOM      6  C   UNL     1       7.262   4.197  -0.407  0.00  0.00    +0.049 A 
ATOM      7  C   UNL     1       7.260   5.544  -0.728  0.00  0.00    +0.147 A 
ATOM      8  C   UNL     1       6.045   6.213  -0.939  0.00  0.00    +0.132 A 
ATOM      9  N   UNL     1       5.727   7.494  -1.258  0.00  0.00    -0.220 NA
ATOM     10  C   UNL     1       4.435   7.610  -1.355  0.00  0.00    +0.216 A 
ENDROOT
BRANCH  10  11
ATOM     11  C   UNL     1       3.704   8.883  -1.696  0.00  0.00    +0.451 C 
ATOM     12  F   UNL     1       4.605   9.810  -2.231  0.00  0.00    -0.163 F 
ATOM     13  F   UNL     1       2.704   8.610  -2.635  0.00  0.00    -0.163 F 
ATOM     14  F   UNL     1       3.124   9.412  -0.537  0.00  0.00    -0.163 F 
ENDBRANCH  10  11
BRANCH   4  15
ATOM     15  C   UNL     1       3.594   3.395  -0.373  0.00  0.00    +0.250 C 
ATOM     16  O   UNL     1       2.632   3.910   0.164  0.00  0.00    -0.270 OA
ATOM     17  N   UNL     1       3.505   2.140  -0.856  0.00  0.00    -0.279 N 
ATOM     18  H   UNL     1       4.291   1.701  -1.215  0.00  0.00    +0.155 HD
BRANCH  17  19
ATOM     19  C   UNL     1       2.279   1.471  -0.839  0.00  0.00    +0.074 A 
ATOM     20  C   UNL     1       1.528   1.385   0.333  0.00  0.00    +0.082 A 
ATOM     21  C   UNL     1       0.322   0.714   0.308  0.00  0.00    +0.132 A 
ATOM     22  N   UNL     1      -0.122   0.160  -0.805  0.00  0.00    -0.260 NA
ATOM     23  C   UNL     1       0.559   0.221  -1.933  0.00  0.00    +0.132 A 
ATOM     24  C   UNL     1       1.775   0.873  -1.993  0.00  0.00    +0.082 A 
ATOM     25 CL   UNL     1       2.663   0.946  -3.483  0.00  0.00    -0.080 Cl
ATOM     26 CL   UNL     1       2.102   2.110   1.802  0.00  0.00    -0.080 Cl
ENDBRANCH  17  19
ENDBRANCH   4  15
BRANCH   7  27
ATOM     27  O   UNL     1       8.433   6.217  -0.838  0.00  0.00    -0.493 OA
ATOM     28  C   UNL     1       9.632   5.473  -0.610  0.00  0.00    +0.277 C 
ENDBRANCH   7  27
TORSDOF 4
