REMARK  Name = ZINC40557242
REMARK  4 active torsions:
REMARK  status: ('A' for Active; 'I' for Inactive)
REMARK    1  A    between atoms: C_5  and  C_8
REMARK    2  A    between atoms: C_8  and  C_9
REMARK    3  A    between atoms: C_9  and  O_10
REMARK    4  A    between atoms: C_17  and  C_19
REMARK                            x       y       z     vdW  Elec       q    Type
REMARK                         _______ _______ _______ _____ _____    ______ ____
ROOT
ATOM      1  C   UNL     1      -0.179   1.927  -0.957  0.00  0.00    +0.003 C 
ATOM      2  C   UNL     1       1.249   2.441  -1.155  0.00  0.00    +0.019 C 
ATOM      3  C   UNL     1       2.050   1.413  -1.961  0.00  0.00    +0.109 C 
ATOM      4  N   UNL     1       1.964   0.111  -1.284  0.00  0.00    -0.282 N 
ATOM      5  C   UNL     1       0.638  -0.433  -0.964  0.00  0.00    +0.080 C 
ATOM      6  C   UNL     1      -0.147   0.616  -0.170  0.00  0.00    +0.023 C 
ATOM      7  C   UNL     1       3.082  -0.570  -0.963  0.00  0.00    +0.306 C 
ATOM      8  O   UNL     1       3.028  -1.769  -0.768  0.00  0.00    -0.252 OA
ATOM      9  N   UNL     1       4.259   0.077  -0.858  0.00  0.00    -0.262 N 
ATOM     10  C   UNL     1       4.342   1.553  -0.904  0.00  0.00    +0.179 C 
ATOM     11  S   UNL     1       5.949   1.850  -0.043  0.00  0.00    -0.139 S 
ATOM     12  C   UNL     1       6.759   0.273  -0.567  0.00  0.00    +0.105 C 
ATOM     13  C   UNL     1       5.512  -0.638  -0.686  0.00  0.00    +0.201 C 
ENDROOT
BRANCH  13  14
ATOM     14  C   UNL     1       5.706  -1.554  -1.868  0.00  0.00    +0.377 C 
ATOM     15  O   UNL     1       5.246  -1.250  -2.955  0.00  0.00    -0.244 OA
ATOM     16  O   UNL     1       6.322  -2.598  -1.736  0.00  0.00    -0.244 OA
ENDBRANCH  13  14
BRANCH   5  17
ATOM     17  C   UNL     1       0.793  -1.704  -0.126  0.00  0.00    +0.050 C 
BRANCH  17  18
ATOM     18  C   UNL     1      -0.589  -2.222   0.276  0.00  0.00    +0.157 C 
BRANCH  18  19
ATOM     19  O   UNL     1      -0.442  -3.343   1.150  0.00  0.00    -0.395 OA
ATOM     20  H   UNL     1      -1.280  -3.724   1.446  0.00  0.00    +0.209 HD
ENDBRANCH  18  19
ENDBRANCH  17  18
ENDBRANCH   5  17
TORSDOF 4
