REMARK  Name = ZINC20483372
REMARK  6 active torsions:
REMARK  status: ('A' for Active; 'I' for Inactive)
REMARK    1  A    between atoms: C_1  and  C_2
REMARK    2  A    between atoms: C_2  and  C_4
REMARK    3  A    between atoms: C_2  and  O_10
REMARK    4  A    between atoms: O_10  and  C_11
REMARK    5  A    between atoms: C_16  and  C_17
REMARK    6  A    between atoms: C_17  and  N_18
REMARK                            x       y       z     vdW  Elec       q    Type
REMARK                         _______ _______ _______ _____ _____    ______ ____
ROOT
ATOM      1  O   UNL     1      -1.064  -1.042  -2.263  0.00  0.00    -0.480 OA
ENDROOT
BRANCH   1   2
ATOM      2  C   UNL     1      -0.299  -0.137  -2.929  0.00  0.00    +0.123 A 
ATOM      3  C   UNL     1       0.134  -0.409  -4.218  0.00  0.00    +0.047 A 
ATOM      4  C   UNL     1       0.916   0.510  -4.891  0.00  0.00    +0.019 A 
ATOM      5  C   UNL     1       1.263   1.702  -4.282  0.00  0.00    +0.018 A 
ATOM      6  C   UNL     1       0.828   1.978  -2.998  0.00  0.00    +0.020 A 
ATOM      7  C   UNL     1       0.045   1.062  -2.321  0.00  0.00    -0.022 A 
ATOM      8 BR   UNL     1       2.334   2.958  -5.205  0.00  0.00    -0.050 Br
BRANCH   7   9
ATOM      9  C   UNL     1      -0.428   1.362  -0.923  0.00  0.00    -0.047 C 
BRANCH   9  10
ATOM     10  N   UNL     1       0.427   0.662   0.045  0.00  0.00    +0.381 N 
ATOM     11  H   UNL     1       0.081   0.881   1.066  0.00  0.00    -0.090 HD
ATOM     12  H   UNL     1       1.466   1.002  -0.071  0.00  0.00    -0.090 HD
ATOM     13  H   UNL     1       0.374  -0.422  -0.136  0.00  0.00    -0.090 HD
ENDBRANCH   9  10
ENDBRANCH   7   9
ENDBRANCH   1   2
BRANCH   1  15
ATOM     14  C   UNL     1      -2.469  -2.185  -3.862  0.00  0.00    +0.062 C 
ATOM     15  C   UNL     1      -1.284  -2.301  -2.902  0.00  0.00    +0.256 C 
BRANCH  15  16
ATOM     16  C   UNL     1      -1.581  -3.348  -1.860  0.00  0.00    +0.261 C 
ATOM     17  O   UNL     1      -1.693  -3.030  -0.695  0.00  0.00    -0.271 OA
ATOM     18  N   UNL     1      -1.724  -4.638  -2.223  0.00  0.00    -0.237 N 
ATOM     19  C   UNL     1      -1.990  -5.575  -1.291  0.00  0.00    +0.303 C 
ATOM     20  O   UNL     1      -2.102  -5.256  -0.123  0.00  0.00    -0.253 OA
ATOM     21  N   UNL     1      -2.133  -6.865  -1.654  0.00  0.00    -0.313 N 
ATOM     22  H   UNL     1      -1.623  -4.927  -3.279  0.00  0.00    +0.159 HD
ATOM     23  H   UNL     1      -2.350  -7.630  -0.893  0.00  0.00    +0.146 HD
ATOM     24  H   UNL     1      -2.031  -7.154  -2.710  0.00  0.00    +0.146 HD
ENDBRANCH  15  16
ENDBRANCH   1  15
TORSDOF 5
