REMARK  Name = ZINC60034015
REMARK  9 active torsions:
REMARK  status: ('A' for Active; 'I' for Inactive)
REMARK    1  A    between atoms: C_1  and  C_2
REMARK    2  A    between atoms: C_4  and  C_14
REMARK    3  A    between atoms: N_16  and  C_17
REMARK    4  A    between atoms: C_22  and  S_23
REMARK    5  A    between atoms: S_23  and  N_26
REMARK    6  A    between atoms: N_26  and  C_27
REMARK    7  A    between atoms: C_27  and  C_28
REMARK    8  A    between atoms: C_27  and  C_29
REMARK    9  A    between atoms: C_27  and  C_30
REMARK                            x       y       z     vdW  Elec       q    Type
REMARK                         _______ _______ _______ _____ _____    ______ ____
ROOT
ATOM      1  C   UNL     1      -1.905  -0.140  -1.170  0.00  0.00    +0.262 C 
ATOM      2  O   UNL     1      -2.861  -0.799  -1.520  0.00  0.00    -0.271 OA
ATOM      3  N   UNL     1      -1.868   1.183  -1.428  0.00  0.00    -0.281 N 
ATOM      4  H   UNL     1      -1.076   1.697  -1.208  0.00  0.00    +0.155 HD
ENDROOT
BRANCH   1   7
ATOM      5  C   UNL     1       0.892   0.501  -1.813  0.00  0.00    +0.056 C 
ATOM      6  C   UNL     1       0.453  -0.901  -1.383  0.00  0.00    +0.220 C 
ATOM      7  C   UNL     1      -0.759  -0.799  -0.447  0.00  0.00    +0.299 C 
ATOM      8  O   UNL     1      -1.133  -2.124  -0.054  0.00  0.00    -0.472 OA
ATOM      9  C   UNL     1      -0.128  -2.951   0.343  0.00  0.00    +0.163 A 
ATOM     10  C   UNL     1      -0.433  -4.094   1.067  0.00  0.00    +0.049 A 
ATOM     11  C   UNL     1       0.577  -4.945   1.474  0.00  0.00    +0.004 A 
ATOM     12  C   UNL     1       1.893  -4.661   1.161  0.00  0.00    +0.004 A 
ATOM     13  C   UNL     1       2.203  -3.523   0.441  0.00  0.00    +0.049 A 
ATOM     14  C   UNL     1       1.195  -2.663   0.031  0.00  0.00    +0.163 A 
ATOM     15  O   UNL     1       1.517  -1.542  -0.671  0.00  0.00    -0.481 OA
ENDBRANCH   1   7
BRANCH   3  16
ATOM     16  C   UNL     1      -2.972   1.813  -2.013  0.00  0.00    +0.060 A 
ATOM     17  C   UNL     1      -3.825   1.095  -2.842  0.00  0.00    +0.025 A 
ATOM     18  C   UNL     1      -4.913   1.720  -3.417  0.00  0.00    +0.002 A 
ATOM     19  C   UNL     1      -5.154   3.059  -3.170  0.00  0.00    +0.002 A 
ATOM     20  C   UNL     1      -4.307   3.776  -2.347  0.00  0.00    +0.030 A 
ATOM     21  C   UNL     1      -3.220   3.156  -1.762  0.00  0.00    +0.126 A 
BRANCH  21  22
ATOM     22  S   UNL     1      -2.145   4.069  -0.706  0.00  0.00    +0.061 S 
ATOM     23  O   UNL     1      -2.638   5.401  -0.679  0.00  0.00    -0.153 OA
ATOM     24  O   UNL     1      -1.981   3.294   0.474  0.00  0.00    -0.153 OA
BRANCH  22  25
ATOM     25  N   UNL     1      -0.664   4.126  -1.445  0.00  0.00    -0.185 NA
ATOM     26  H   UNL     1       0.092   3.664  -1.051  0.00  0.00    +0.149 HD
BRANCH  25  27
ATOM     27  C   UNL     1      -0.497   4.874  -2.694  0.00  0.00    +0.032 C 
ATOM     28  C   UNL     1      -0.716   6.365  -2.429  0.00  0.00    +0.029 C 
ATOM     29  C   UNL     1       0.917   4.654  -3.234  0.00  0.00    +0.029 C 
ATOM     30  C   UNL     1      -1.518   4.383  -3.722  0.00  0.00    +0.029 C 
ENDBRANCH  25  27
ENDBRANCH  22  25
ENDBRANCH  21  22
ENDBRANCH   3  16
TORSDOF 5
