REMARK  Name = ZINC08645244
REMARK  7 active torsions:
REMARK  status: ('A' for Active; 'I' for Inactive)
REMARK    1  A    between atoms: C_3  and  C_9
REMARK    2  A    between atoms: C_12  and  S_15
REMARK    3  A    between atoms: N_13  and  N_14
REMARK    4  A    between atoms: S_15  and  C_16
REMARK    5  A    between atoms: C_16  and  C_17
REMARK    6  A    between atoms: N_19  and  C_20
REMARK    7  A    between atoms: C_20  and  C_25
REMARK                            x       y       z     vdW  Elec       q    Type
REMARK                         _______ _______ _______ _____ _____    ______ ____
ROOT
ATOM      1  C   UNL     1      -1.618  -4.516  -0.202  0.00  0.00    +0.183 A 
ATOM      2  N   UNL     1      -0.344  -4.224  -0.079  0.00  0.00    -0.127 NA
ATOM      3  N   UNL     1      -0.201  -2.965   0.131  0.00  0.00    -0.121 NA
ATOM      4  C   UNL     1      -1.375  -2.376   0.164  0.00  0.00    +0.209 A 
ATOM      5  N   UNL     1      -2.318  -3.341  -0.050  0.00  0.00    -0.224 N 
ENDROOT
BRANCH   1   8
ATOM      6  C   UNL     1      -3.704  -7.274  -1.667  0.00  0.00    +0.021 A 
ATOM      7  C   UNL     1      -3.175  -6.022  -1.432  0.00  0.00    +0.014 A 
ATOM      8  C   UNL     1      -2.193  -5.854  -0.455  0.00  0.00    +0.039 A 
ATOM      9  C   UNL     1      -1.760  -6.955   0.288  0.00  0.00    +0.053 A 
ATOM     10  C   UNL     1      -2.301  -8.202   0.048  0.00  0.00    +0.040 A 
ATOM     11  C   UNL     1      -3.272  -8.362  -0.927  0.00  0.00    +0.042 A 
ATOM     12 CL   UNL     1      -3.948  -9.933  -1.225  0.00  0.00    -0.083 Cl
ATOM     13 CL   UNL     1      -0.545  -6.756   1.512  0.00  0.00    -0.083 Cl
ENDBRANCH   1   8
BRANCH   5  14
ATOM     14  N   UNL     1      -3.673  -3.174  -0.102  0.00  0.00    -0.295 N 
ATOM     15  H   UNL     1      -3.987  -3.062  -1.054  0.00  0.00    +0.163 HD
ATOM     16  H   UNL     1      -4.149  -3.942   0.348  0.00  0.00    +0.163 HD
ENDBRANCH   5  14
BRANCH   4  17
ATOM     17  S   UNL     1      -1.677  -0.660   0.426  0.00  0.00    -0.075 S 
BRANCH  17  18
ATOM     18  C   UNL     1       0.022  -0.069   0.624  0.00  0.00    +0.173 C 
BRANCH  18  19
ATOM     19  C   UNL     1       0.012   1.419   0.866  0.00  0.00    +0.224 C 
ATOM     20  O   UNL     1      -1.041   2.021   0.897  0.00  0.00    -0.275 OA
ATOM     21  N   UNL     1       1.172   2.081   1.043  0.00  0.00    -0.297 N 
ATOM     22  H   UNL     1       2.014   1.600   1.014  0.00  0.00    +0.150 HD
BRANCH  21  23
ATOM     23  C   UNL     1       1.162   3.527   1.279  0.00  0.00    +0.121 C 
ATOM     24  C   UNL     1       0.556   4.256   0.063  0.00  0.00    +0.041 C 
ATOM     25  C   UNL     1       1.394   5.554  -0.058  0.00  0.00    +0.003 C 
ATOM     26  C   UNL     1       2.822   5.074   0.302  0.00  0.00    +0.003 C 
ATOM     27  C   UNL     1       2.602   4.046   1.432  0.00  0.00    +0.041 C 
BRANCH  23  28
ATOM     28  C   UNL     1       0.384   3.834   2.490  0.00  0.00    +0.088 C 
ATOM     29  N   UNL     1      -0.216   4.071   3.425  0.00  0.00    -0.194 NA
ENDBRANCH  23  28
ENDBRANCH  21  23
ENDBRANCH  18  19
ENDBRANCH  17  18
ENDBRANCH   4  17
TORSDOF 7
