REMARK  Name = ZINC64683557
REMARK  6 active torsions:
REMARK  status: ('A' for Active; 'I' for Inactive)
REMARK    1  A    between atoms: CG_7  and  CB_10
REMARK    2  A    between atoms: CB_10  and  CA_11
REMARK    3  A    between atoms: CA_11  and  C_13
REMARK    4  A    between atoms: CA_11  and  N_16
REMARK    5  A    between atoms: N_19  and  C_20
REMARK    6  A    between atoms: C_20  and  C_21
REMARK                            x       y       z     vdW  Elec       q    Type
REMARK                         _______ _______ _______ _____ _____    ______ ____
ROOT
ATOM      1  N   TRP A   1       1.712  -4.162  -2.020  0.00  0.00    -0.286 N 
ATOM      2  C   UNK A   0       1.907  -4.157  -3.354  0.00  0.00    +0.301 C 
ATOM      3  O   UNK A   0       1.041  -3.731  -4.093  0.00  0.00    -0.253 OA
ATOM      4  N   UNK A   0       3.062  -4.624  -3.868  0.00  0.00    -0.295 N 
ATOM      5  H   TRP A   1       2.403  -4.501  -1.431  0.00  0.00    +0.151 HD
ATOM      6  H   UNK A   0       3.753  -4.964  -3.278  0.00  0.00    +0.151 HD
ENDROOT
BRANCH   1   7
ATOM      7  CA  TRP A   1       0.457  -3.653  -1.462  0.00  0.00    +0.191 C 
BRANCH   7   8
ATOM      8  C   TRP A   1      -0.578  -4.750  -1.471  0.00  0.00    +0.376 C 
ATOM      9  O   TRP A   1      -1.742  -4.491  -1.220  0.00  0.00    -0.244 OA
ATOM     10  OXT TRP A   1      -0.250  -5.895  -1.731  0.00  0.00    -0.244 OA
ENDBRANCH   7   8
BRANCH   7  11
ATOM     11  CB  TRP A   1       0.691  -3.186  -0.024  0.00  0.00    +0.067 C 
BRANCH  11  18
ATOM     12  CZ3 TRP A   1      -0.016   1.348   0.009  0.00  0.00    +0.001 A 
ATOM     13  CH2 TRP A   1       1.166   2.101   0.002  0.00  0.00    +0.002 A 
ATOM     14  CZ2 TRP A   1       2.391   1.535  -0.013  0.00  0.00    +0.026 A 
ATOM     15  CE2 TRP A   1       2.529   0.120  -0.022  0.00  0.00    +0.043 A 
ATOM     16  NE1 TRP A   1       3.587  -0.654  -0.037  0.00  0.00    -0.380 N 
ATOM     17  CD1 TRP A   1       3.143  -2.053  -0.041  0.00  0.00    +0.144 C 
ATOM     18  CG  TRP A   1       1.631  -2.008  -0.025  0.00  0.00    -0.039 C 
ATOM     19  CD2 TRP A   1       1.295  -0.698  -0.014  0.00  0.00    -0.001 A 
ATOM     20  CE3 TRP A   1       0.002  -0.004   0.002  0.00  0.00    +0.010 A 
ATOM     21  HE1 TRP A   1       4.509  -0.353  -0.045  0.00  0.00    +0.160 HD
ENDBRANCH  11  18
ENDBRANCH   7  11
ENDBRANCH   1   7
BRANCH   4  22
ATOM     22  C   UNK A   0       3.273  -4.619  -5.317  0.00  0.00    +0.142 C 
BRANCH  22  23
ATOM     23  C   UNK A   0       4.633  -5.189  -5.628  0.00  0.00    -0.013 A 
ATOM     24  C   UNK A   0       4.744  -6.465  -6.150  0.00  0.00    +0.055 A 
ATOM     25  C   UNK A   0       5.992  -6.992  -6.436  0.00  0.00    +0.167 A 
ATOM     26  C   UNK A   0       7.136  -6.232  -6.198  0.00  0.00    +0.167 A 
ATOM     27  C   UNK A   0       7.019  -4.955  -5.675  0.00  0.00    +0.065 A 
ATOM     28  C   UNK A   0       5.768  -4.433  -5.397  0.00  0.00    +0.026 A 
ATOM     29 BR   UNK A   0       5.610  -2.686  -4.691  0.00  0.00    -0.050 Br
ATOM     30  O   UNK A   0       8.229  -6.966  -6.558  0.00  0.00    -0.453 OA
ATOM     31  C   UNK A   0       7.770  -8.329  -6.635  0.00  0.00    +0.466 C 
ATOM     32  O   UNK A   0       6.370  -8.200  -6.946  0.00  0.00    -0.453 OA
ENDBRANCH  22  23
ENDBRANCH   4  22
TORSDOF 6
