REMARK  Name = ZINC00140048
REMARK  4 active torsions:
REMARK  status: ('A' for Active; 'I' for Inactive)
REMARK    1  A    between atoms: C_3  and  C_8
REMARK    2  A    between atoms: C_11  and  C_22
REMARK    3  A    between atoms: C_17  and  N_21
REMARK    4  A    between atoms: C_18  and  C_19
REMARK                            x       y       z     vdW  Elec       q    Type
REMARK                         _______ _______ _______ _____ _____    ______ ____
ROOT
ATOM      1  C   UNL     1       3.672   2.186  -0.021  0.00  0.00    +0.102 C 
ATOM      2  C   UNL     1       4.467   1.833  -1.252  0.00  0.00    +0.055 A 
ATOM      3  C   UNL     1       4.236   2.186  -2.586  0.00  0.00    +0.107 A 
ATOM      4  N   UNL     1       5.195   1.649  -3.319  0.00  0.00    -0.170 NA
ATOM      5  N   UNL     1       6.058   0.941  -2.468  0.00  0.00    -0.246 N 
ATOM      6  H   UNL     1       6.848   0.448  -2.738  0.00  0.00    +0.192 HD
ATOM      7  C   UNL     1       5.595   1.067  -1.206  0.00  0.00    +0.223 A 
ATOM      8  O   UNL     1       6.093   0.564  -0.049  0.00  0.00    -0.423 OA
ATOM      9  C   UNL     1       5.606   1.059   1.108  0.00  0.00    +0.200 C 
ATOM     10  C   UNL     1       4.491   1.820   1.191  0.00  0.00    +0.098 C 
ENDROOT
BRANCH   1  13
ATOM     11  C   UNL     1      -0.017   1.377   0.010  0.00  0.00    +0.003 A 
ATOM     12  C   UNL     1       1.171   2.086   0.002  0.00  0.00    +0.005 A 
ATOM     13  C   UNL     1       2.378   1.413  -0.013  0.00  0.00    -0.032 A 
ATOM     14  C   UNL     1       2.399   0.030  -0.021  0.00  0.00    +0.043 A 
ATOM     15  C   UNL     1       1.211  -0.679  -0.013  0.00  0.00    +0.124 A 
ATOM     16  C   UNL     1       0.002  -0.004   0.002  0.00  0.00    +0.038 A 
ATOM     17  F   UNL     1       1.230  -2.030  -0.022  0.00  0.00    -0.205 F 
ENDBRANCH   1  13
BRANCH   3  18
ATOM     18  C   UNL     1       3.118   3.015  -3.087  0.00  0.00    +0.040 A 
ATOM     19  C   UNL     1       3.105   3.912  -4.121  0.00  0.00    +0.018 A 
ATOM     20  C   UNL     1       1.931   4.575  -4.407  0.00  0.00    +0.008 A 
ATOM     21  C   UNL     1       0.828   4.320  -3.659  0.00  0.00    +0.046 A 
ATOM     22  S   UNL     1       1.432   3.099  -2.506  0.00  0.00    -0.095 S 
ENDBRANCH   3  18
BRANCH   9  23
ATOM     23  N   UNL     1       6.282   0.774   2.268  0.00  0.00    -0.328 N 
ATOM     24  H   UNL     1       7.085   0.231   2.240  0.00  0.00    +0.145 HD
ATOM     25  H   UNL     1       5.956   1.116   3.115  0.00  0.00    +0.145 HD
ENDBRANCH   9  23
BRANCH  10  26
ATOM     26  C   UNL     1       4.073   2.295   2.476  0.00  0.00    +0.101 C 
ATOM     27  N   UNL     1       3.741   2.671   3.495  0.00  0.00    -0.191 NA
ENDBRANCH  10  26
TORSDOF 4
