REMARK  Name = ZINC04578035
REMARK  2 active torsions:
REMARK  status: ('A' for Active; 'I' for Inactive)
REMARK    1  A    between atoms: C_4  and  N_15
REMARK    2  A    between atoms: C_6  and  C_7
REMARK                            x       y       z     vdW  Elec       q    Type
REMARK                         _______ _______ _______ _____ _____    ______ ____
ROOT
ATOM      1  C   UNL     1      -0.043   1.390   0.070  0.00  0.00    +0.009 A 
ATOM      2  C   UNL     1      -0.047   0.013   0.012  0.00  0.00    +0.018 A 
ATOM      3  C   UNL     1       1.139  -0.680  -0.164  0.00  0.00    +0.048 A 
ATOM      4  C   UNL     1       2.338   0.004  -0.283  0.00  0.00    +0.141 A 
ATOM      5  C   UNL     1       2.358   1.381  -0.228  0.00  0.00    +0.041 A 
ATOM      6  C   UNL     1       1.163   2.088  -0.050  0.00  0.00    -0.022 A 
ATOM      7 BR   UNL     1       1.122  -2.570  -0.240  0.00  0.00    -0.048 Br
ENDROOT
BRANCH   6   8
ATOM      8  C   UNL     1       1.176   3.557   0.010  0.00  0.00    +0.028 C 
ATOM      9  C   UNL     1       0.112   4.223   0.521  0.00  0.00    +0.078 C 
ATOM     10  C   UNL     1      -0.161   5.675   0.544  0.00  0.00    +0.256 C 
ATOM     11  O   UNL     1       0.618   6.476   0.063  0.00  0.00    -0.269 OA
ATOM     12  N   UNL     1      -1.290   6.064   1.112  0.00  0.00    -0.261 N 
ATOM     13  C   UNL     1      -2.160   5.137   1.652  0.00  0.00    +0.158 C 
ATOM     14  N   UNL     1      -3.304   5.347   2.242  0.00  0.00    -0.279 NA
ATOM     15  S   UNL     1      -1.341   3.582   1.339  0.00  0.00    -0.049 S 
ATOM     16  H   UNL     1      -1.509   7.008   1.149  0.00  0.00    +0.157 HD
ATOM     17  H   UNL     1      -3.820   4.599   2.580  0.00  0.00    +0.189 HD
ENDBRANCH   6   8
BRANCH   4  18
ATOM     18  N   UNL     1       3.600  -0.746  -0.470  0.00  0.00    +0.058 N 
ATOM     19  O   UNL     1       4.655  -0.146  -0.575  0.00  0.00    -0.126 OA
ATOM     20  O   UNL     1       3.584  -1.963  -0.518  0.00  0.00    -0.126 OA
ENDBRANCH   4  18
TORSDOF 2
