REMARK  Name = ZINC49316828
REMARK  5 active torsions:
REMARK  status: ('A' for Active; 'I' for Inactive)
REMARK    1  A    between atoms: C_1  and  C_2
REMARK    2  A    between atoms: C_4  and  C_8
REMARK    3  A    between atoms: N_10  and  C_11
REMARK    4  A    between atoms: C_11  and  C_17
REMARK    5  A    between atoms: N_19  and  C_20
REMARK                            x       y       z     vdW  Elec       q    Type
REMARK                         _______ _______ _______ _____ _____    ______ ____
ROOT
ATOM      1  C   UNL     1       0.186  -3.359  -1.649  0.00  0.00    +0.264 C 
ATOM      2  O   UNL     1       0.178  -3.405  -2.864  0.00  0.00    -0.268 OA
ATOM      3  N   UNL     1       0.136  -4.500  -0.931  0.00  0.00    -0.296 N 
ATOM      4  H   UNL     1       0.216  -4.468   0.035  0.00  0.00    +0.150 HD
ENDROOT
BRANCH   1   8
ATOM      5  C   UNL     1       0.419   1.600  -0.609  0.00  0.00    +0.068 C 
ATOM      6  C   UNL     1       0.350   0.099  -0.490  0.00  0.00    +0.074 A 
ATOM      7  C   UNL     1       0.304  -0.809  -1.552  0.00  0.00    +0.070 A 
ATOM      8  C   UNL     1       0.249  -2.061  -0.961  0.00  0.00    +0.134 A 
ATOM      9  N   UNL     1       0.264  -1.846   0.389  0.00  0.00    -0.271 N 
ATOM     10  H   UNL     1       0.235  -2.541   1.065  0.00  0.00    +0.189 HD
ATOM     11  N   UNL     1       0.328  -0.585   0.625  0.00  0.00    -0.177 NA
ATOM     12 BR   UNL     1       0.314  -0.413  -3.401  0.00  0.00    -0.046 Br
ENDBRANCH   1   8
BRANCH   3  13
ATOM     13  C   UNL     1      -0.037  -5.785  -1.611  0.00  0.00    +0.111 C 
ATOM     14  C   UNL     1       1.183  -6.065  -2.492  0.00  0.00    +0.035 C 
ATOM     15  C   UNL     1       2.440  -6.114  -1.621  0.00  0.00    +0.003 C 
ATOM     16  C   UNL     1       2.297  -7.226  -0.581  0.00  0.00    +0.000 C 
ATOM     17  C   UNL     1       1.077  -6.946   0.300  0.00  0.00    +0.003 C 
ATOM     18  C   UNL     1      -0.180  -6.898  -0.570  0.00  0.00    +0.035 C 
BRANCH  13  19
ATOM     19  C   UNL     1      -1.275  -5.738  -2.469  0.00  0.00    +0.236 C 
ATOM     20  O   UNL     1      -1.298  -6.316  -3.535  0.00  0.00    -0.273 OA
ATOM     21  N   UNL     1      -2.358  -5.052  -2.051  0.00  0.00    -0.317 N 
ATOM     22  C   UNL     1      -3.521  -4.913  -2.931  0.00  0.00    +0.128 C 
ATOM     23  H   UNL     1      -2.367  -4.651  -1.168  0.00  0.00    +0.148 HD
ENDBRANCH  13  19
ENDBRANCH   3  13
TORSDOF 3
