REMARK  Name = ZINC43562419
REMARK  7 active torsions:
REMARK  status: ('A' for Active; 'I' for Inactive)
REMARK    1  A    between atoms: C_1  and  C_2
REMARK    2  A    between atoms: N_5  and  C_11
REMARK    3  A    between atoms: C_7  and  C_10
REMARK    4  A    between atoms: C_11  and  C_13
REMARK    5  A    between atoms: C_11  and  C_14
REMARK    6  A    between atoms: N_19  and  C_20
REMARK    7  A    between atoms: C_20  and  C_21
REMARK                            x       y       z     vdW  Elec       q    Type
REMARK                         _______ _______ _______ _____ _____    ______ ____
ROOT
ATOM      1  C   UNL     1       4.222   0.125  -2.430  0.00  0.00    +0.237 C 
ATOM      2  O   UNL     1       4.616   0.733  -1.458  0.00  0.00    -0.274 OA
ATOM      3  N   UNL     1       5.028  -0.032  -3.499  0.00  0.00    -0.239 N 
ATOM      4  C   UNL     1       6.271   0.487  -3.487  0.00  0.00    +0.306 C 
ATOM      5  O   UNL     1       6.666   1.097  -2.513  0.00  0.00    -0.252 OA
ATOM      6  N   UNL     1       7.077   0.331  -4.556  0.00  0.00    -0.291 N 
ATOM      7  H   UNL     1       4.713  -0.518  -4.277  0.00  0.00    +0.159 HD
ATOM      8  H   UNL     1       6.762  -0.156  -5.334  0.00  0.00    +0.151 HD
ENDROOT
BRANCH   1   9
ATOM      9  C   UNL     1       2.832  -0.456  -2.443  0.00  0.00    +0.141 C 
ATOM     10  C   UNL     1       1.938   0.382  -3.359  0.00  0.00    +0.034 C 
BRANCH   9  14
ATOM     11  C   UNL     1       2.550   0.405   1.710  0.00  0.00    +0.039 C 
ATOM     12  C   UNL     1       1.435   0.895   0.784  0.00  0.00    +0.130 C 
ATOM     13  C   UNL     1       1.945   0.923  -0.659  0.00  0.00    +0.116 C 
ATOM     14  N   UNL     1       2.284  -0.445  -1.080  0.00  0.00    -0.287 NA
ATOM     15  C   UNL     1       1.112  -1.327  -0.976  0.00  0.00    +0.116 C 
ATOM     16  C   UNL     1       0.611  -1.332   0.470  0.00  0.00    +0.130 C 
ATOM     17  O   UNL     1       0.316   0.010   0.873  0.00  0.00    -0.371 OA
ATOM     18  C   UNL     1      -0.655  -2.185   0.569  0.00  0.00    +0.039 C 
ENDBRANCH   9  14
ENDBRANCH   1   9
BRANCH   6  19
ATOM     19  C   UNL     1       8.429   0.895  -4.544  0.00  0.00    +0.219 C 
BRANCH  19  20
ATOM     20  C   UNL     1       9.127   0.577  -5.868  0.00  0.00    +0.405 C 
ATOM     21  F   UNL     1       8.399   1.134  -6.924  0.00  0.00    -0.169 F 
ATOM     22  F   UNL     1      10.418   1.116  -5.856  0.00  0.00    -0.169 F 
ATOM     23  F   UNL     1       9.202  -0.810  -6.034  0.00  0.00    -0.169 F 
ENDBRANCH  19  20
ENDBRANCH   6  19
TORSDOF 4
