REMARK  Name = ZINC19714617
REMARK  4 active torsions:
REMARK  status: ('A' for Active; 'I' for Inactive)
REMARK    1  A    between atoms: C_1  and  C_2
REMARK    2  A    between atoms: C_13  and  C_15
REMARK    3  A    between atoms: N_21  and  S_22
REMARK    4  A    between atoms: S_22  and  C_25
REMARK                            x       y       z     vdW  Elec       q    Type
REMARK                         _______ _______ _______ _____ _____    ______ ____
ROOT
ATOM      1  C   UNL     1      -1.486   4.237   0.135  0.00  0.00    +0.166 C 
ATOM      2  C   UNL     1      -1.176   5.035   1.405  0.00  0.00    +0.030 C 
ATOM      3  C   UNL     1      -1.689   6.468   1.240  0.00  0.00    +0.003 C 
ATOM      4  C   UNL     1      -3.206   6.448   1.039  0.00  0.00    +0.017 C 
ATOM      5  C   UNL     1      -3.539   5.665  -0.235  0.00  0.00    +0.110 C 
ATOM      6  N   UNL     1      -2.925   4.334  -0.146  0.00  0.00    -0.165 NA
ENDROOT
BRANCH   1  19
ATOM      7  C   UNL     1       2.836  -3.205  -3.156  0.00  0.00    +0.065 C 
ATOM      8  C   UNL     1       2.094  -2.069  -2.501  0.00  0.00    +0.041 A 
ATOM      9  C   UNL     1       2.027  -0.842  -3.148  0.00  0.00    +0.024 A 
ATOM     10  C   UNL     1       1.355   0.198  -2.560  0.00  0.00    +0.017 A 
ATOM     11  C   UNL     1       0.754  -0.023  -1.316  0.00  0.00    +0.060 A 
ATOM     12  C   UNL     1       0.860  -1.292  -0.715  0.00  0.00    +0.158 A 
ATOM     13  N   UNL     1       1.525  -2.262  -1.331  0.00  0.00    -0.233 NA
ATOM     14  N   UNL     1       0.189  -1.219   0.475  0.00  0.00    -0.258 N 
ATOM     15  H   UNL     1       0.131  -2.102   1.129  0.00  0.00    +0.191 HD
ATOM     16  N   UNL     1      -0.330   0.069   0.636  0.00  0.00    -0.156 NA
ATOM     17  C   UNL     1      -0.026   0.807  -0.398  0.00  0.00    +0.156 A 
ATOM     18  N   UNL     1      -0.377   2.147  -0.590  0.00  0.00    -0.267 N 
ATOM     19  C   UNL     1      -1.108   2.792   0.341  0.00  0.00    +0.237 C 
ATOM     20  O   UNL     1      -1.461   2.211   1.345  0.00  0.00    -0.274 OA
ATOM     21  H   UNL     1      -0.056   2.675  -1.500  0.00  0.00    +0.156 HD
ENDBRANCH   1  19
BRANCH   6  22
ATOM     22  S   UNL     1      -3.837   2.968  -0.359  0.00  0.00    +0.062 S 
ATOM     23  O   UNL     1      -4.927   3.334  -1.193  0.00  0.00    -0.153 OA
ATOM     24  O   UNL     1      -2.934   1.925  -0.699  0.00  0.00    -0.153 OA
BRANCH  22  25
ATOM     25  C   UNL     1      -4.521   2.550   1.210  0.00  0.00    +0.106 A 
ATOM     26  C   UNL     1      -3.959   1.533   1.960  0.00  0.00    +0.031 A 
ATOM     27  C   UNL     1      -4.492   1.207   3.193  0.00  0.00    +0.040 A 
ATOM     28  C   UNL     1      -5.596   1.892   3.672  0.00  0.00    +0.124 A 
ATOM     29  C   UNL     1      -6.162   2.906   2.917  0.00  0.00    +0.040 A 
ATOM     30  C   UNL     1      -5.624   3.234   1.687  0.00  0.00    +0.031 A 
ATOM     31  F   UNL     1      -6.121   1.571   4.875  0.00  0.00    -0.205 F 
ENDBRANCH  22  25
ENDBRANCH   6  22
TORSDOF 3
