REMARK  Name = ZINC09490174
REMARK  7 active torsions:
REMARK  status: ('A' for Active; 'I' for Inactive)
REMARK    1  A    between atoms: C_1  and  C_2
REMARK    2  A    between atoms: C_2  and  N_3
REMARK    3  A    between atoms: N_3  and  C_4
REMARK    4  A    between atoms: C_8  and  C_10
REMARK    5  A    between atoms: C_11  and  C_13
REMARK    6  A    between atoms: C_16  and  N_20
REMARK    7  A    between atoms: C_17  and  N_19
REMARK                            x       y       z     vdW  Elec       q    Type
REMARK                         _______ _______ _______ _____ _____    ______ ____
ROOT
ATOM      1  C   UNL     1      -0.699   6.939   1.118  0.00  0.00    +0.039 A 
ATOM      2  C   UNL     1      -0.386   7.852   0.107  0.00  0.00    +0.015 A 
ATOM      3  C   UNL     1      -0.512   9.204   0.336  0.00  0.00    +0.026 A 
ATOM      4  C   UNL     1      -0.939   9.666   1.575  0.00  0.00    +0.051 A 
ATOM      5  C   UNL     1      -1.248   8.759   2.592  0.00  0.00    +0.047 A 
ATOM      6  C   UNL     1      -1.129   7.401   2.365  0.00  0.00    +0.037 A 
ENDROOT
BRANCH   4   7
ATOM      7  N   UNL     1      -1.060  11.035   1.804  0.00  0.00    -0.328 N 
ATOM      8  C   UNL     1       0.212  11.723   1.561  0.00  0.00    +0.110 C 
ATOM      9  C   UNL     1       0.097  13.208   1.870  0.00  0.00    +0.027 C 
ATOM     10  C   UNL     1      -1.051  13.845   1.060  0.00  0.00    +0.018 C 
ATOM     11  C   UNL     1      -2.329  13.077   1.416  0.00  0.00    +0.053 C 
ATOM     12  C   UNL     1      -2.140  11.612   0.988  0.00  0.00    +0.114 C 
ATOM     13  C   UNL     1      -2.530  13.092   2.914  0.00  0.00    +0.027 A 
ATOM     14  C   UNL     1      -3.806  13.031   3.379  0.00  0.00    +0.022 A 
ATOM     15  C   UNL     1      -4.059  12.975   4.754  0.00  0.00    +0.007 A 
ATOM     16  C   UNL     1      -3.004  12.954   5.618  0.00  0.00    +0.070 A 
ATOM     17  C   UNL     1      -1.701  13.013   5.106  0.00  0.00    +0.251 A 
ATOM     18  O   UNL     1      -0.749  12.929   5.865  0.00  0.00    -0.268 OA
ATOM     19  N   UNL     1      -1.488  13.164   3.775  0.00  0.00    -0.312 N 
ATOM     20  C   UNL     1      -0.119  13.462   3.353  0.00  0.00    +0.130 C 
ENDBRANCH   4   7
BRANCH   1  22
ATOM     21  N   UNL     1       0.336   5.037  -0.020  0.00  0.00    -0.268 N 
ATOM     22  C   UNL     1      -0.569   5.491   0.871  0.00  0.00    +0.251 C 
ATOM     23  O   UNL     1      -1.278   4.706   1.471  0.00  0.00    -0.270 OA
BRANCH  21  24
ATOM     24  C   UNL     1       0.389   3.675  -0.331  0.00  0.00    +0.037 A 
ATOM     25  C   UNL     1       1.405   3.184  -1.140  0.00  0.00    +0.023 A 
ATOM     26  C   UNL     1       1.454   1.839  -1.446  0.00  0.00    +0.002 A 
ATOM     27  C   UNL     1       0.492   0.979  -0.947  0.00  0.00    +0.003 A 
ATOM     28  C   UNL     1      -0.524   1.465  -0.145  0.00  0.00    -0.049 A 
ATOM     29  C   UNL     1      -0.576   2.809   0.169  0.00  0.00    +0.027 A 
ATOM     30  C   UNL     1      -1.574   0.526   0.391  0.00  0.00    +0.044 C 
ENDBRANCH  21  24
BRANCH  21  32
ATOM     31  C   UNL     1       0.912   6.099  -2.146  0.00  0.00    +0.025 C 
ATOM     32  C   UNL     1       1.263   5.971  -0.662  0.00  0.00    +0.110 C 
ENDBRANCH  21  32
ENDBRANCH   1  22
BRANCH   5  33
ATOM     33  N   UNL     1      -1.680   9.225   3.840  0.00  0.00    -0.357 N 
ATOM     34  H   UNL     1      -2.087   8.613   4.473  0.00  0.00    +0.142 HD
ATOM     35  H   UNL     1      -1.571  10.161   4.072  0.00  0.00    +0.142 HD
ENDBRANCH   5  33
TORSDOF 5
