REMARK  Name = ZINC37287907
REMARK  3 active torsions:
REMARK  status: ('A' for Active; 'I' for Inactive)
REMARK    1  A    between atoms: C_6  and  C_7
REMARK    2  A    between atoms: C_7  and  C_9
REMARK    3  A    between atoms: C_7  and  N_17
REMARK                            x       y       z     vdW  Elec       q    Type
REMARK                         _______ _______ _______ _____ _____    ______ ____
ROOT
ATOM      1  C   UNL     1      -1.295  -0.772   0.010  0.00  0.00    -0.012 C 
ENDROOT
BRANCH   1   7
ATOM      2  C   UNL     1      -0.017   1.379   0.010  0.00  0.00    +0.004 A 
ATOM      3  C   UNL     1       1.168   2.090   0.002  0.00  0.00    +0.030 A 
ATOM      4  C   UNL     1       2.377   1.414  -0.013  0.00  0.00    +0.087 A 
ATOM      5  C   UNL     1       2.397   0.019  -0.021  0.00  0.00    +0.157 A 
ATOM      6  C   UNL     1       1.204  -0.685  -0.013  0.00  0.00    +0.050 A 
ATOM      7  C   UNL     1       0.002  -0.004   0.002  0.00  0.00    -0.054 A 
ATOM      8  O   UNL     1       3.697  -0.364  -0.036  0.00  0.00    -0.408 OA
ATOM      9  C   UNL     1       4.479   0.727  -0.038  0.00  0.00    +0.419 A 
ATOM     10  O   UNL     1       5.695   0.719  -0.050  0.00  0.00    -0.223 OA
ATOM     11  N   UNL     1       3.708   1.832  -0.024  0.00  0.00    -0.288 N 
ATOM     12  H   UNL     1       4.021   2.750  -0.022  0.00  0.00    +0.172 HD
ENDBRANCH   1   7
BRANCH   1  13
ATOM     13  C   UNL     1      -1.839  -0.823   1.414  0.00  0.00    -0.038 A 
ATOM     14  C   UNL     1      -2.849   0.040   1.796  0.00  0.00    +0.019 A 
ATOM     15  C   UNL     1      -3.349  -0.007   3.084  0.00  0.00    +0.018 A 
ATOM     16  C   UNL     1      -2.838  -0.917   3.992  0.00  0.00    +0.017 A 
ATOM     17  C   UNL     1      -1.828  -1.780   3.611  0.00  0.00    +0.021 A 
ATOM     18  C   UNL     1      -1.332  -1.737   2.320  0.00  0.00    +0.043 A 
ATOM     19 CL   UNL     1      -0.069  -2.826   1.839  0.00  0.00    -0.083 Cl
ATOM     20 BR   UNL     1      -4.731   1.174   3.606  0.00  0.00    -0.050 Br
ENDBRANCH   1  13
BRANCH   1  21
ATOM     21  N   UNL     1      -2.265  -0.103  -0.867  0.00  0.00    +0.385 N 
ATOM     22  H   UNL     1      -3.133  -0.617  -0.862  0.00  0.00    -0.089 HD
ATOM     23  H   UNL     1      -2.428   0.835  -0.535  0.00  0.00    -0.089 HD
ATOM     24  H   UNL     1      -1.900  -0.069  -1.807  0.00  0.00    -0.089 HD
ENDBRANCH   1  21
TORSDOF 3
