REMARK  Name = ZINC43078745
REMARK  5 active torsions:
REMARK  status: ('A' for Active; 'I' for Inactive)
REMARK    1  A    between atoms: C_1  and  C_2
REMARK    2  A    between atoms: N_11  and  C_12
REMARK    3  A    between atoms: C_12  and  C_13
REMARK    4  A    between atoms: C_13  and  C_15
REMARK    5  A    between atoms: C_13  and  C_21
REMARK                            x       y       z     vdW  Elec       q    Type
REMARK                         _______ _______ _______ _____ _____    ______ ____
ROOT
ATOM      1  C   UNL     1       3.912  -0.010   4.723  0.00  0.00    +0.068 C 
ENDROOT
BRANCH   1   2
ATOM      2  C   UNL     1       4.560   0.934   5.703  0.00  0.00    -0.013 A 
ATOM      3  C   UNL     1       5.412   1.928   5.409  0.00  0.00    +0.088 A 
ATOM      4  N   UNL     1       5.792   2.571   6.556  0.00  0.00    -0.360 N 
ATOM      5  H   UNL     1       6.403   3.323   6.597  0.00  0.00    +0.165 HD
ATOM      6  C   UNL     1       5.178   1.991   7.643  0.00  0.00    +0.047 A 
ATOM      7  C   UNL     1       4.375   0.944   7.156  0.00  0.00    +0.003 A 
ATOM      8  C   UNL     1       3.621   0.173   8.043  0.00  0.00    +0.010 A 
ATOM      9  C   UNL     1       3.666   0.442   9.382  0.00  0.00    +0.001 A 
ATOM     10  C   UNL     1       4.454   1.477   9.867  0.00  0.00    +0.002 A 
ATOM     11  C   UNL     1       5.213   2.244   9.010  0.00  0.00    +0.026 A 
ENDBRANCH   1   2
BRANCH   1  12
ATOM     12  C   UNL     1       4.978  -0.780   3.987  0.00  0.00    -0.038 A 
ATOM     13  C   UNL     1       5.922  -0.107   3.235  0.00  0.00    +0.004 A 
ATOM     14  C   UNL     1       6.900  -0.814   2.560  0.00  0.00    +0.000 A 
ATOM     15  C   UNL     1       6.934  -2.193   2.638  0.00  0.00    +0.000 A 
ATOM     16  C   UNL     1       5.990  -2.867   3.391  0.00  0.00    +0.000 A 
ATOM     17  C   UNL     1       5.015  -2.160   4.069  0.00  0.00    +0.004 A 
ENDBRANCH   1  12
BRANCH   1  18
ATOM     18  C   UNL     1       3.077   0.789   3.721  0.00  0.00    +0.118 C 
BRANCH  18  28
ATOM     19  C   UNL     1      -0.028   1.527   0.018  0.00  0.00    +0.030 C 
ATOM     20  C   UNL     1      -0.005  -0.003   0.007  0.00  0.00    +0.100 C 
ATOM     21  C   UNL     1      -1.431  -0.542   0.162  0.00  0.00    +0.182 C 
ATOM     22  O   UNL     1      -1.383  -1.960   0.337  0.00  0.00    -0.376 OA
ATOM     23  C   UNL     1      -0.694  -2.381   1.517  0.00  0.00    +0.179 C 
ATOM     24  C   UNL     1       0.771  -1.936   1.432  0.00  0.00    +0.137 C 
ATOM     25  N   UNL     1       0.802  -0.495   1.135  0.00  0.00    -0.278 N 
ATOM     26  C   UNL     1       1.548   0.350   1.875  0.00  0.00    +0.303 C 
ATOM     27  O   UNL     1       1.494   1.547   1.670  0.00  0.00    -0.253 OA
ATOM     28  N   UNL     1       2.353  -0.133   2.843  0.00  0.00    -0.298 N 
ATOM     29  H   UNL     1       2.452  -1.091   2.958  0.00  0.00    +0.150 HD
ENDBRANCH  18  28
ENDBRANCH   1  18
TORSDOF 4
