REMARK  Name = ZINC50244610
REMARK  5 active torsions:
REMARK  status: ('A' for Active; 'I' for Inactive)
REMARK    1  A    between atoms: C_1  and  C_2
REMARK    2  A    between atoms: C_2  and  C_3
REMARK    3  A    between atoms: C_6  and  C_9
REMARK    4  A    between atoms: C_6  and  N_12
REMARK    5  A    between atoms: C_18  and  N_21
REMARK                            x       y       z     vdW  Elec       q    Type
REMARK                         _______ _______ _______ _____ _____    ______ ____
ROOT
ATOM      1  N   UNL     1      -4.925  -2.693  -1.147  0.00  0.00    -0.283 N 
ATOM      2  C   UNL     1      -5.154  -4.018  -1.050  0.00  0.00    +0.303 C 
ATOM      3  O   UNL     1      -4.220  -4.792  -0.972  0.00  0.00    -0.253 OA
ATOM      4  N   UNL     1      -6.418  -4.484  -1.041  0.00  0.00    -0.287 N 
ATOM      5  C   UNL     1      -7.635  -3.664  -1.135  0.00  0.00    +0.107 C 
ATOM      6  C   UNL     1      -8.841  -4.624  -1.058  0.00  0.00    +0.004 C 
ATOM      7  C   UNL     1      -8.247  -5.873  -0.356  0.00  0.00    -0.056 C 
ATOM      8  C   UNL     1      -6.810  -5.902  -0.940  0.00  0.00    +0.093 C 
ATOM      9  H   UNL     1      -5.670  -2.076  -1.210  0.00  0.00    +0.151 HD
ENDROOT
BRANCH   1  13
ATOM     10  C   UNL     1      -1.433  -0.534   0.013  0.00  0.00    -0.011 C 
ATOM     11  C   UNL     1      -2.135  -0.131  -1.286  0.00  0.00    +0.006 C 
ATOM     12  C   UNL     1      -3.571  -0.661  -1.275  0.00  0.00    +0.038 C 
ATOM     13  C   UNL     1      -3.551  -2.186  -1.157  0.00  0.00    +0.137 C 
ATOM     14  C   UNL     1      -2.849  -2.589   0.141  0.00  0.00    +0.038 C 
ATOM     15  C   UNL     1      -1.413  -2.059   0.130  0.00  0.00    +0.006 C 
BRANCH  13  16
ATOM     16  C   UNL     1      -2.808  -2.771  -2.332  0.00  0.00    +0.379 C 
ATOM     17  O   UNL     1      -1.641  -2.475  -2.524  0.00  0.00    -0.244 OA
ATOM     18  O   UNL     1      -3.375  -3.539  -3.090  0.00  0.00    -0.244 OA
ENDBRANCH  13  16
BRANCH  10  20
ATOM     19  C   UNL     1      -0.019   1.526   0.010  0.00  0.00    +0.004 C 
ATOM     20  C   UNL     1       0.002  -0.004   0.002  0.00  0.00    -0.000 C 
ENDBRANCH  10  20
ENDBRANCH   1  13
BRANCH   7  21
ATOM     21  N   UNL     1      -8.988  -7.087  -0.724  0.00  0.00    +0.381 N 
ATOM     22  H   UNL     1      -8.937  -7.222  -1.723  0.00  0.00    -0.090 HD
ATOM     23  H   UNL     1      -8.583  -7.883  -0.256  0.00  0.00    -0.090 HD
ATOM     24  H   UNL     1      -9.953  -6.988  -0.447  0.00  0.00    -0.090 HD
ENDBRANCH   7  21
TORSDOF 4
