REMARK  Name = ZINC50979302
REMARK  2 active torsions:
REMARK  status: ('A' for Active; 'I' for Inactive)
REMARK    1  A    between atoms: C_2  and  C_12
REMARK    2  A    between atoms: C_12  and  C_14
REMARK                            x       y       z     vdW  Elec       q    Type
REMARK                         _______ _______ _______ _____ _____    ______ ____
ROOT
ATOM      1  C   UNL     1      -0.017   1.383   0.010  0.00  0.00    +0.055 A 
ATOM      2  C   UNL     1       1.170   2.092   0.002  0.00  0.00    -0.016 A 
ATOM      3  C   UNL     1       2.378   1.422  -0.013  0.00  0.00    +0.029 A 
ATOM      4  C   UNL     1       2.405   0.039  -0.023  0.00  0.00    +0.086 A 
ATOM      5  C   UNL     1       1.217  -0.679  -0.016  0.00  0.00    +0.180 A 
ATOM      6  C   UNL     1       0.002  -0.004   0.002  0.00  0.00    +0.164 A 
ATOM      7  O   UNL     1      -1.175  -0.688   0.016  0.00  0.00    -0.485 OA
ATOM      8  C   UNL     1      -1.122  -2.066  -0.368  0.00  0.00    +0.270 C 
ATOM      9  C   UNL     1       0.060  -2.723   0.356  0.00  0.00    +0.270 C 
ATOM     10  O   UNL     1       1.258  -2.039  -0.030  0.00  0.00    -0.483 OA
ATOM     11 CL   UNL     1       3.924  -0.800  -0.043  0.00  0.00    -0.080 Cl
ENDROOT
BRANCH   2  12
ATOM     12  C   UNL     1       1.145   3.599   0.010  0.00  0.00    +0.196 C 
ATOM     13 CL   UNL     1       2.097   4.223  -1.388  0.00  0.00    -0.107 Cl
BRANCH  12  14
ATOM     14  C   UNL     1       1.750   4.104   1.295  0.00  0.00    +0.233 C 
ATOM     15  O   UNL     1       2.781   3.620   1.711  0.00  0.00    -0.274 OA
ATOM     16  N   UNL     1       1.144   5.093   1.981  0.00  0.00    -0.328 N 
ATOM     17  H   UNL     1       0.320   5.480   1.648  0.00  0.00    +0.145 HD
ATOM     18  H   UNL     1       1.533   5.419   2.808  0.00  0.00    +0.145 HD
ENDBRANCH  12  14
ENDBRANCH   2  12
TORSDOF 2
