REMARK  Name = ZINC15974910
REMARK  2 active torsions:
REMARK  status: ('A' for Active; 'I' for Inactive)
REMARK    1  A    between atoms: C_3  and  C_9
REMARK    2  A    between atoms: N_18  and  C_21
REMARK                            x       y       z     vdW  Elec       q    Type
REMARK                         _______ _______ _______ _____ _____    ______ ____
ROOT
ATOM      1  C   UNL     1       3.655   2.162  -0.022  0.00  0.00    +0.081 C 
ATOM      2  N   UNL     1       3.773   3.542  -0.108  0.00  0.00    -0.264 N 
ATOM      3  O   UNL     1       5.094   3.794  -0.628  0.00  0.00    -0.256 OA
ATOM      4  C   UNL     1       5.846   2.824   0.118  0.00  0.00    +0.272 C 
ATOM      5  C   UNL     1       4.896   1.618   0.060  0.00  0.00    +0.081 C 
ATOM      6  H   UNL     1       3.104   4.202   0.132  0.00  0.00    +0.194 HD
ATOM      7  C   UNL     1       5.784   0.538   0.020  0.00  0.00    +0.258 C 
ATOM      8  O   UNL     1       5.542  -0.588   0.420  0.00  0.00    -0.269 OA
ATOM      9  N   UNL     1       6.948   0.937  -0.529  0.00  0.00    -0.203 N 
ATOM     10  C   UNL     1       7.069   2.298  -0.581  0.00  0.00    +0.263 C 
ATOM     11  O   UNL     1       7.964   2.949  -1.075  0.00  0.00    -0.271 OA
ENDROOT
BRANCH   1  14
ATOM     12  C   UNL     1       0.902  -0.155   1.046  0.00  0.00    +0.021 A 
ATOM     13  C   UNL     1       2.089   0.545   1.044  0.00  0.00    +0.013 A 
ATOM     14  C   UNL     1       2.385   1.409  -0.013  0.00  0.00    +0.019 A 
ATOM     15  C   UNL     1       1.473   1.558  -1.063  0.00  0.00    +0.052 A 
ATOM     16  C   UNL     1       0.288   0.851  -1.048  0.00  0.00    +0.040 A 
ATOM     17  C   UNL     1       0.002  -0.004   0.004  0.00  0.00    +0.042 A 
ATOM     18 CL   UNL     1      -1.491  -0.890   0.015  0.00  0.00    -0.083 Cl
ATOM     19 CL   UNL     1       1.831   2.630  -2.381  0.00  0.00    -0.083 Cl
ENDBRANCH   1  14
BRANCH   9  20
ATOM     20  C   UNL     1       7.932   0.054  -0.995  0.00  0.00    +0.063 A 
ATOM     21  C   UNL     1       7.911  -0.377  -2.314  0.00  0.00    +0.027 A 
ATOM     22  C   UNL     1       8.882  -1.246  -2.772  0.00  0.00    +0.022 A 
ATOM     23  C   UNL     1       9.876  -1.688  -1.916  0.00  0.00    +0.042 A 
ATOM     24  C   UNL     1       9.900  -1.260  -0.600  0.00  0.00    +0.042 A 
ATOM     25  C   UNL     1       8.934  -0.385  -0.139  0.00  0.00    +0.064 A 
ATOM     26 CL   UNL     1       8.969   0.157   1.509  0.00  0.00    -0.082 Cl
ATOM     27 CL   UNL     1      11.094  -2.782  -2.494  0.00  0.00    -0.083 Cl
ENDBRANCH   9  20
TORSDOF 2
