REMARK  Name = ZINC49234575
REMARK  7 active torsions:
REMARK  status: ('A' for Active; 'I' for Inactive)
REMARK    1  A    between atoms: C_1  and  C_2
REMARK    2  A    between atoms: C_2  and  C_4
REMARK    3  A    between atoms: C_2  and  N_10
REMARK    4  A    between atoms: C_4  and  N_5
REMARK    5  A    between atoms: N_10  and  S_11
REMARK    6  A    between atoms: S_11  and  C_14
REMARK    7  A    between atoms: C_19  and  N_20
REMARK                            x       y       z     vdW  Elec       q    Type
REMARK                         _______ _______ _______ _____ _____    ______ ____
ROOT
ATOM      1  S   UNL     1      -0.183  -0.954  -2.444  0.00  0.00    +0.060 S 
ATOM      2  O   UNL     1       0.645  -1.536  -3.442  0.00  0.00    -0.153 OA
ATOM      3  O   UNL     1      -1.209  -1.684  -1.785  0.00  0.00    -0.153 OA
ENDROOT
BRANCH   1   4
ATOM      4  C   UNL     1      -0.956   0.445  -3.184  0.00  0.00    +0.126 A 
ATOM      5  C   UNL     1      -2.324   0.613  -3.084  0.00  0.00    +0.033 A 
ATOM      6  C   UNL     1      -2.932   1.710  -3.664  0.00  0.00    +0.040 A 
ATOM      7  C   UNL     1      -2.173   2.645  -4.348  0.00  0.00    +0.125 A 
ATOM      8  C   UNL     1      -0.803   2.482  -4.452  0.00  0.00    +0.063 A 
ATOM      9  C   UNL     1      -0.190   1.383  -3.864  0.00  0.00    +0.054 A 
ATOM     10  F   UNL     1      -2.771   3.717  -4.914  0.00  0.00    -0.205 F 
BRANCH   9  11
ATOM     11  N   UNL     1       1.193   1.219  -3.962  0.00  0.00    -0.356 N 
ATOM     12  H   UNL     1       1.626   0.476  -3.513  0.00  0.00    +0.142 HD
ATOM     13  H   UNL     1       1.721   1.847  -4.479  0.00  0.00    +0.142 HD
ENDBRANCH   9  11
ENDBRANCH   1   4
BRANCH   1  14
ATOM     14  N   UNL     1       0.828  -0.387  -1.262  0.00  0.00    -0.185 NA
ATOM     15  H   UNL     1       1.787  -0.514  -1.341  0.00  0.00    +0.148 HD
BRANCH  14  17
ATOM     16  C   UNL     1       0.730   1.769  -0.110  0.00  0.00    +0.027 C 
ATOM     17  C   UNL     1       0.276   0.308  -0.096  0.00  0.00    +0.093 C 
BRANCH  17  18
ATOM     18  C   UNL     1       0.773  -0.368   1.183  0.00  0.00    +0.142 C 
BRANCH  18  19
ATOM     19  N   UNL     1       0.239  -1.731   1.254  0.00  0.00    -0.335 N 
ATOM     20  C   UNL     1      -0.943  -2.111   1.830  0.00  0.00    +0.107 A 
ATOM     21  C   UNL     1      -1.043  -3.445   1.672  0.00  0.00    +0.130 A 
ATOM     22  N   UNL     1       0.049  -3.867   1.017  0.00  0.00    -0.244 NA
ATOM     23  C   UNL     1       0.819  -2.845   0.759  0.00  0.00    +0.199 A 
ENDBRANCH  18  19
ENDBRANCH  17  18
ENDBRANCH  14  17
ENDBRANCH   1  14
TORSDOF 6
