REMARK  Name = ZINC16371301
REMARK  9 active torsions:
REMARK  status: ('A' for Active; 'I' for Inactive)
REMARK    1  A    between atoms: C_1  and  C_2
REMARK    2  A    between atoms: C_2  and  C_32
REMARK    3  A    between atoms: C_13  and  C_15
REMARK    4  A    between atoms: C_15  and  S_16
REMARK    5  A    between atoms: S_16  and  C_17
REMARK    6  A    between atoms: C_20  and  C_23
REMARK    7  A    between atoms: N_21  and  N_22
REMARK    8  A    between atoms: C_23  and  O_24
REMARK    9  A    between atoms: O_24  and  C_25
REMARK                            x       y       z     vdW  Elec       q    Type
REMARK                         _______ _______ _______ _____ _____    ______ ____
ROOT
ATOM      1  S   UNL     1      -4.365  -0.325  -0.561  0.00  0.00    -0.075 S 
ENDROOT
BRANCH   1   2
ATOM      2  C   UNL     1      -4.205  -1.917  -1.298  0.00  0.00    +0.209 A 
ATOM      3  N   UNL     1      -3.083  -2.550  -1.552  0.00  0.00    -0.121 NA
ATOM      4  N   UNL     1      -3.337  -3.689  -2.091  0.00  0.00    -0.128 NA
ATOM      5  C   UNL     1      -4.624  -3.847  -2.219  0.00  0.00    +0.189 A 
ATOM      6  N   UNL     1      -5.223  -2.724  -1.719  0.00  0.00    -0.225 N 
BRANCH   6   7
ATOM      7  N   UNL     1      -6.562  -2.462  -1.653  0.00  0.00    -0.295 N 
ATOM      8  H   UNL     1      -6.881  -1.995  -2.489  0.00  0.00    +0.163 HD
ATOM      9  H   UNL     1      -7.088  -3.308  -1.490  0.00  0.00    +0.163 HD
ENDBRANCH   6   7
BRANCH   5  10
ATOM     10  C   UNL     1      -5.323  -5.044  -2.808  0.00  0.00    +0.306 C 
BRANCH  10  11
ATOM     11  O   UNL     1      -5.492  -4.853  -4.214  0.00  0.00    -0.484 OA
BRANCH  11  12
ATOM     12  C   UNL     1      -6.111  -5.848  -4.903  0.00  0.00    +0.121 A 
ATOM     13  C   UNL     1      -6.540  -6.988  -4.240  0.00  0.00    +0.048 A 
ATOM     14  C   UNL     1      -7.174  -7.997  -4.940  0.00  0.00    +0.042 A 
ATOM     15  C   UNL     1      -7.370  -7.875  -6.305  0.00  0.00    +0.124 A 
ATOM     16  C   UNL     1      -6.936  -6.740  -6.970  0.00  0.00    +0.042 A 
ATOM     17  C   UNL     1      -6.308  -5.728  -6.271  0.00  0.00    +0.048 A 
ATOM     18  F   UNL     1      -7.985  -8.864  -6.989  0.00  0.00    -0.205 F 
ENDBRANCH  11  12
ENDBRANCH  10  11
ENDBRANCH   5  10
ENDBRANCH   1   2
BRANCH   1  19
ATOM     19  C   UNL     1      -2.620   0.077  -0.299  0.00  0.00    +0.173 C 
BRANCH  19  32
ATOM     20  C   UNL     1       0.455   1.752  -1.208  0.00  0.00    +0.042 C 
ATOM     21  C   UNL     1      -0.066   1.291   0.155  0.00  0.00    +0.113 C 
ATOM     22  C   UNL     1       0.968   1.578   1.214  0.00  0.00    +0.241 C 
ATOM     23  O   UNL     1       1.814   0.746   1.466  0.00  0.00    -0.273 OA
ATOM     24  N   UNL     1       0.964   2.747   1.882  0.00  0.00    -0.282 N 
ATOM     25  C   UNL     1      -0.030   3.702   1.645  0.00  0.00    +0.055 A 
ATOM     26  C   UNL     1       0.113   5.003   2.102  0.00  0.00    +0.025 A 
ATOM     27  C   UNL     1      -0.887   5.929   1.866  0.00  0.00    +0.002 A 
ATOM     28  C   UNL     1      -2.029   5.564   1.177  0.00  0.00    +0.002 A 
ATOM     29  C   UNL     1      -2.179   4.269   0.715  0.00  0.00    +0.025 A 
ATOM     30  C   UNL     1      -1.182   3.338   0.946  0.00  0.00    +0.059 A 
ATOM     31  N   UNL     1      -1.301   2.019   0.482  0.00  0.00    -0.255 N 
ATOM     32  C   UNL     1      -2.509   1.437   0.341  0.00  0.00    +0.231 C 
ATOM     33  O   UNL     1      -3.506   2.008   0.730  0.00  0.00    -0.274 OA
ATOM     34  C   UNL     1      -0.351  -0.212   0.113  0.00  0.00    +0.042 C 
ATOM     35  H   UNL     1       1.658   2.929   2.535  0.00  0.00    +0.155 HD
ENDBRANCH  19  32
ENDBRANCH   1  19
TORSDOF 7
