REMARK  Name = ZINC62811458
REMARK  5 active torsions:
REMARK  status: ('A' for Active; 'I' for Inactive)
REMARK    1  A    between atoms: C_2  and  N_23
REMARK    2  A    between atoms: C_3  and  C_7
REMARK    3  A    between atoms: N_9  and  C_10
REMARK    4  A    between atoms: N_9  and  C_17
REMARK    5  A    between atoms: C_10  and  C_11
REMARK                            x       y       z     vdW  Elec       q    Type
REMARK                         _______ _______ _______ _____ _____    ______ ____
ROOT
ATOM      1  C   UNL     1       3.614   0.514   0.141  0.00  0.00    +0.269 C 
ATOM      2  O   UNL     1       2.408   0.672   0.158  0.00  0.00    -0.268 OA
ATOM      3  N   UNL     1       4.131  -0.698  -0.143  0.00  0.00    -0.290 N 
ENDROOT
BRANCH   1   6
ATOM      4  C   UNL     1       5.281   3.677   0.855  0.00  0.00    +0.128 A 
ATOM      5  C   UNL     1       4.126   3.002   0.611  0.00  0.00    +0.075 A 
ATOM      6  C   UNL     1       4.510   1.649   0.430  0.00  0.00    +0.167 A 
ATOM      7  N   UNL     1       5.821   1.596   0.572  0.00  0.00    -0.167 NA
ATOM      8  N   UNL     1       6.289   2.767   0.819  0.00  0.00    -0.282 N 
ATOM      9  H   UNL     1       7.226   2.971   0.961  0.00  0.00    +0.188 HD
BRANCH   5  10
ATOM     10  N   UNL     1       2.829   3.533   0.550  0.00  0.00    -0.355 N 
ATOM     11  H   UNL     1       2.686   4.481   0.691  0.00  0.00    +0.142 HD
ATOM     12  H   UNL     1       2.075   2.950   0.368  0.00  0.00    +0.142 HD
ENDBRANCH   5  10
ENDBRANCH   1   6
BRANCH   3  13
ATOM     13  C   UNL     1       3.244  -1.807  -0.502  0.00  0.00    +0.087 C 
ATOM     14  C   UNL     1       2.476  -2.243   0.745  0.00  0.00    +0.034 C 
ATOM     15  C   UNL     1       1.144  -1.451   0.863  0.00  0.00    +0.071 C 
ATOM     16  S   UNL     1       0.647  -1.420  -0.916  0.00  0.00    -0.159 S 
ATOM     17  C   UNL     1       2.328  -1.353  -1.656  0.00  0.00    +0.091 C 
ENDBRANCH   3  13
BRANCH   3  18
ATOM     18  C   UNL     1       5.580  -0.906  -0.094  0.00  0.00    +0.140 C 
BRANCH  18  19
ATOM     19  C   UNL     1       6.006  -1.181   1.350  0.00  0.00    +0.136 C 
ATOM     20  C   UNL     1       7.545  -1.282   1.431  0.00  0.00    +0.035 C 
ATOM     21  C   UNL     1       7.746  -2.443   2.443  0.00  0.00    +0.031 C 
ATOM     22  C   UNL     1       6.533  -3.344   2.101  0.00  0.00    +0.160 C 
ATOM     23  O   UNL     1       5.465  -2.433   1.786  0.00  0.00    -0.375 OA
ENDBRANCH  18  19
ENDBRANCH   3  18
TORSDOF 5
