REMARK  Name = ZINC62367764
REMARK  11 active torsions:
REMARK  status: ('A' for Active; 'I' for Inactive)
REMARK    1  A    between atoms: C_1  and  C_2
REMARK    2  A    between atoms: C_2  and  C_3
REMARK    3  A    between atoms: C_3  and  C_4
REMARK    4  A    between atoms: C_3  and  N_5
REMARK    5  A    between atoms: C_6  and  C_8
REMARK    6  A    between atoms: C_8  and  C_9
REMARK    7  A    between atoms: C_8  and  N_10
REMARK    8  A    between atoms: N_13  and  C_14
REMARK    9  A    between atoms: C_15  and  C_27
REMARK   10  A    between atoms: N_16  and  C_26
REMARK   11  A    between atoms: N_17  and  C_20
REMARK                            x       y       z     vdW  Elec       q    Type
REMARK                         _______ _______ _______ _____ _____    ______ ____
ROOT
ATOM      1  N   UNL     1       4.702   1.662  -4.508  0.00  0.00    -0.288 N 
ATOM      2  C   UNL     1       5.978   1.232  -4.463  0.00  0.00    +0.305 C 
ATOM      3  O   UNL     1       6.525   1.062  -3.390  0.00  0.00    -0.252 OA
ATOM      4  N   UNL     1       6.649   0.991  -5.607  0.00  0.00    -0.264 N 
ATOM      5  H   UNL     1       4.266   1.797  -5.364  0.00  0.00    +0.151 HD
ATOM      6  H   UNL     1       6.189   1.044  -6.459  0.00  0.00    +0.157 HD
ENDROOT
BRANCH   4   7
ATOM      7  C   UNL     1       8.020   0.662  -5.564  0.00  0.00    +0.122 A 
ATOM      8  C   UNL     1       8.588  -0.442  -6.094  0.00  0.00    +0.059 A 
ATOM      9  N   UNL     1       9.936  -0.397  -5.845  0.00  0.00    -0.282 N 
ATOM     10  N   UNL     1      10.210   0.780  -5.135  0.00  0.00    -0.216 N 
ATOM     11  C   UNL     1       9.045   1.437  -4.963  0.00  0.00    +0.293 A 
ATOM     12  O   UNL     1       8.899   2.503  -4.392  0.00  0.00    -0.264 OA
ATOM     13  C   UNL     1      10.920  -1.404  -6.250  0.00  0.00    +0.171 C 
ATOM     14  C   UNL     1       7.864  -1.538  -6.833  0.00  0.00    +0.067 C 
BRANCH  10  15
ATOM     15  C   UNL     1      11.467   1.200  -4.689  0.00  0.00    +0.067 A 
ATOM     16  C   UNL     1      11.631   1.637  -3.381  0.00  0.00    +0.028 A 
ATOM     17  C   UNL     1      12.874   2.051  -2.944  0.00  0.00    +0.002 A 
ATOM     18  C   UNL     1      13.954   2.031  -3.807  0.00  0.00    +0.000 A 
ATOM     19  C   UNL     1      13.794   1.597  -5.110  0.00  0.00    +0.002 A 
ATOM     20  C   UNL     1      12.555   1.176  -5.552  0.00  0.00    +0.028 A 
ENDBRANCH  10  15
ENDBRANCH   4   7
BRANCH   1  21
ATOM     21  C   UNL     1       3.972   1.924  -3.265  0.00  0.00    +0.157 C 
ATOM     22  C   UNL     1       4.278   3.343  -2.784  0.00  0.00    +0.038 C 
BRANCH  21  24
ATOM     23  N   UNL     1       1.619   1.983  -2.505  0.00  0.00    -0.311 N 
ATOM     24  C   UNL     1       2.492   1.785  -3.512  0.00  0.00    +0.233 C 
ATOM     25  O   UNL     1       2.086   1.496  -4.618  0.00  0.00    -0.274 OA
ATOM     26  H   UNL     1       1.944   2.214  -1.620  0.00  0.00    +0.149 HD
BRANCH  23  27
ATOM     27  C   UNL     1       0.180   1.848  -2.745  0.00  0.00    +0.070 C 
ATOM     28  C   UNL     1      -0.224   0.379  -2.611  0.00  0.00    +0.028 C 
BRANCH  27  30
ATOM     29  C   UNL     1      -0.279   4.166  -1.934  0.00  0.00    +0.005 C 
ATOM     30  C   UNL     1      -0.588   2.683  -1.719  0.00  0.00    +0.018 C 
ENDBRANCH  27  30
ENDBRANCH  23  27
ENDBRANCH  21  24
ENDBRANCH   1  21
TORSDOF 6
