REMARK  Name = ZINC11635079
REMARK  5 active torsions:
REMARK  status: ('A' for Active; 'I' for Inactive)
REMARK    1  A    between atoms: C_7  and  S_12
REMARK    2  A    between atoms: S_12  and  N_15
REMARK    3  A    between atoms: N_15  and  C_16
REMARK    4  A    between atoms: C_19  and  C_23
REMARK    5  A    between atoms: C_20  and  O_22
REMARK                            x       y       z     vdW  Elec       q    Type
REMARK                         _______ _______ _______ _____ _____    ______ ____
ROOT
ATOM      1  S   UNL     1       3.614   3.480  -1.004  0.00  0.00    +0.073 S 
ATOM      2  O   UNL     1       4.895   4.090  -0.933  0.00  0.00    -0.150 OA
ATOM      3  O   UNL     1       3.065   3.001  -2.224  0.00  0.00    -0.150 OA
ENDROOT
BRANCH   1  10
ATOM      4  C   UNL     1      -0.699   2.768  -0.541  0.00  0.00    +0.001 A 
ATOM      5  C   UNL     1      -1.594   3.706  -0.029  0.00  0.00    +0.001 A 
ATOM      6  C   UNL     1      -1.169   4.935   0.370  0.00  0.00    +0.009 A 
ATOM      7  C   UNL     1       0.192   5.269   0.266  0.00  0.00    -0.002 A 
ATOM      8  C   UNL     1       1.102   4.317  -0.260  0.00  0.00    +0.010 A 
ATOM      9  C   UNL     1       0.626   3.056  -0.657  0.00  0.00    +0.010 A 
ATOM     10  C   UNL     1       2.463   4.648  -0.359  0.00  0.00    +0.116 A 
ATOM     11  C   UNL     1       2.889   5.878   0.040  0.00  0.00    +0.030 A 
ATOM     12  C   UNL     1       1.995   6.816   0.552  0.00  0.00    +0.018 A 
ATOM     13  C   UNL     1       0.668   6.529   0.668  0.00  0.00    +0.026 A 
ATOM     14 BR   UNL     1      -0.526   7.818   1.366  0.00  0.00    -0.050 Br
ENDBRANCH   1  10
BRANCH   1  15
ATOM     15  N   UNL     1       3.643   2.194   0.039  0.00  0.00    -0.216 N 
ATOM     16  H   UNL     1       3.383   1.312  -0.271  0.00  0.00    +0.174 HD
BRANCH  15  17
ATOM     17  C   UNL     1       4.039   2.378   1.359  0.00  0.00    +0.052 A 
ATOM     18  C   UNL     1       5.184   3.120   1.643  0.00  0.00    +0.025 A 
ATOM     19  C   UNL     1       5.582   3.307   2.935  0.00  0.00    +0.020 A 
ATOM     20  C   UNL     1       4.840   2.754   3.985  0.00  0.00    +0.105 A 
ATOM     21  C   UNL     1       3.684   2.007   3.704  0.00  0.00    +0.133 A 
ATOM     22  C   UNL     1       3.291   1.823   2.390  0.00  0.00    +0.070 A 
BRANCH  20  23
ATOM     23  C   UNL     1       5.267   2.956   5.378  0.00  0.00    +0.390 C 
ATOM     24  O   UNL     1       4.621   2.475   6.288  0.00  0.00    -0.240 OA
ATOM     25  O   UNL     1       6.376   3.674   5.645  0.00  0.00    -0.240 OA
ENDBRANCH  20  23
BRANCH  21  26
ATOM     26  O   UNL     1       2.959   1.467   4.715  0.00  0.00    -0.506 OA
ATOM     27  H   UNL     1       2.262   2.046   5.051  0.00  0.00    +0.292 HD
ENDBRANCH  21  26
ENDBRANCH  15  17
ENDBRANCH   1  15
TORSDOF 5
