REMARK  Name = ZINC21047740
REMARK  2 active torsions:
REMARK  status: ('A' for Active; 'I' for Inactive)
REMARK    1  A    between atoms: C_11  and  N_13
REMARK    2  A    between atoms: N_13  and  C_14
REMARK                            x       y       z     vdW  Elec       q    Type
REMARK                         _______ _______ _______ _____ _____    ______ ____
ROOT
ATOM      1  C   UNL     1      -0.017   1.379   0.010  0.00  0.00    +0.016 A 
ATOM      2  C   UNL     1       1.175   2.084   0.002  0.00  0.00    +0.009 A 
ATOM      3  C   UNL     1       2.373   1.407  -0.013  0.00  0.00    +0.003 A 
ATOM      4  C   UNL     1       2.405   0.018  -0.021  0.00  0.00    +0.040 A 
ATOM      5  C   UNL     1       1.203  -0.685  -0.013  0.00  0.00    +0.039 A 
ATOM      6  C   UNL     1       0.002  -0.004   0.002  0.00  0.00    +0.020 A 
ATOM      7 BR   UNL     1      -1.625  -0.967   0.013  0.00  0.00    -0.050 Br
ATOM      8  N   UNL     1       3.726  -0.434  -0.036  0.00  0.00    -0.283 N 
ATOM      9  C   UNL     1       4.609   0.578  -0.039  0.00  0.00    +0.242 C 
ATOM     10  O   UNL     1       5.818   0.479  -0.051  0.00  0.00    -0.273 OA
ATOM     11  C   UNL     1       3.813   1.866  -0.024  0.00  0.00    +0.190 C 
ATOM     12  H   UNL     1       3.977  -1.371  -0.043  0.00  0.00    +0.155 HD
ENDROOT
BRANCH  11  13
ATOM     13  N   UNL     1       4.091   2.655  -1.227  0.00  0.00    -0.329 N 
ATOM     14  H   UNL     1       3.555   2.526  -2.026  0.00  0.00    +0.147 HD
BRANCH  13  15
ATOM     15  C   UNL     1       5.127   3.591  -1.224  0.00  0.00    +0.031 A 
ATOM     16  C   UNL     1       5.898   3.772  -0.083  0.00  0.00    +0.043 A 
ATOM     17  C   UNL     1       6.923   4.699  -0.083  0.00  0.00    +0.044 A 
ATOM     18  C   UNL     1       7.181   5.448  -1.218  0.00  0.00    +0.040 A 
ATOM     19  C   UNL     1       6.414   5.271  -2.356  0.00  0.00    +0.044 A 
ATOM     20  C   UNL     1       5.391   4.340  -2.363  0.00  0.00    +0.043 A 
ATOM     21 CL   UNL     1       6.740   6.212  -3.777  0.00  0.00    -0.083 Cl
ATOM     22 CL   UNL     1       7.887   4.926   1.343  0.00  0.00    -0.083 Cl
ENDBRANCH  13  15
ENDBRANCH  11  13
TORSDOF 2
