REMARK  Name = ZINC05102068
REMARK  6 active torsions:
REMARK  status: ('A' for Active; 'I' for Inactive)
REMARK    1  A    between atoms: C_1  and  N_2
REMARK    2  A    between atoms: C_6  and  C_7
REMARK    3  A    between atoms: C_12  and  O_13
REMARK    4  A    between atoms: O_13  and  C_14
REMARK    5  A    between atoms: C_14  and  C_15
REMARK    6  A    between atoms: N_20  and  C_23
REMARK                            x       y       z     vdW  Elec       q    Type
REMARK                         _______ _______ _______ _____ _____    ______ ____
ROOT
ATOM      1  C   UNL     1      -3.599  -5.062  -0.421  0.00  0.00    +0.143 C 
ATOM      2  N   UNL     1      -2.377  -4.260  -0.314  0.00  0.00    -0.225 N 
ATOM      3  C   UNL     1      -2.476  -2.919  -0.208  0.00  0.00    +0.259 C 
ATOM      4  O   UNL     1      -3.562  -2.371  -0.200  0.00  0.00    -0.269 OA
ATOM      5  C   UNL     1      -1.229  -2.135  -0.102  0.00  0.00    +0.100 C 
ATOM      6  C   UNL     1      -1.251  -0.758   0.009  0.00  0.00    +0.029 C 
ATOM      7  C   UNL     1       0.041  -2.887  -0.128  0.00  0.00    +0.259 C 
ATOM      8  O   UNL     1       1.109  -2.311  -0.051  0.00  0.00    -0.269 OA
ATOM      9  N   UNL     1      -0.017  -4.230  -0.234  0.00  0.00    -0.225 N 
ATOM     10  C   UNL     1      -1.187  -4.877  -0.326  0.00  0.00    +0.317 C 
ATOM     11  O   UNL     1      -1.168  -6.088  -0.424  0.00  0.00    -0.252 OA
ATOM     12  C   UNL     1       1.230  -5.000  -0.256  0.00  0.00    +0.143 C 
ENDROOT
BRANCH   6  13
ATOM     13  C   UNL     1      -0.020  -0.030   0.316  0.00  0.00    +0.019 A 
ATOM     14  C   UNL     1       0.795  -0.438   1.383  0.00  0.00    +0.026 A 
ATOM     15  C   UNL     1       1.952   0.253   1.664  0.00  0.00    +0.019 A 
ATOM     16  C   UNL     1       2.317   1.351   0.898  0.00  0.00    +0.019 A 
ATOM     17  C   UNL     1       1.525   1.765  -0.155  0.00  0.00    +0.047 A 
ATOM     18  C   UNL     1       0.355   1.085  -0.456  0.00  0.00    +0.128 A 
ATOM     19 BR   UNL     1       3.050  -0.297   3.102  0.00  0.00    -0.050 Br
BRANCH  18  20
ATOM     20  O   UNL     1      -0.419   1.488  -1.494  0.00  0.00    -0.480 OA
BRANCH  20  21
ATOM     21  C   UNL     1       0.027   2.627  -2.232  0.00  0.00    +0.353 C 
BRANCH  21  22
ATOM     22  C   UNL     1      -0.954   2.924  -3.338  0.00  0.00    +0.393 C 
ATOM     23  O   UNL     1      -1.933   2.231  -3.479  0.00  0.00    -0.243 OA
ATOM     24  O   UNL     1      -0.738   3.958  -4.166  0.00  0.00    -0.243 OA
ENDBRANCH  21  22
ENDBRANCH  20  21
ENDBRANCH  18  20
ENDBRANCH   6  13
TORSDOF 4
