REMARK  Name = ZINC63746645
REMARK  7 active torsions:
REMARK  status: ('A' for Active; 'I' for Inactive)
REMARK    1  A    between atoms: C_1  and  C_2
REMARK    2  A    between atoms: C_5  and  C_8
REMARK    3  A    between atoms: C_8  and  N_9
REMARK    4  A    between atoms: N_12  and  C_13
REMARK    5  A    between atoms: C_15  and  C_37
REMARK    6  A    between atoms: C_18  and  C_31
REMARK    7  A    between atoms: C_19  and  C_23
REMARK                            x       y       z     vdW  Elec       q    Type
REMARK                         _______ _______ _______ _____ _____    ______ ____
ROOT
ATOM      1  C   UNL     1       3.448  -7.386  -0.094  0.00  0.00    +0.059 A 
ATOM      2  C   UNL     1       2.276  -8.077  -0.090  0.00  0.00    +0.028 A 
ATOM      3  C   UNL     1       2.242  -9.468   0.039  0.00  0.00    -0.048 A 
ATOM      4  C   UNL     1       3.365 -10.213   0.167  0.00  0.00    +0.013 A 
ATOM      5  C   UNL     1       4.638  -9.593   0.175  0.00  0.00    +0.006 A 
ATOM      6  C   UNL     1       5.923 -10.092   0.289  0.00  0.00    -0.000 C 
ATOM      7  C   UNL     1       6.838  -8.889   0.223  0.00  0.00    +0.198 C 
ATOM      8  N   UNL     1       5.961  -7.723   0.067  0.00  0.00    -0.368 N 
ATOM      9  C   UNL     1       4.713  -8.125   0.035  0.00  0.00    +0.065 A 
ATOM     10  C   UNL     1       0.906 -10.165   0.035  0.00  0.00    +0.044 C 
ATOM     11  H   UNL     1       6.258  -6.803  -0.003  0.00  0.00    +0.161 HD
ENDROOT
BRANCH   7  12
ATOM     12  C   UNL     1       7.764  -9.005  -0.960  0.00  0.00    +0.243 C 
ATOM     13  O   UNL     1       7.418  -8.587  -2.045  0.00  0.00    -0.273 OA
ATOM     14  N   UNL     1       8.977  -9.573  -0.813  0.00  0.00    -0.295 N 
ATOM     15  C   UNL     1       9.373 -10.195   0.461  0.00  0.00    +0.136 C 
ATOM     16  C   UNL     1       9.906 -11.602   0.166  0.00  0.00    +0.179 C 
ATOM     17  O   UNL     1      10.917 -11.521  -0.842  0.00  0.00    -0.377 OA
ATOM     18  C   UNL     1      10.451 -11.026  -2.099  0.00  0.00    +0.179 C 
ATOM     19  C   UNL     1       9.943  -9.595  -1.923  0.00  0.00    +0.136 C 
ENDBRANCH   7  12
BRANCH   1  23
ATOM     20  N   UNL     1       2.362  -4.024  -0.845  0.00  0.00    -0.295 N 
ATOM     21  C   UNL     1       2.412  -5.370  -0.816  0.00  0.00    +0.304 C 
ATOM     22  O   UNL     1       1.520  -6.023  -1.323  0.00  0.00    -0.252 OA
ATOM     23  N   UNL     1       3.450  -5.994  -0.224  0.00  0.00    -0.268 N 
ATOM     24  H   UNL     1       3.073  -3.503  -0.440  0.00  0.00    +0.151 HD
ATOM     25  H   UNL     1       4.199  -5.476   0.112  0.00  0.00    +0.156 HD
BRANCH  20  26
ATOM     26  C   UNL     1       1.233  -3.347  -1.488  0.00  0.00    +0.141 C 
BRANCH  26  31
ATOM     27  C   UNL     1       1.936   2.375  -1.090  0.00  0.00    +0.044 C 
ATOM     28  C   UNL     1       1.753   0.883  -1.194  0.00  0.00    -0.050 A 
ATOM     29  C   UNL     1       2.262   0.198  -2.281  0.00  0.00    +0.003 A 
ATOM     30  C   UNL     1       2.094  -1.171  -2.376  0.00  0.00    +0.005 A 
ATOM     31  C   UNL     1       1.417  -1.855  -1.384  0.00  0.00    -0.030 A 
ATOM     32  C   UNL     1       0.909  -1.170  -0.296  0.00  0.00    +0.005 A 
ATOM     33  C   UNL     1       1.080   0.199  -0.199  0.00  0.00    +0.003 A 
ENDBRANCH  26  31
ENDBRANCH  20  26
ENDBRANCH   1  23
BRANCH   6  34
ATOM     34  C   UNL     1       6.317 -11.495   0.442  0.00  0.00    -0.019 A 
ATOM     35  C   UNL     1       6.895 -11.938   1.639  0.00  0.00    +0.008 A 
ATOM     36  C   UNL     1       7.262 -13.260   1.774  0.00  0.00    +0.001 A 
ATOM     37  C   UNL     1       7.061 -14.148   0.731  0.00  0.00    +0.000 A 
ATOM     38  C   UNL     1       6.491 -13.719  -0.456  0.00  0.00    +0.001 A 
ATOM     39  C   UNL     1       6.112 -12.403  -0.607  0.00  0.00    +0.008 A 
ENDBRANCH   6  34
TORSDOF 5
