REMARK  Name = ZINC39596173
REMARK  10 active torsions:
REMARK  status: ('A' for Active; 'I' for Inactive)
REMARK    1  A    between atoms: C_1  and  C_2
REMARK    2  A    between atoms: C_2  and  S_3
REMARK    3  A    between atoms: S_3  and  C_4
REMARK    4  A    between atoms: C_5  and  C_10
REMARK    5  A    between atoms: C_14  and  C_23
REMARK    6  A    between atoms: N_25  and  C_26
REMARK    7  A    between atoms: C_26  and  C_27
REMARK    8  A    between atoms: C_27  and  C_29
REMARK    9  A    between atoms: C_27  and  O_30
REMARK   10  A    between atoms: O_30  and  C_31
REMARK                            x       y       z     vdW  Elec       q    Type
REMARK                         _______ _______ _______ _____ _____    ______ ____
ROOT
ATOM      1  C   UNL     1       0.949  -1.618  -4.129  0.00  0.00    +0.249 C 
ATOM      2  O   UNL     1       0.773  -0.462  -4.464  0.00  0.00    -0.270 OA
ATOM      3  N   UNL     1       1.750  -2.417  -4.862  0.00  0.00    -0.296 N 
ATOM      4  C   UNL     1       2.002  -3.866  -4.676  0.00  0.00    +0.121 C 
ATOM      5  C   UNL     1       2.059  -4.439  -6.110  0.00  0.00    +0.100 C 
ATOM      6  C   UNL     1       2.437  -3.241  -6.997  0.00  0.00    -0.004 C 
ATOM      7  C   UNL     1       2.570  -2.048  -6.040  0.00  0.00    +0.115 C 
ATOM      8  C   UNL     1       1.335  -2.970  -8.018  0.00  0.00    -0.010 C 
ATOM      9  C   UNL     1       1.760  -1.812  -8.924  0.00  0.00    -0.082 C 
ATOM     10  N   UNL     1       3.013  -2.156  -9.607  0.00  0.00    +0.379 N 
ATOM     11  C   UNL     1       4.089  -2.324  -8.623  0.00  0.00    -0.082 C 
ATOM     12  C   UNL     1       3.764  -3.504  -7.704  0.00  0.00    -0.010 C 
ATOM     13  H   UNL     1       2.890  -3.017 -10.119  0.00  0.00    -0.086 HD
ATOM     14  H   UNL     1       3.258  -1.417 -10.249  0.00  0.00    -0.086 HD
ENDROOT
BRANCH   1  16
ATOM     15  C   UNL     1      -1.010  -1.728  -2.577  0.00  0.00    +0.109 A 
ATOM     16  C   UNL     1       0.288  -2.144  -2.922  0.00  0.00    +0.069 A 
ATOM     17  C   UNL     1       0.940  -3.069  -2.098  0.00  0.00    +0.017 A 
ATOM     18  C   UNL     1       0.276  -3.533  -0.976  0.00  0.00    +0.020 A 
ATOM     19  C   UNL     1      -1.001  -3.076  -0.702  0.00  0.00    +0.112 A 
ATOM     20  N   UNL     1      -1.597  -2.201  -1.488  0.00  0.00    -0.248 NA
BRANCH  15  21
ATOM     21  S   UNL     1      -1.857  -0.564  -3.594  0.00  0.00    -0.105 S 
BRANCH  21  23
ATOM     22  C   UNL     1      -4.298   0.668  -3.552  0.00  0.00    +0.015 C 
ATOM     23  C   UNL     1      -3.452  -0.333  -2.762  0.00  0.00    +0.072 C 
ENDBRANCH  21  23
ENDBRANCH  15  21
ENDBRANCH   1  16
BRANCH   5  24
ATOM     24  C   UNL     1       0.713  -4.987  -6.510  0.00  0.00    +0.218 C 
ATOM     25  O   UNL     1      -0.300  -4.483  -6.073  0.00  0.00    -0.275 OA
ATOM     26  N   UNL     1       0.635  -6.036  -7.352  0.00  0.00    -0.312 N 
ATOM     27  H   UNL     1       1.446  -6.439  -7.701  0.00  0.00    +0.149 HD
BRANCH  26  28
ATOM     28  C   UNL     1      -0.673  -6.568  -7.740  0.00  0.00    +0.148 C 
BRANCH  28  29
ATOM     29  C   UNL     1      -0.480  -7.748  -8.696  0.00  0.00    +0.187 C 
ATOM     30  C   UNL     1      -1.847  -8.304  -9.101  0.00  0.00    +0.053 C 
BRANCH  29  31
ATOM     31  O   UNL     1       0.220  -7.308  -9.861  0.00  0.00    -0.488 OA
BRANCH  31  32
ATOM     32  C   UNL     1       0.919  -8.246 -10.552  0.00  0.00    +0.121 A 
ATOM     33  C   UNL     1       1.720  -7.869 -11.620  0.00  0.00    +0.048 A 
ATOM     34  C   UNL     1       2.430  -8.824 -12.321  0.00  0.00    +0.042 A 
ATOM     35  C   UNL     1       2.342 -10.157 -11.960  0.00  0.00    +0.124 A 
ATOM     36  C   UNL     1       1.542 -10.536 -10.895  0.00  0.00    +0.042 A 
ATOM     37  C   UNL     1       0.836  -9.582 -10.188  0.00  0.00    +0.048 A 
ATOM     38  F   UNL     1       3.037 -11.090 -12.647  0.00  0.00    -0.205 F 
ENDBRANCH  31  32
ENDBRANCH  29  31
ENDBRANCH  28  29
ENDBRANCH  26  28
ENDBRANCH   5  24
TORSDOF 8
