REMARK  Name = ZINC63572892
REMARK  5 active torsions:
REMARK  status: ('A' for Active; 'I' for Inactive)
REMARK    1  A    between atoms: C_1  and  C_2
REMARK    2  A    between atoms: C_5  and  C_8
REMARK    3  A    between atoms: N_26  and  C_27
REMARK    4  A    between atoms: C_30  and  C_34
REMARK    5  A    between atoms: C_32  and  C_33
REMARK                            x       y       z     vdW  Elec       q    Type
REMARK                         _______ _______ _______ _____ _____    ______ ____
ROOT
ATOM      1  C   UNL     1       0.607  -3.507   0.164  0.00  0.00    +0.134 C 
ATOM      2  C   UNL     1      -0.863  -3.936   0.097  0.00  0.00    +0.131 C 
ATOM      3  C   UNL     1      -1.336  -4.092   1.536  0.00  0.00    -0.035 C 
ATOM      4  C   UNL     1      -2.396  -3.304   1.670  0.00  0.00    +0.001 A 
ATOM      5  C   UNL     1      -3.315  -3.082   2.798  0.00  0.00    +0.030 A 
ATOM      6  C   UNL     1      -4.309  -2.176   2.592  0.00  0.00    +0.042 A 
ATOM      7  C   UNL     1      -4.476  -1.477   1.391  0.00  0.00    +0.022 A 
ATOM      8  C   UNL     1      -3.680  -1.622   0.302  0.00  0.00    +0.027 A 
ATOM      9  C   UNL     1      -2.603  -2.551   0.395  0.00  0.00    +0.043 A 
ATOM     10  N   UNL     1      -1.705  -2.902  -0.507  0.00  0.00    -0.375 N 
ATOM     11 CL   UNL     1      -5.426  -1.871   3.886  0.00  0.00    -0.084 Cl
ATOM     12  C   UNL     1      -0.605  -4.947   2.542  0.00  0.00    +0.052 C 
ATOM     13  C   UNL     1       0.875  -4.524   2.490  0.00  0.00    +0.114 C 
ATOM     14  N   UNL     1       1.302  -4.416   1.090  0.00  0.00    -0.276 N 
ATOM     15  C   UNL     1       2.338  -5.155   0.647  0.00  0.00    +0.307 C 
ATOM     16  O   UNL     1       2.755  -5.002  -0.485  0.00  0.00    -0.252 OA
ATOM     17  N   UNL     1       2.912  -6.065   1.459  0.00  0.00    -0.269 N 
ATOM     18  H   UNL     1       2.541  -6.232   2.340  0.00  0.00    +0.156 HD
ATOM     19  H   UNL     1      -1.608  -2.544  -1.404  0.00  0.00    +0.160 HD
ENDROOT
BRANCH  17  20
ATOM     20  C   UNL     1       4.043  -6.769   1.032  0.00  0.00    +0.038 A 
ATOM     21  C   UNL     1       4.249  -7.000  -0.322  0.00  0.00    +0.024 A 
ATOM     22  C   UNL     1       5.367  -7.695  -0.740  0.00  0.00    +0.005 A 
ATOM     23  C   UNL     1       6.281  -8.160   0.187  0.00  0.00    -0.050 A 
ATOM     24  C   UNL     1       6.079  -7.932   1.536  0.00  0.00    +0.008 A 
ATOM     25  C   UNL     1       4.966  -7.233   1.960  0.00  0.00    -0.029 A 
ATOM     26  C   UNL     1       4.750  -6.979   3.430  0.00  0.00    +0.045 C 
ATOM     27  C   UNL     1       7.500  -8.918  -0.273  0.00  0.00    +0.044 C 
ENDBRANCH  17  20
BRANCH   1  32
ATOM     28  C   UNL     1       0.970   1.923   2.108  0.00  0.00    +0.044 C 
ATOM     29  C   UNL     1       0.876   0.506   1.601  0.00  0.00    -0.050 A 
ATOM     30  C   UNL     1       1.373   0.185   0.352  0.00  0.00    +0.004 A 
ATOM     31  C   UNL     1       1.287  -1.114  -0.113  0.00  0.00    +0.006 A 
ATOM     32  C   UNL     1       0.703  -2.091   0.671  0.00  0.00    -0.025 A 
ATOM     33  C   UNL     1       0.205  -1.770   1.920  0.00  0.00    +0.006 A 
ATOM     34  C   UNL     1       0.296  -0.472   2.387  0.00  0.00    +0.004 A 
ENDBRANCH   1  32
TORSDOF 2
