REMARK  Name = ZINC08804186
REMARK  3 active torsions:
REMARK  status: ('A' for Active; 'I' for Inactive)
REMARK    1  A    between atoms: C_8  and  C_19
REMARK    2  A    between atoms: C_11  and  C_13
REMARK    3  A    between atoms: C_13  and  C_14
REMARK                            x       y       z     vdW  Elec       q    Type
REMARK                         _______ _______ _______ _____ _____    ______ ____
ROOT
ATOM      1  C   UNL     1       6.077   7.490   0.915  0.00  0.00    +0.000 A 
ATOM      2  C   UNL     1       5.136   6.655   1.490  0.00  0.00    +0.002 A 
ATOM      3  C   UNL     1       4.284   5.919   0.695  0.00  0.00    +0.024 A 
ATOM      4  C   UNL     1       4.363   6.010  -0.696  0.00  0.00    +0.040 A 
ATOM      5  C   UNL     1       5.309   6.849  -1.262  0.00  0.00    -0.024 A 
ATOM      6  C   UNL     1       6.162   7.585  -0.461  0.00  0.00    +0.005 A 
ATOM      7  C   UNL     1       5.189   6.765  -2.767  0.00  0.00    +0.069 C 
ATOM      8  C   UNL     1       4.050   5.761  -3.008  0.00  0.00    +0.171 C 
ATOM      9  N   UNL     1       3.604   5.357  -1.672  0.00  0.00    -0.259 N 
ATOM     10  C   UNL     1       2.611   4.482  -1.420  0.00  0.00    +0.225 C 
ATOM     11  O   UNL     1       2.010   3.966  -2.339  0.00  0.00    -0.275 OA
ENDROOT
BRANCH   8  12
ATOM     12  C   UNL     1       4.557   4.565  -3.772  0.00  0.00    +0.232 C 
ATOM     13  O   UNL     1       4.551   3.468  -3.256  0.00  0.00    -0.274 OA
ATOM     14  N   UNL     1       5.018   4.715  -5.030  0.00  0.00    -0.328 N 
ATOM     15  H   UNL     1       5.023   5.593  -5.443  0.00  0.00    +0.145 HD
ATOM     16  H   UNL     1       5.344   3.946  -5.522  0.00  0.00    +0.145 HD
ENDBRANCH   8  12
BRANCH  10  17
ATOM     17  C   UNL     1       2.248   4.142   0.003  0.00  0.00    +0.138 C 
BRANCH  17  18
ATOM     18  C   UNL     1       1.115   3.148   0.008  0.00  0.00    -0.001 A 
ATOM     19  C   UNL     1       1.169   1.793   0.001  0.00  0.00    +0.011 A 
ATOM     20  C   UNL     1      -0.013   1.076   0.008  0.00  0.00    +0.008 A 
ATOM     21  C   UNL     1      -1.190   1.748   0.017  0.00  0.00    +0.045 A 
ATOM     22  S   UNL     1      -0.644   3.448   0.027  0.00  0.00    -0.101 S 
ENDBRANCH  17  18
ENDBRANCH  10  17
TORSDOF 3
