REMARK  Name = ZINC31916827
REMARK  8 active torsions:
REMARK  status: ('A' for Active; 'I' for Inactive)
REMARK    1  A    between atoms: C_1  and  C_2
REMARK    2  A    between atoms: C_9  and  C_17
REMARK    3  A    between atoms: C_10  and  C_11
REMARK    4  A    between atoms: C_11  and  C_13
REMARK    5  A    between atoms: C_11  and  C_14
REMARK    6  A    between atoms: C_14  and  N_16
REMARK    7  A    between atoms: C_20  and  C_24
REMARK    8  A    between atoms: C_21  and  C_23
REMARK                            x       y       z     vdW  Elec       q    Type
REMARK                         _______ _______ _______ _____ _____    ______ ____
ROOT
ATOM      1  C   UNL     1      -5.306   6.219   2.809  0.00  0.00    +0.044 C 
ATOM      2  C   UNL     1      -4.176   5.325   2.370  0.00  0.00    -0.046 A 
ATOM      3  C   UNL     1      -4.441   4.017   1.929  0.00  0.00    +0.021 A 
ATOM      4  C   UNL     1      -3.430   3.214   1.535  0.00  0.00    +0.093 A 
ATOM      5  N   UNL     1      -2.139   3.657   1.559  0.00  0.00    -0.302 N 
ATOM      6  C   UNL     1      -1.849   4.928   1.985  0.00  0.00    +0.139 A 
ATOM      7  C   UNL     1      -2.894   5.779   2.399  0.00  0.00    +0.050 A 
ATOM      8  N   UNL     1      -0.538   5.102   1.910  0.00  0.00    -0.228 NA
ATOM      9  C   UNL     1       0.030   3.975   1.452  0.00  0.00    +0.094 A 
ATOM     10  C   UNL     1      -0.955   3.062   1.223  0.00  0.00    +0.060 A 
ENDROOT
BRANCH   9  11
ATOM     11  C   UNL     1       1.482   3.761   1.231  0.00  0.00    +0.002 A 
ATOM     12  C   UNL     1       2.079   2.562   1.619  0.00  0.00    +0.010 A 
ATOM     13  C   UNL     1       3.429   2.369   1.411  0.00  0.00    +0.004 A 
ATOM     14  C   UNL     1       4.190   3.361   0.819  0.00  0.00    -0.047 A 
ATOM     15  C   UNL     1       3.602   4.552   0.432  0.00  0.00    -0.047 A 
ATOM     16  C   UNL     1       2.251   4.754   0.631  0.00  0.00    +0.013 A 
ATOM     17  C   UNL     1       4.438   5.628  -0.212  0.00  0.00    +0.044 C 
ATOM     18  C   UNL     1       5.664   3.143   0.594  0.00  0.00    +0.044 C 
ENDBRANCH   9  11
BRANCH  10  19
ATOM     19  C   UNL     1      -0.773   1.660   0.702  0.00  0.00    +0.086 C 
ATOM     20  C   UNL     1      -1.428   0.669   1.666  0.00  0.00    +0.021 C 
BRANCH  19  21
ATOM     21  C   UNL     1      -1.418   1.541  -0.655  0.00  0.00    +0.055 C 
ATOM     22  S   UNL     1      -2.239   2.772  -1.262  0.00  0.00    -0.040 S 
BRANCH  21  23
ATOM     23  N   UNL     1      -1.303   0.396  -1.358  0.00  0.00    -0.355 N 
ATOM     24  H   UNL     1      -1.773   0.309  -2.348  0.00  0.00    +0.143 HD
ATOM     25  H   UNL     1      -0.738  -0.451  -0.940  0.00  0.00    +0.143 HD
ENDBRANCH  21  23
ENDBRANCH  19  21
ENDBRANCH  10  19
TORSDOF 4
