REMARK  Name = ZINC13139038
REMARK  6 active torsions:
REMARK  status: ('A' for Active; 'I' for Inactive)
REMARK    1  A    between atoms: C_1  and  C_2
REMARK    2  A    between atoms: C_2  and  C_33
REMARK    3  A    between atoms: N_16  and  C_19
REMARK    4  A    between atoms: C_19  and  C_20
REMARK    5  A    between atoms: C_27  and  C_31
REMARK    6  A    between atoms: C_28  and  N_30
REMARK                            x       y       z     vdW  Elec       q    Type
REMARK                         _______ _______ _______ _____ _____    ______ ____
ROOT
ATOM      1  C   UNL     1      -0.019   1.526   0.010  0.00  0.00    +0.012 C 
ATOM      2  C   UNL     1       0.002  -0.004   0.002  0.00  0.00    -0.021 C 
ATOM      3  C   UNL     1      -1.431  -0.538   0.038  0.00  0.00    +0.081 C 
ATOM      4  C   UNL     1      -1.411  -2.047   0.075  0.00  0.00    +0.116 C 
ATOM      5  C   UNL     1      -0.399  -2.708   0.668  0.00  0.00    +0.058 C 
ATOM      6  C   UNL     1       0.675  -2.019   1.264  0.00  0.00    +0.165 C 
ATOM      7  O   UNL     1       1.562  -2.648   1.804  0.00  0.00    -0.292 OA
ATOM      8  C   UNL     1       0.743  -0.516   1.242  0.00  0.00    +0.086 C 
ATOM      9  C   UNL     1      -0.392  -4.215   0.710  0.00  0.00    +0.144 C 
ATOM     10  C   UNL     1       0.617  -4.768  -0.247  0.00  0.00    -0.001 A 
ATOM     11  C   UNL     1       0.720  -4.680  -1.618  0.00  0.00    +0.007 A 
ATOM     12  C   UNL     1       1.800  -5.322  -2.213  0.00  0.00    +0.000 A 
ATOM     13  C   UNL     1       2.727  -6.015  -1.461  0.00  0.00    +0.002 A 
ATOM     14  C   UNL     1       2.631  -6.108  -0.082  0.00  0.00    +0.024 A 
ATOM     15  C   UNL     1       1.550  -5.468   0.528  0.00  0.00    +0.041 A 
ATOM     16  N   UNL     1       1.212  -5.399   1.867  0.00  0.00    -0.265 N 
ATOM     17  C   UNL     1       0.086  -4.685   2.069  0.00  0.00    +0.241 C 
ATOM     18  O   UNL     1      -0.444  -4.460   3.137  0.00  0.00    -0.274 OA
ATOM     19  C   UNL     1      -1.760  -4.763   0.428  0.00  0.00    +0.110 C 
ATOM     20  C   UNL     1      -2.702  -3.981  -0.159  0.00  0.00    +0.199 C 
ATOM     21  O   UNL     1      -2.432  -2.710  -0.501  0.00  0.00    -0.445 OA
ATOM     22  C   UNL     1       0.709  -0.502  -1.260  0.00  0.00    +0.012 C 
ENDROOT
BRANCH  20  23
ATOM     23  N   UNL     1      -3.949  -4.498  -0.407  0.00  0.00    -0.328 N 
ATOM     24  H   UNL     1      -4.152  -5.414  -0.163  0.00  0.00    +0.145 HD
ATOM     25  H   UNL     1      -4.628  -3.946  -0.826  0.00  0.00    +0.145 HD
ENDBRANCH  20  23
BRANCH  19  26
ATOM     26  C   UNL     1      -2.073  -6.115   0.779  0.00  0.00    +0.102 C 
ATOM     27  N   UNL     1      -2.322  -7.188   1.057  0.00  0.00    -0.191 NA
ENDBRANCH  19  26
BRANCH  16  28
ATOM     28  C   UNL     1       1.985  -6.029   2.941  0.00  0.00    +0.150 C 
BRANCH  28  29
ATOM     29  C   UNL     1       3.026  -5.062   3.444  0.00  0.00    -0.011 A 
ATOM     30  C   UNL     1       4.335  -5.170   3.012  0.00  0.00    +0.006 A 
ATOM     31  C   UNL     1       5.290  -4.283   3.474  0.00  0.00    +0.000 A 
ATOM     32  C   UNL     1       4.936  -3.288   4.367  0.00  0.00    +0.001 A 
ATOM     33  C   UNL     1       3.628  -3.180   4.799  0.00  0.00    +0.020 A 
ATOM     34  C   UNL     1       2.671  -4.064   4.333  0.00  0.00    +0.046 A 
ATOM     35 CL   UNL     1       1.026  -3.925   4.870  0.00  0.00    -0.083 Cl
ENDBRANCH  28  29
ENDBRANCH  16  28
TORSDOF 4
