REMARK  Name = ZINC20154145
REMARK  7 active torsions:
REMARK  status: ('A' for Active; 'I' for Inactive)
REMARK    1  A    between atoms: C_1  and  C_2
REMARK    2  A    between atoms: C_7  and  O_8
REMARK    3  A    between atoms: O_8  and  C_9
REMARK    4  A    between atoms: C_9  and  C_10
REMARK    5  A    between atoms: N_12  and  C_13
REMARK    6  A    between atoms: C_16  and  N_20
REMARK    7  A    between atoms: C_17  and  N_19
REMARK                            x       y       z     vdW  Elec       q    Type
REMARK                         _______ _______ _______ _____ _____    ______ ____
ROOT
ATOM      1  C   UNL     1      -3.865   6.395   5.564  0.00  0.00    +0.255 C 
ATOM      2  O   UNL     1      -3.761   7.028   4.534  0.00  0.00    -0.272 OA
ATOM      3  N   UNL     1      -3.282   5.185   5.673  0.00  0.00    -0.283 N 
ATOM      4  H   UNL     1      -3.301   4.650   6.634  0.00  0.00    +0.155 HD
ENDROOT
BRANCH   3   5
ATOM      5  C   UNL     1      -2.650   4.609   4.563  0.00  0.00    +0.035 A 
ATOM      6  C   UNL     1      -1.963   5.411   3.662  0.00  0.00    +0.025 A 
ATOM      7  C   UNL     1      -1.339   4.846   2.566  0.00  0.00    +0.027 A 
ATOM      8  C   UNL     1      -1.398   3.475   2.363  0.00  0.00    +0.051 A 
ATOM      9  C   UNL     1      -2.092   2.667   3.263  0.00  0.00    +0.048 A 
ATOM     10  C   UNL     1      -2.712   3.236   4.365  0.00  0.00    +0.048 A 
BRANCH   8  11
ATOM     11  N   UNL     1      -0.764   2.903   1.250  0.00  0.00    -0.324 N 
ATOM     12  C   UNL     1      -0.322   3.938   0.305  0.00  0.00    +0.133 C 
ATOM     13  C   UNL     1       0.310   3.269  -0.918  0.00  0.00    +0.178 C 
ATOM     14  O   UNL     1       1.385   2.427  -0.493  0.00  0.00    -0.377 OA
ATOM     15  C   UNL     1       0.988   1.406   0.427  0.00  0.00    +0.178 C 
ATOM     16  C   UNL     1       0.365   2.057   1.664  0.00  0.00    +0.133 C 
ENDBRANCH   8  11
BRANCH   9  17
ATOM     17  N   UNL     1      -2.157   1.284   3.058  0.00  0.00    -0.356 N 
ATOM     18  H   UNL     1      -2.705   0.648   3.769  0.00  0.00    +0.142 HD
ATOM     19  H   UNL     1      -1.661   0.834   2.186  0.00  0.00    +0.142 HD
ENDBRANCH   9  17
ENDBRANCH   3   5
BRANCH   1  20
ATOM     20  C   UNL     1      -4.646   6.962   6.721  0.00  0.00    +0.325 C 
BRANCH  20  21
ATOM     21  O   UNL     1      -5.162   8.246   6.364  0.00  0.00    -0.481 OA
BRANCH  21  28
ATOM     22  C   UNL     1      -3.782   9.954   8.138  0.00  0.00    +0.047 C 
ATOM     23  C   UNL     1      -5.274   9.751   8.202  0.00  0.00    -0.006 A 
ATOM     24  C   UNL     1      -6.021  10.415   9.156  0.00  0.00    +0.027 A 
ATOM     25  C   UNL     1      -7.391  10.229   9.216  0.00  0.00    +0.043 A 
ATOM     26  C   UNL     1      -8.015   9.380   8.319  0.00  0.00    +0.043 A 
ATOM     27  C   UNL     1      -7.272   8.718   7.360  0.00  0.00    +0.084 A 
ATOM     28  C   UNL     1      -5.896   8.899   7.303  0.00  0.00    +0.142 A 
ATOM     29 CL   UNL     1      -8.056   7.658   6.231  0.00  0.00    -0.080 Cl
ATOM     30 CL   UNL     1      -8.328  11.064  10.415  0.00  0.00    -0.083 Cl
ENDBRANCH  21  28
ENDBRANCH  20  21
ENDBRANCH   1  20
TORSDOF 6
