REMARK  Name = ZINC19278137
REMARK  5 active torsions:
REMARK  status: ('A' for Active; 'I' for Inactive)
REMARK    1  A    between atoms: C_1  and  C_2
REMARK    2  A    between atoms: C_5  and  C_8
REMARK    3  A    between atoms: C_8  and  C_10
REMARK    4  A    between atoms: C_8  and  N_22
REMARK    5  A    between atoms: C_10  and  N_11
REMARK                            x       y       z     vdW  Elec       q    Type
REMARK                         _______ _______ _______ _____ _____    ______ ____
ROOT
ATOM      1  C   UNL     1       1.655   4.195   0.008  0.00  0.00    +0.106 C 
ENDROOT
BRANCH   1   2
ATOM      2  N   UNL     1       0.704   3.082   0.012  0.00  0.00    -0.226 N 
ATOM      3  C   UNL     1      -0.639   3.230   0.025  0.00  0.00    +0.246 C 
ATOM      4  O   UNL     1      -1.264   4.269   0.038  0.00  0.00    -0.273 OA
ATOM      5  C   UNL     1      -1.194   1.829   0.017  0.00  0.00    +0.113 C 
ATOM      6  C   UNL     1      -2.057   1.573   1.260  0.00  0.00    +0.035 C 
ATOM      7  C   UNL     1      -3.510   1.774   0.755  0.00  0.00    +0.003 C 
ATOM      8  C   UNL     1      -3.464   1.177  -0.674  0.00  0.00    +0.003 C 
ATOM      9  C   UNL     1      -2.074   1.585  -1.212  0.00  0.00    +0.035 C 
ATOM     10  N   UNL     1      -0.011   0.966   0.007  0.00  0.00    -0.285 N 
ATOM     11  C   UNL     1       1.056   1.790   0.002  0.00  0.00    +0.309 C 
ATOM     12  O   UNL     1       2.208   1.403  -0.011  0.00  0.00    -0.252 OA
ATOM     13  H   UNL     1      -0.128  -0.128   0.006  0.00  0.00    +0.151 HD
ENDBRANCH   1   2
BRANCH   1  14
ATOM     14  C   UNL     1       1.973   4.590  -1.435  0.00  0.00    -0.026 C 
BRANCH  14  19
ATOM     15  C   UNL     1       5.354   9.277  -1.452  0.00  0.00    +0.044 C 
ATOM     16  C   UNL     1       4.472   8.054  -1.448  0.00  0.00    -0.050 A 
ATOM     17  C   UNL     1       5.026   6.802  -1.632  0.00  0.00    +0.003 A 
ATOM     18  C   UNL     1       4.218   5.681  -1.628  0.00  0.00    +0.002 A 
ATOM     19  C   UNL     1       2.855   5.812  -1.440  0.00  0.00    -0.060 A 
ATOM     20  C   UNL     1       2.300   7.066  -1.261  0.00  0.00    +0.002 A 
ATOM     21  C   UNL     1       3.109   8.186  -1.260  0.00  0.00    +0.003 A 
ENDBRANCH  14  19
BRANCH  14  22
ATOM     22  N   UNL     1       0.723   4.886  -2.148  0.00  0.00    +0.384 N 
ATOM     23  H   UNL     1       0.080   3.994  -2.145  0.00  0.00    -0.089 HD
ATOM     24  H   UNL     1       0.951   5.170  -3.186  0.00  0.00    -0.089 HD
ATOM     25  H   UNL     1       0.202   5.715  -1.647  0.00  0.00    -0.089 HD
ENDBRANCH  14  22
ENDBRANCH   1  14
TORSDOF 4
