REMARK  Name = ZINC45725473
REMARK  7 active torsions:
REMARK  status: ('A' for Active; 'I' for Inactive)
REMARK    1  A    between atoms: C_4  and  N_11
REMARK    2  A    between atoms: C_5  and  C_7
REMARK    3  A    between atoms: C_7  and  C_8
REMARK    4  A    between atoms: N_14  and  C_15
REMARK    5  A    between atoms: C_15  and  C_16
REMARK    6  A    between atoms: C_16  and  C_18
REMARK    7  A    between atoms: C_16  and  N_23
REMARK                            x       y       z     vdW  Elec       q    Type
REMARK                         _______ _______ _______ _____ _____    ______ ____
ROOT
ATOM      1  N   UNL     1       3.689  -0.703   0.372  0.00  0.00    -0.269 N 
ATOM      2  C   UNL     1       4.817  -0.002   0.144  0.00  0.00    +0.304 C 
ATOM      3  O   UNL     1       4.784   1.214   0.122  0.00  0.00    -0.253 OA
ATOM      4  N   UNL     1       5.982  -0.648  -0.060  0.00  0.00    -0.300 N 
ATOM      5  H   UNL     1       3.727  -1.668   0.461  0.00  0.00    +0.156 HD
ATOM      6  H   UNL     1       6.008  -1.617  -0.043  0.00  0.00    +0.150 HD
ENDROOT
BRANCH   1  10
ATOM      7  C   UNL     1       0.037   1.276   0.699  0.00  0.00    +0.000 A 
ATOM      8  C   UNL     1       1.195   1.887   1.145  0.00  0.00    +0.002 A 
ATOM      9  C   UNL     1       2.407   1.233   1.039  0.00  0.00    +0.023 A 
ATOM     10  C   UNL     1       2.462  -0.038   0.482  0.00  0.00    +0.038 A 
ATOM     11  C   UNL     1       1.298  -0.648   0.035  0.00  0.00    -0.017 A 
ATOM     12  C   UNL     1       0.088   0.011   0.144  0.00  0.00    +0.006 A 
BRANCH  11  13
ATOM     13  C   UNL     1       1.353  -2.027  -0.570  0.00  0.00    +0.132 C 
BRANCH  13  14
ATOM     14  C   UNL     1       1.300  -3.059   0.527  0.00  0.00    +0.215 C 
ATOM     15  O   UNL     1       1.225  -2.709   1.686  0.00  0.00    -0.276 OA
ATOM     16  N   UNL     1       1.337  -4.371   0.221  0.00  0.00    -0.329 N 
ATOM     17  H   UNL     1       1.397  -4.651  -0.706  0.00  0.00    +0.145 HD
ATOM     18  H   UNL     1       1.303  -5.035   0.927  0.00  0.00    +0.145 HD
ENDBRANCH  13  14
ENDBRANCH  11  13
ENDBRANCH   1  10
BRANCH   4  19
ATOM     19  C   UNL     1       7.208   0.114  -0.309  0.00  0.00    +0.098 C 
BRANCH  19  20
ATOM     20  C   UNL     1       8.353  -0.850  -0.624  0.00  0.00    +0.016 C 
BRANCH  20  21
ATOM     21  N   UNL     1       8.475  -1.836   0.458  0.00  0.00    +0.387 N 
ATOM     22  C   UNL     1       8.627  -1.138   1.740  0.00  0.00    -0.078 C 
ATOM     23  C   UNL     1       8.672  -2.158   2.879  0.00  0.00    -0.019 C 
ATOM     24  C   UNL     1       9.860  -3.101   2.665  0.00  0.00    -0.004 C 
ATOM     25  C   UNL     1       9.730  -3.768   1.293  0.00  0.00    -0.019 C 
ATOM     26  C   UNL     1       9.645  -2.688   0.213  0.00  0.00    -0.078 C 
ATOM     27  H   UNL     1       7.644  -2.408   0.485  0.00  0.00    -0.081 HD
ENDBRANCH  20  21
BRANCH  20  28
ATOM     28  C   UNL     1       9.641  -0.078  -0.747  0.00  0.00    +0.093 A 
ATOM     29  C   UNL     1      10.205   0.333  -1.897  0.00  0.00    +0.043 A 
ATOM     30  C   UNL     1      11.394   1.015  -1.549  0.00  0.00    +0.041 A 
ATOM     31  C   UNL     1      11.485   0.979  -0.208  0.00  0.00    +0.195 A 
ATOM     32  O   UNL     1      10.418   0.321   0.273  0.00  0.00    -0.469 OA
ENDBRANCH  20  28
ENDBRANCH  19  20
ENDBRANCH   4  19
TORSDOF 7
