REMARK  Name = ZINC16020589
REMARK  3 active torsions:
REMARK  status: ('A' for Active; 'I' for Inactive)
REMARK    1  A    between atoms: C_4  and  N_7
REMARK    2  A    between atoms: C_12  and  C_30
REMARK    3  A    between atoms: C_30  and  C_31
REMARK                            x       y       z     vdW  Elec       q    Type
REMARK                         _______ _______ _______ _____ _____    ______ ____
ROOT
ATOM      1  N   UNL     1       3.624  -0.652  -0.037  0.00  0.00    -0.210 N 
ATOM      2  C   UNL     1       4.801  -0.025  -0.139  0.00  0.00    +0.232 C 
ATOM      3  O   UNL     1       4.950   1.175  -0.225  0.00  0.00    -0.274 OA
ATOM      4  C   UNL     1       5.917  -1.045  -0.129  0.00  0.00    +0.108 C 
ATOM      5  C   UNL     1       6.582  -1.080  -1.522  0.00  0.00    +0.072 C 
ATOM      6  N   UNL     1       6.709  -2.525  -1.848  0.00  0.00    -0.295 NA
ATOM      7  C   UNL     1       5.464  -3.123  -1.332  0.00  0.00    +0.136 C 
ATOM      8  C   UNL     1       5.164  -2.398   0.004  0.00  0.00    +0.123 C 
ATOM      9  C   UNL     1       3.710  -1.984   0.052  0.00  0.00    +0.233 C 
ATOM     10  O   UNL     1       2.769  -2.742   0.155  0.00  0.00    -0.274 OA
ATOM     11  C   UNL     1       5.610  -4.604  -1.127  0.00  0.00    +0.006 A 
ATOM     12  C   UNL     1       6.453  -5.376  -0.360  0.00  0.00    +0.046 A 
ATOM     13  C   UNL     1       6.343  -6.757  -0.384  0.00  0.00    +0.124 A 
ATOM     14  C   UNL     1       5.382  -7.357  -1.181  0.00  0.00    +0.040 A 
ATOM     15  C   UNL     1       4.535  -6.585  -1.950  0.00  0.00    +0.026 A 
ATOM     16  C   UNL     1       4.641  -5.197  -1.931  0.00  0.00    +0.039 A 
ATOM     17  N   UNL     1       3.912  -4.217  -2.611  0.00  0.00    -0.283 N 
ATOM     18  C   UNL     1       4.334  -2.973  -2.313  0.00  0.00    +0.243 C 
ATOM     19  O   UNL     1       3.889  -1.933  -2.752  0.00  0.00    -0.273 OA
ATOM     20  F   UNL     1       7.169  -7.516   0.368  0.00  0.00    -0.205 F 
ATOM     21  H   UNL     1       6.792  -2.665  -2.844  0.00  0.00    +0.124 HD
ATOM     22  H   UNL     1       3.186  -4.410  -3.225  0.00  0.00    +0.155 HD
ENDROOT
BRANCH   1  26
ATOM     23  C   UNL     1      -0.016   1.380   0.011  0.00  0.00    +0.000 A 
ATOM     24  C   UNL     1       0.419   0.717   1.144  0.00  0.00    +0.002 A 
ATOM     25  C   UNL     1       1.625   0.043   1.131  0.00  0.00    +0.024 A 
ATOM     26  C   UNL     1       2.399   0.031  -0.021  0.00  0.00    +0.044 A 
ATOM     27  C   UNL     1       1.959   0.697  -1.157  0.00  0.00    +0.024 A 
ATOM     28  C   UNL     1       0.753   1.370  -1.138  0.00  0.00    +0.002 A 
ENDBRANCH   1  26
BRANCH   5  29
ATOM     29  C   UNL     1       7.961  -0.420  -1.470  0.00  0.00    +0.056 C 
BRANCH  29  30
ATOM     30  C   UNL     1       8.540  -0.354  -2.860  0.00  0.00    -0.021 A 
ATOM     31  C   UNL     1       9.374  -1.244  -3.420  0.00  0.00    +0.087 A 
ATOM     32  N   UNL     1       9.687  -0.853  -4.694  0.00  0.00    -0.360 N 
ATOM     33  H   UNL     1      10.273  -1.335  -5.297  0.00  0.00    +0.165 HD
ATOM     34  C   UNL     1       9.045   0.329  -4.991  0.00  0.00    +0.047 A 
ATOM     35  C   UNL     1       8.293   0.689  -3.858  0.00  0.00    +0.003 A 
ATOM     36  C   UNL     1       7.526   1.855  -3.873  0.00  0.00    +0.010 A 
ATOM     37  C   UNL     1       7.506   2.640  -4.992  0.00  0.00    +0.001 A 
ATOM     38  C   UNL     1       8.242   2.286  -6.114  0.00  0.00    +0.002 A 
ATOM     39  C   UNL     1       9.014   1.144  -6.117  0.00  0.00    +0.026 A 
ENDBRANCH  29  30
ENDBRANCH   5  29
TORSDOF 3
