REMARK  Name = ZINC49050160
REMARK  6 active torsions:
REMARK  status: ('A' for Active; 'I' for Inactive)
REMARK    1  A    between atoms: C_1  and  C_2
REMARK    2  A    between atoms: C_2  and  C_4
REMARK    3  A    between atoms: C_2  and  S_7
REMARK    4  A    between atoms: S_7  and  N_10
REMARK    5  A    between atoms: N_10  and  C_11
REMARK    6  A    between atoms: C_16  and  C_17
REMARK                            x       y       z     vdW  Elec       q    Type
REMARK                         _______ _______ _______ _____ _____    ______ ____
ROOT
ATOM      1  C   UNL     1      -3.721  -0.316  -1.666  0.00  0.00    +0.086 A 
ATOM      2  C   UNL     1      -4.469  -1.116  -0.812  0.00  0.00    +0.028 A 
ATOM      3  C   UNL     1      -5.785  -1.405  -1.115  0.00  0.00    +0.017 A 
ATOM      4  C   UNL     1      -6.358  -0.898  -2.268  0.00  0.00    +0.019 A 
ATOM      5  C   UNL     1      -5.615  -0.101  -3.120  0.00  0.00    +0.029 A 
ATOM      6  C   UNL     1      -4.300   0.196  -2.819  0.00  0.00    +0.080 A 
ATOM      7 BR   UNL     1      -8.160  -1.296  -2.679  0.00  0.00    -0.050 Br
ENDROOT
BRANCH   6   8
ATOM      8  C   UNL     1      -3.494   1.070  -3.745  0.00  0.00    +0.419 C 
ATOM      9  F   UNL     1      -4.288   1.459  -4.829  0.00  0.00    -0.166 F 
ATOM     10  F   UNL     1      -3.059   2.205  -3.054  0.00  0.00    -0.166 F 
ATOM     11  F   UNL     1      -2.385   0.355  -4.212  0.00  0.00    -0.166 F 
ENDBRANCH   6   8
BRANCH   1  12
ATOM     12  N   UNL     1      -2.389  -0.021  -1.361  0.00  0.00    -0.101 NA
BRANCH  12  13
ATOM     13  S   UNL     1      -1.700  -0.632   0.015  0.00  0.00    +0.075 S 
ATOM     14  O   UNL     1      -1.703  -2.041  -0.172  0.00  0.00    -0.153 OA
ATOM     15  O   UNL     1      -2.431  -0.041   1.080  0.00  0.00    -0.153 OA
BRANCH  13  17
ATOM     16  C   UNL     1      -0.019   1.526   0.010  0.00  0.00    +0.046 C 
ATOM     17  C   UNL     1       0.002  -0.004   0.002  0.00  0.00    +0.262 C 
BRANCH  17  18
ATOM     18  C   UNL     1       0.731  -0.503   1.223  0.00  0.00    +0.381 C 
ATOM     19  O   UNL     1       0.714   0.150   2.252  0.00  0.00    -0.244 OA
ATOM     20  O   UNL     1       1.337  -1.560   1.181  0.00  0.00    -0.244 OA
ENDBRANCH  17  18
ENDBRANCH  13  17
ENDBRANCH  12  13
ENDBRANCH   1  12
TORSDOF 5
