REMARK  Name = ZINC63601104
REMARK  5 active torsions:
REMARK  status: ('A' for Active; 'I' for Inactive)
REMARK    1  A    between atoms: C_1  and  C_2
REMARK    2  A    between atoms: C_5  and  N_9
REMARK    3  A    between atoms: C_10  and  C_12
REMARK    4  A    between atoms: C_12  and  N_13
REMARK    5  A    between atoms: C_14  and  C_16
REMARK                            x       y       z     vdW  Elec       q    Type
REMARK                         _______ _______ _______ _____ _____    ______ ____
ROOT
ATOM      1  N   UNL     1       0.057  -4.171  -0.023  0.00  0.00    -0.283 N 
ATOM      2  C   UNL     1      -0.042  -4.839  -1.190  0.00  0.00    +0.234 C 
ATOM      3  O   UNL     1      -0.055  -4.230  -2.238  0.00  0.00    -0.274 OA
ATOM      4  H   UNL     1       0.149  -4.660   0.809  0.00  0.00    +0.155 HD
ENDROOT
BRANCH   1   9
ATOM      5  C   UNL     1      -0.064   1.502   0.016  0.00  0.00    +0.044 C 
ATOM      6  C   UNL     1      -0.031  -0.005   0.006  0.00  0.00    -0.049 A 
ATOM      7  C   UNL     1      -0.622  -0.701  -1.033  0.00  0.00    +0.005 A 
ATOM      8  C   UNL     1      -0.594  -2.082  -1.045  0.00  0.00    +0.025 A 
ATOM      9  C   UNL     1       0.028  -2.772  -0.014  0.00  0.00    +0.052 A 
ATOM     10  C   UNL     1       0.621  -2.070   1.029  0.00  0.00    +0.062 A 
ATOM     11  C   UNL     1       0.595  -0.688   1.032  0.00  0.00    +0.025 A 
ATOM     12 CL   UNL     1       1.401  -2.928   2.321  0.00  0.00    -0.082 Cl
ENDBRANCH   1   9
BRANCH   2  13
ATOM     13  C   UNL     1      -0.136  -6.343  -1.191  0.00  0.00    +0.200 C 
BRANCH  13  14
ATOM     14  N   UNL     1      -0.234  -6.825  -2.571  0.00  0.00    -0.303 N 
ATOM     15  C   UNL     1      -0.329  -8.147  -2.818  0.00  0.00    +0.245 C 
ATOM     16  O   UNL     1      -0.333  -8.939  -1.896  0.00  0.00    -0.270 OA
ATOM     17  H   UNL     1      -0.231  -6.193  -3.307  0.00  0.00    +0.150 HD
BRANCH  15  18
ATOM     18  C   UNL     1      -0.427  -8.634  -4.212  0.00  0.00    +0.040 A 
ATOM     19  C   UNL     1      -0.419  -7.740  -5.288  0.00  0.00    +0.034 A 
ATOM     20  C   UNL     1      -0.513  -8.237  -6.572  0.00  0.00    +0.134 A 
ATOM     21  N   UNL     1      -0.611  -9.535  -6.790  0.00  0.00    -0.147 N 
ATOM     22  O   UNL     1      -0.706 -10.001  -8.124  0.00  0.00    -0.164 OA
ATOM     23  C   UNL     1      -0.623 -10.412  -5.804  0.00  0.00    +0.134 A 
ATOM     24  C   UNL     1      -0.527 -10.001  -4.490  0.00  0.00    +0.034 A 
ENDBRANCH  15  18
ENDBRANCH  13  14
ENDBRANCH   2  13
TORSDOF 4
