REMARK  Name = ZINC44164097
REMARK  6 active torsions:
REMARK  status: ('A' for Active; 'I' for Inactive)
REMARK    1  A    between atoms: C_3  and  O_27
REMARK    2  A    between atoms: C_6  and  C_7
REMARK    3  A    between atoms: C_7  and  C_8
REMARK    4  A    between atoms: C_8  and  N_9
REMARK    5  A    between atoms: C_10  and  C_12
REMARK    6  A    between atoms: C_17  and  C_20
REMARK                            x       y       z     vdW  Elec       q    Type
REMARK                         _______ _______ _______ _____ _____    ______ ____
ROOT
ATOM      1  C   UNL     1      -4.892  -2.883  -2.575  0.00  0.00    +0.027 C 
ATOM      2  C   UNL     1      -4.655  -4.272  -1.970  0.00  0.00    +0.062 C 
ATOM      3  S   UNL     1      -3.376  -5.113  -2.955  0.00  0.00    -0.163 S 
ATOM      4  C   UNL     1      -3.978  -4.893  -4.659  0.00  0.00    +0.058 C 
ATOM      5  C   UNL     1      -4.316  -3.411  -4.862  0.00  0.00    -0.030 C 
ATOM      6  N   UNL     1      -5.387  -3.018  -3.946  0.00  0.00    +0.392 N 
ATOM      7  H   UNL     1      -6.115  -3.716  -3.968  0.00  0.00    -0.084 HD
ATOM      8  H   UNL     1      -5.769  -2.134  -4.248  0.00  0.00    -0.084 HD
ENDROOT
BRANCH   5   9
ATOM      9  C   UNL     1      -4.766  -3.191  -6.283  0.00  0.00    -0.061 A 
ATOM     10  C   UNL     1      -6.063  -3.497  -6.652  0.00  0.00    +0.003 A 
ATOM     11  C   UNL     1      -6.476  -3.294  -7.955  0.00  0.00    +0.020 A 
ATOM     12  C   UNL     1      -5.593  -2.785  -8.890  0.00  0.00    +0.041 A 
ATOM     13  C   UNL     1      -4.295  -2.479  -8.520  0.00  0.00    +0.020 A 
ATOM     14  C   UNL     1      -3.885  -2.676  -7.215  0.00  0.00    +0.003 A 
ATOM     15 CL   UNL     1      -6.112  -2.531 -10.527  0.00  0.00    -0.084 Cl
ENDBRANCH   5   9
BRANCH   1  17
ATOM     16  N   UNL     1      -3.403  -1.129  -3.484  0.00  0.00    -0.316 N 
ATOM     17  C   UNL     1      -3.596  -2.113  -2.584  0.00  0.00    +0.200 C 
ATOM     18  O   UNL     1      -2.727  -2.379  -1.780  0.00  0.00    -0.278 OA
ATOM     19  H   UNL     1      -4.098  -0.916  -4.126  0.00  0.00    +0.149 HD
BRANCH  16  20
ATOM     20  C   UNL     1      -2.144  -0.381  -3.492  0.00  0.00    +0.109 C 
BRANCH  20  21
ATOM     21  C   UNL     1      -2.183   0.671  -4.603  0.00  0.00    +0.054 C 
BRANCH  21  27
ATOM     22  C   UNL     1       0.172   1.000  -5.383  0.00  0.00    +0.007 A 
ATOM     23  C   UNL     1       1.360   1.705  -5.393  0.00  0.00    +0.045 A 
ATOM     24  C   UNL     1       1.490   2.855  -4.628  0.00  0.00    +0.117 A 
ATOM     25  C   UNL     1       0.425   3.295  -3.855  0.00  0.00    +0.045 A 
ATOM     26  C   UNL     1      -0.761   2.587  -3.849  0.00  0.00    +0.007 A 
ATOM     27  C   UNL     1      -0.888   1.441  -4.612  0.00  0.00    -0.046 A 
BRANCH  24  28
ATOM     28  O   UNL     1       2.658   3.549  -4.636  0.00  0.00    -0.507 OA
ATOM     29  H   UNL     1       2.704   4.234  -5.317  0.00  0.00    +0.292 HD
ENDBRANCH  24  28
ENDBRANCH  21  27
ENDBRANCH  20  21
ENDBRANCH  16  20
ENDBRANCH   1  17
TORSDOF 6
