REMARK  Name = ZINC46541816
REMARK  7 active torsions:
REMARK  status: ('A' for Active; 'I' for Inactive)
REMARK    1  A    between atoms: C_1  and  C_2
REMARK    2  A    between atoms: C_2  and  C_4
REMARK    3  A    between atoms: C_2  and  N_14
REMARK    4  A    between atoms: C_7  and  S_10
REMARK    5  A    between atoms: S_10  and  N_13
REMARK    6  A    between atoms: C_15  and  C_17
REMARK    7  A    between atoms: C_24  and  C_26
REMARK                            x       y       z     vdW  Elec       q    Type
REMARK                         _______ _______ _______ _____ _____    ______ ____
ROOT
ATOM      1  N   UNL     1      -0.152  -0.750   1.651  0.00  0.00    -0.308 N 
ATOM      2  C   UNL     1       0.972  -1.479   1.506  0.00  0.00    +0.218 C 
ATOM      3  O   UNL     1       1.372  -1.762   0.396  0.00  0.00    -0.275 OA
ATOM      4  H   UNL     1      -0.472  -0.523   2.538  0.00  0.00    +0.149 HD
ENDROOT
BRANCH   2   5
ATOM      5  C   UNL     1       1.732  -1.943   2.722  0.00  0.00    +0.092 C 
ATOM      6  C   UNL     1       2.959  -2.744   2.282  0.00  0.00    +0.016 C 
ATOM      7  C   UNL     1       3.714  -3.243   3.516  0.00  0.00    +0.020 C 
ATOM      8  C   UNL     1       4.189  -2.042   4.340  0.00  0.00    +0.108 C 
ATOM      9  N   UNL     1       3.032  -1.189   4.644  0.00  0.00    -0.296 N 
ATOM     10  C   UNL     1       2.184  -0.727   3.537  0.00  0.00    +0.120 C 
ATOM     11  C   UNL     1       2.753  -0.838   5.915  0.00  0.00    +0.253 C 
ATOM     12  O   UNL     1       1.828  -0.082   6.148  0.00  0.00    -0.269 OA
BRANCH  11  13
ATOM     13  C   UNL     1       3.564  -1.366   7.016  0.00  0.00    +0.074 A 
ATOM     14  C   UNL     1       3.162  -1.780   8.277  0.00  0.00    +0.021 A 
ATOM     15  C   UNL     1       4.162  -2.232   9.104  0.00  0.00    +0.008 A 
ATOM     16  C   UNL     1       5.439  -2.244   8.648  0.00  0.00    +0.046 A 
ATOM     17  S   UNL     1       5.322  -1.650   7.081  0.00  0.00    -0.092 S 
ENDBRANCH  11  13
ENDBRANCH   2   5
BRANCH   1  19
ATOM     18  C   UNL     1      -0.284   1.009  -0.043  0.00  0.00    +0.033 C 
ATOM     19  C   UNL     1      -0.891  -0.298   0.469  0.00  0.00    +0.100 C 
BRANCH  19  20
ATOM     20  C   UNL     1      -2.335  -0.072   0.835  0.00  0.00    -0.027 A 
ATOM     21  C   UNL     1      -2.658   0.516   2.043  0.00  0.00    +0.007 A 
ATOM     22  C   UNL     1      -3.983   0.724   2.379  0.00  0.00    +0.029 A 
ATOM     23  C   UNL     1      -4.985   0.342   1.506  0.00  0.00    +0.105 A 
ATOM     24  C   UNL     1      -4.662  -0.246   0.298  0.00  0.00    +0.029 A 
ATOM     25  C   UNL     1      -3.337  -0.449  -0.040  0.00  0.00    +0.007 A 
BRANCH  23  26
ATOM     26  S   UNL     1      -6.673   0.605   1.935  0.00  0.00    +0.056 S 
ATOM     27  O   UNL     1      -7.433  -0.335   1.188  0.00  0.00    -0.153 OA
ATOM     28  O   UNL     1      -6.727   0.673   3.353  0.00  0.00    -0.153 OA
BRANCH  26  29
ATOM     29  N   UNL     1      -7.093   2.106   1.373  0.00  0.00    -0.204 NA
ATOM     30  H   UNL     1      -6.439   2.649   0.907  0.00  0.00    +0.144 HD
ATOM     31  H   UNL     1      -7.993   2.441   1.511  0.00  0.00    +0.144 HD
ENDBRANCH  26  29
ENDBRANCH  23  26
ENDBRANCH  19  20
ENDBRANCH   1  19
TORSDOF 6
