REMARK  Name = ZINC62722418
REMARK  4 active torsions:
REMARK  status: ('A' for Active; 'I' for Inactive)
REMARK    1  A    between atoms: C_2  and  C_16
REMARK    2  A    between atoms: C_5  and  N_8
REMARK    3  A    between atoms: C_11  and  O_14
REMARK    4  A    between atoms: C_16  and  O_17
REMARK                            x       y       z     vdW  Elec       q    Type
REMARK                         _______ _______ _______ _____ _____    ______ ____
ROOT
ATOM      1  C   UNL     1      -0.017   1.379   0.010  0.00  0.00    +0.046 A 
ATOM      2  C   UNL     1       1.170   2.088   0.002  0.00  0.00    -0.017 A 
ATOM      3  C   UNL     1       2.380   1.419  -0.013  0.00  0.00    +0.046 A 
ATOM      4  C   UNL     1       2.407   0.036  -0.022  0.00  0.00    +0.147 A 
ATOM      5  C   UNL     1       1.216  -0.681  -0.014  0.00  0.00    +0.101 A 
ATOM      6  C   UNL     1       0.002  -0.004   0.002  0.00  0.00    +0.147 A 
ATOM      7  F   UNL     1      -1.158  -0.696   0.010  0.00  0.00    -0.203 F 
ATOM      8  F   UNL     1       3.589  -0.617  -0.038  0.00  0.00    -0.203 F 
ENDROOT
BRANCH   5   9
ATOM      9  N   UNL     1       1.239  -2.081  -0.022  0.00  0.00    -0.323 N 
ATOM     10  C   UNL     1       1.248  -2.933  -1.226  0.00  0.00    +0.108 C 
ATOM     11  C   UNL     1       1.885  -4.266  -0.763  0.00  0.00    +0.052 C 
ATOM     12  C   UNL     1       1.310  -4.405   0.671  0.00  0.00    +0.133 C 
ATOM     13  C   UNL     1       1.266  -2.945   1.167  0.00  0.00    +0.136 C 
BRANCH  12  14
ATOM     14  O   UNL     1       0.000  -4.976   0.638  0.00  0.00    -0.390 OA
ATOM     15  H   UNL     1      -0.031  -5.867   0.262  0.00  0.00    +0.210 HD
ENDBRANCH  12  14
ENDBRANCH   5   9
BRANCH   2  16
ATOM     16  C   UNL     1       1.145   3.595   0.011  0.00  0.00    +0.191 C 
BRANCH  16  17
ATOM     17  O   UNL     1       1.150   4.064   1.360  0.00  0.00    -0.390 OA
ATOM     18  H   UNL     1       1.135   5.028   1.442  0.00  0.00    +0.210 HD
ENDBRANCH  16  17
ENDBRANCH   2  16
TORSDOF 4
