REMARK  Name = ZINC43943578
REMARK  5 active torsions:
REMARK  status: ('A' for Active; 'I' for Inactive)
REMARK    1  A    between atoms: C_3  and  N_6
REMARK    2  A    between atoms: C_12  and  C_15
REMARK    3  A    between atoms: C_15  and  N_16
REMARK    4  A    between atoms: C_17  and  C_19
REMARK    5  A    between atoms: N_21  and  C_22
REMARK                            x       y       z     vdW  Elec       q    Type
REMARK                         _______ _______ _______ _____ _____    ______ ____
ROOT
ATOM      1  N   UNL     1      10.567   2.105  -2.456  0.00  0.00    -0.307 N 
ATOM      2  C   UNL     1      11.386   2.149  -3.525  0.00  0.00    +0.299 C 
ATOM      3  O   UNL     1      11.085   2.815  -4.494  0.00  0.00    -0.265 OA
ATOM      4  H   UNL     1      10.808   1.573  -1.682  0.00  0.00    +0.149 HD
ENDROOT
BRANCH   2   5
ATOM      5  C   UNL     1      12.665   1.378  -3.518  0.00  0.00    +0.303 C 
ATOM      6  O   UNL     1      12.967   0.712  -2.550  0.00  0.00    -0.265 OA
ATOM      7  N   UNL     1      13.484   1.422  -4.588  0.00  0.00    -0.278 N 
ATOM      8  H   UNL     1      13.281   2.011  -5.331  0.00  0.00    +0.155 HD
BRANCH   7   9
ATOM      9  C   UNL     1      14.628   0.618  -4.626  0.00  0.00    +0.038 A 
ATOM     10  C   UNL     1      15.777   1.073  -5.260  0.00  0.00    +0.027 A 
ATOM     11  C   UNL     1      16.906   0.278  -5.299  0.00  0.00    +0.051 A 
ATOM     12  C   UNL     1      16.896  -0.976  -4.705  0.00  0.00    +0.162 A 
ATOM     13  C   UNL     1      15.749  -1.433  -4.068  0.00  0.00    +0.164 A 
ATOM     14  C   UNL     1      14.617  -0.634  -4.026  0.00  0.00    +0.072 A 
ATOM     15  O   UNL     1      15.724  -2.657  -3.473  0.00  0.00    -0.485 OA
ATOM     16  C   UNL     1      16.752  -3.578  -3.851  0.00  0.00    +0.270 C 
ATOM     17  C   UNL     1      18.095  -2.835  -3.830  0.00  0.00    +0.270 C 
ATOM     18  O   UNL     1      18.018  -1.746  -4.757  0.00  0.00    -0.485 OA
ENDBRANCH   7   9
ENDBRANCH   2   5
BRANCH   1  19
ATOM     19  C   UNL     1       9.313   2.862  -2.463  0.00  0.00    +0.108 C 
BRANCH  19  26
ATOM     20  N   UNL     1       4.065   2.330   0.691  0.00  0.00    -0.264 N 
ATOM     21  C   UNL     1       5.096   1.463   0.697  0.00  0.00    +0.307 C 
ATOM     22  O   UNL     1       4.901   0.288   0.944  0.00  0.00    -0.252 OA
ATOM     23  N   UNL     1       6.344   1.897   0.429  0.00  0.00    -0.285 N 
ATOM     24  C   UNL     1       6.615   3.329   0.245  0.00  0.00    +0.109 C 
ATOM     25  C   UNL     1       7.330   3.527  -1.096  0.00  0.00    +0.024 C 
ATOM     26  C   UNL     1       8.577   2.641  -1.140  0.00  0.00    +0.009 C 
ATOM     27  C   UNL     1       8.165   1.171  -1.024  0.00  0.00    +0.024 C 
ATOM     28  C   UNL     1       7.460   0.947   0.322  0.00  0.00    +0.109 C 
ATOM     29  H   UNL     1       4.230   3.278   0.567  0.00  0.00    +0.157 HD
BRANCH  20  32
ATOM     30  C   UNL     1       0.405   1.884   1.074  0.00  0.00    +0.009 A 
ATOM     31  C   UNL     1       1.593   2.568   0.888  0.00  0.00    +0.031 A 
ATOM     32  C   UNL     1       2.758   1.864   0.863  0.00  0.00    +0.073 A 
ATOM     33  S   UNL     1       2.184   0.192   1.107  0.00  0.00    -0.082 S 
ATOM     34  C   UNL     1       0.437   0.539   1.225  0.00  0.00    +0.047 A 
ENDBRANCH  20  32
ENDBRANCH  19  26
ENDBRANCH   1  19
TORSDOF 5
