REMARK  Name = ZINC01211693
REMARK  9 active torsions:
REMARK  status: ('A' for Active; 'I' for Inactive)
REMARK    1  A    between atoms: C_1  and  C_2
REMARK    2  A    between atoms: C_2  and  C_3
REMARK    3  A    between atoms: C_2  and  C_4
REMARK    4  A    between atoms: C_2  and  C_5
REMARK    5  A    between atoms: C_8  and  C_11
REMARK    6  A    between atoms: N_13  and  C_14
REMARK    7  A    between atoms: C_14  and  C_23
REMARK    8  A    between atoms: C_15  and  C_16
REMARK    9  A    between atoms: N_25  and  N_26
REMARK                            x       y       z     vdW  Elec       q    Type
REMARK                         _______ _______ _______ _____ _____    ______ ____
ROOT
ATOM      1  C   UNL     1       2.574  -4.359  -0.018  0.00  0.00    +0.098 C 
ATOM      2  C   UNL     1       3.777  -4.815   0.400  0.00  0.00    +0.036 C 
ENDROOT
BRANCH   2   3
ATOM      3  C   UNL     1       3.903  -6.184   0.923  0.00  0.00    -0.023 A 
ATOM      4  C   UNL     1       2.829  -6.783   1.591  0.00  0.00    +0.009 A 
ATOM      5  C   UNL     1       2.954  -8.068   2.075  0.00  0.00    +0.016 A 
ATOM      6  C   UNL     1       4.141  -8.761   1.911  0.00  0.00    +0.018 A 
ATOM      7  C   UNL     1       5.210  -8.173   1.256  0.00  0.00    +0.016 A 
ATOM      8  C   UNL     1       5.099  -6.891   0.762  0.00  0.00    +0.009 A 
ATOM      9 BR   UNL     1       4.304 -10.520   2.585  0.00  0.00    -0.050 Br
ENDBRANCH   2   3
BRANCH   1  12
ATOM     10  C   UNL     1       1.263  -2.597  -0.932  0.00  0.00    +0.248 C 
ATOM     11  O   UNL     1       0.366  -3.390  -1.144  0.00  0.00    -0.270 OA
ATOM     12  N   UNL     1       2.428  -3.023  -0.405  0.00  0.00    -0.277 N 
ATOM     13  H   UNL     1       3.166  -2.403  -0.294  0.00  0.00    +0.155 HD
BRANCH  10  17
ATOM     14  C   UNL     1       0.727   1.514  -1.855  0.00  0.00    -0.042 A 
ATOM     15  C   UNL     1      -0.296   0.614  -2.097  0.00  0.00    +0.005 A 
ATOM     16  C   UNL     1      -0.128  -0.722  -1.800  0.00  0.00    +0.013 A 
ATOM     17  C   UNL     1       1.077  -1.167  -1.254  0.00  0.00    +0.037 A 
ATOM     18  C   UNL     1       2.105  -0.254  -1.012  0.00  0.00    +0.013 A 
ATOM     19  C   UNL     1       1.924   1.080  -1.314  0.00  0.00    +0.005 A 
BRANCH  14  21
ATOM     20  C   UNL     1      -0.642   3.526  -1.381  0.00  0.00    +0.015 C 
ATOM     21  C   UNL     1       0.537   2.972  -2.183  0.00  0.00    -0.013 C 
ATOM     22  C   UNL     1       1.807   3.746  -1.823  0.00  0.00    +0.015 C 
ATOM     23  C   UNL     1       0.253   3.126  -3.679  0.00  0.00    +0.015 C 
ENDBRANCH  14  21
ENDBRANCH  10  17
ENDBRANCH   1  12
BRANCH   1  24
ATOM     24  C   UNL     1       1.419  -5.267  -0.064  0.00  0.00    +0.272 C 
ATOM     25  O   UNL     1       0.474  -5.089   0.681  0.00  0.00    -0.268 OA
ATOM     26  N   UNL     1       1.407  -6.298  -0.932  0.00  0.00    -0.249 N 
ATOM     27  H   UNL     1       2.188  -6.484  -1.476  0.00  0.00    +0.169 HD
BRANCH  26  28
ATOM     28  N   UNL     1       0.294  -7.082  -1.047  0.00  0.00    -0.254 NA
ATOM     29  H   UNL     1      -0.519  -6.526  -1.269  0.00  0.00    +0.140 HD
ATOM     30  H   UNL     1       0.433  -7.809  -1.732  0.00  0.00    +0.140 HD
ENDBRANCH  26  28
ENDBRANCH   1  24
TORSDOF 6
