REMARK  Name = ZINC39692062
REMARK  9 active torsions:
REMARK  status: ('A' for Active; 'I' for Inactive)
REMARK    1  A    between atoms: C_1  and  C_2
REMARK    2  A    between atoms: C_6  and  N_8
REMARK    3  A    between atoms: C_9  and  S_14
REMARK    4  A    between atoms: S_14  and  C_15
REMARK    5  A    between atoms: C_15  and  C_16
REMARK    6  A    between atoms: N_18  and  CA_19
REMARK    7  A    between atoms: CA_19  and  CB_21
REMARK    8  A    between atoms: CA_19  and  C_31
REMARK    9  A    between atoms: CB_21  and  CG_22
REMARK                            x       y       z     vdW  Elec       q    Type
REMARK                         _______ _______ _______ _____ _____    ______ ____
ROOT
ATOM      1  C   UNK A   0      -4.093  -4.765   2.281  0.00  0.00    +0.224 C 
ATOM      2  O   UNK A   0      -4.123  -5.566   1.370  0.00  0.00    -0.275 OA
ATOM      3  N   TRP A   1      -5.242  -4.346   2.847  0.00  0.00    -0.301 N 
ATOM      4  H   TRP A   1      -5.217  -3.705   3.575  0.00  0.00    +0.150 HD
ENDROOT
BRANCH   1   5
ATOM      5  C   UNK A   0      -2.771  -4.240   2.778  0.00  0.00    +0.167 C 
BRANCH   5   6
ATOM      6  S   UNK A   0      -1.424  -4.988   1.822  0.00  0.00    -0.114 S 
BRANCH   6   8
ATOM      7  N   UNK A   0       0.051  -2.796   2.390  0.00  0.00    -0.254 N 
ATOM      8  C   UNK A   0       0.077  -4.262   2.535  0.00  0.00    +0.203 C 
ATOM      9  N   UNK A   0       0.130  -4.521   3.995  0.00  0.00    -0.320 NA
ATOM     10  N   UNK A   0       0.658  -3.254   4.530  0.00  0.00    +0.411 N 
ATOM     11  N   UNK A   0       0.051  -2.248   3.651  0.00  0.00    -0.265 NA
ATOM     12  H   UNK A   0      -0.791  -4.712   4.362  0.00  0.00    +0.106 HD
ATOM     13  H   UNK A   0       0.365  -3.119   5.486  0.00  0.00    -0.031 HD
ATOM     14  H   UNK A   0       0.575  -1.386   3.671  0.00  0.00    +0.125 HD
ATOM     15  H   UNK A   0       1.664  -3.227   4.456  0.00  0.00    -0.031 HD
BRANCH   7  21
ATOM     16  C   UNK A   0      -0.018   1.503   0.010  0.00  0.00    +0.044 C 
ATOM     17  C   UNK A   0       0.002  -0.004   0.002  0.00  0.00    -0.049 A 
ATOM     18  C   UNK A   0       0.006  -0.688  -1.200  0.00  0.00    +0.003 A 
ATOM     19  C   UNK A   0       0.024  -2.071  -1.212  0.00  0.00    +0.002 A 
ATOM     20  C   UNK A   0       0.039  -2.773  -0.023  0.00  0.00    +0.024 A 
ATOM     21  C   UNK A   0       0.036  -2.089   1.186  0.00  0.00    +0.046 A 
ATOM     22  C   UNK A   0       0.023  -0.700   1.194  0.00  0.00    +0.027 A 
ENDBRANCH   7  21
ENDBRANCH   6   8
ENDBRANCH   5   6
ENDBRANCH   1   5
BRANCH   3  23
ATOM     23  CA  TRP A   1      -6.527  -4.856   2.363  0.00  0.00    +0.191 C 
BRANCH  23  24
ATOM     24  C   TRP A   1      -6.979  -4.038   1.181  0.00  0.00    +0.376 C 
ATOM     25  O   TRP A   1      -7.662  -4.550   0.311  0.00  0.00    -0.244 OA
ATOM     26  OXT TRP A   1      -6.662  -2.864   1.096  0.00  0.00    -0.244 OA
ENDBRANCH  23  24
BRANCH  23  27
ATOM     27  CB  TRP A   1      -7.567  -4.758   3.480  0.00  0.00    +0.071 C 
BRANCH  27  28
ATOM     28  CG  TRP A   1      -7.176  -5.672   4.613  0.00  0.00    -0.020 A 
ATOM     29  CD2 TRP A   1      -6.256  -5.357   5.708  0.00  0.00    +0.003 A 
ATOM     30  CE3 TRP A   1      -5.504  -4.232   6.051  0.00  0.00    +0.010 A 
ATOM     31  CZ3 TRP A   1      -4.721  -4.255   7.170  0.00  0.00    +0.001 A 
ATOM     32  CH2 TRP A   1      -4.665  -5.389   7.969  0.00  0.00    +0.002 A 
ATOM     33  CZ2 TRP A   1      -5.399  -6.510   7.649  0.00  0.00    +0.026 A 
ATOM     34  CE2 TRP A   1      -6.204  -6.509   6.515  0.00  0.00    +0.047 A 
ATOM     35  NE1 TRP A   1      -7.035  -7.445   5.941  0.00  0.00    -0.360 N 
ATOM     36  CD1 TRP A   1      -7.609  -6.927   4.813  0.00  0.00    +0.087 A 
ATOM     37  HE1 TRP A   1      -7.192  -8.337   6.287  0.00  0.00    +0.165 HD
ENDBRANCH  27  28
ENDBRANCH  23  27
ENDBRANCH   3  23
TORSDOF 8
