REMARK  Name = ZINC40824372
REMARK  3 active torsions:
REMARK  status: ('A' for Active; 'I' for Inactive)
REMARK    1  A    between atoms: C_1  and  C_2
REMARK    2  A    between atoms: C_6  and  C_7
REMARK    3  A    between atoms: N_21  and  N_22
REMARK                            x       y       z     vdW  Elec       q    Type
REMARK                         _______ _______ _______ _____ _____    ______ ____
ROOT
ATOM      1  C   UNL     1      -0.013   1.502   0.010  0.00  0.00    +0.048 C 
ATOM      2  C   UNL     1       0.007  -0.004   0.002  0.00  0.00    +0.009 A 
ATOM      3  C   UNL     1       0.015  -0.839  -1.123  0.00  0.00    +0.042 A 
ATOM      4  C   UNL     1       0.033  -2.138  -0.673  0.00  0.00    +0.115 A 
ATOM      5  O   UNL     1       0.039  -2.112   0.658  0.00  0.00    -0.454 OA
ATOM      6  C   UNL     1       0.027  -0.831   1.091  0.00  0.00    +0.193 A 
ATOM      7  C   UNL     1       0.040  -3.327  -1.599  0.00  0.00    +0.075 C 
ATOM      8  C   UNL     1      -0.483  -2.903  -2.975  0.00  0.00    +0.014 C 
ATOM      9  C   UNL     1       0.288  -1.685  -3.495  0.00  0.00    +0.058 C 
ATOM     10  C   UNL     1       0.009  -0.512  -2.566  0.00  0.00    +0.070 C 
ATOM     11  N   UNL     1      -0.219   0.686  -3.008  0.00  0.00    -0.183 NA
ENDROOT
BRANCH   6  12
ATOM     12  C   UNL     1       0.032  -0.400   2.493  0.00  0.00    +0.285 C 
ATOM     13  O   UNL     1       0.018   0.786   2.765  0.00  0.00    -0.266 OA
ATOM     14  N   UNL     1       0.053  -1.318   3.480  0.00  0.00    -0.264 N 
ATOM     15  C   UNL     1       0.165  -0.911   4.808  0.00  0.00    +0.125 A 
ATOM     16  C   UNL     1       0.292  -1.864   5.812  0.00  0.00    +0.045 A 
ATOM     17  C   UNL     1       0.403  -1.447   7.126  0.00  0.00    +0.025 A 
ATOM     18  C   UNL     1       0.381  -0.083   7.393  0.00  0.00    +0.059 A 
ATOM     19  C   UNL     1       0.252   0.808   6.345  0.00  0.00    +0.132 A 
ATOM     20  N   UNL     1       0.154   0.380   5.101  0.00  0.00    -0.239 NA
ATOM     21 CL   UNL     1       0.515   0.494   9.024  0.00  0.00    -0.082 Cl
ATOM     22  H   UNL     1      -0.009  -2.262   3.266  0.00  0.00    +0.157 HD
ENDBRANCH   6  12
BRANCH  11  23
ATOM     23  N   UNL     1      -0.213   0.937  -4.386  0.00  0.00    -0.191 N 
ATOM     24  C   UNL     1      -0.450   2.182  -4.845  0.00  0.00    +0.317 C 
ATOM     25  O   UNL     1      -0.444   2.400  -6.042  0.00  0.00    -0.251 OA
ATOM     26  N   UNL     1      -0.693   3.185  -3.978  0.00  0.00    -0.312 N 
ATOM     27  H   UNL     1      -0.038   0.215  -5.010  0.00  0.00    +0.179 HD
ATOM     28  H   UNL     1      -0.697   3.011  -3.024  0.00  0.00    +0.147 HD
ATOM     29  H   UNL     1      -0.863   4.081  -4.309  0.00  0.00    +0.147 HD
ENDBRANCH  11  23
TORSDOF 2
