REMARK  Name = ZINC38573989
REMARK  7 active torsions:
REMARK  status: ('A' for Active; 'I' for Inactive)
REMARK    1  A    between atoms: C_1  and  C_2
REMARK    2  A    between atoms: C_2  and  C_22
REMARK    3  A    between atoms: N_3  and  N_4
REMARK    4  A    between atoms: C_5  and  C_7
REMARK    5  A    between atoms: C_9  and  O_21
REMARK    6  A    between atoms: N_17  and  C_20
REMARK    7  A    between atoms: C_24  and  O_34
REMARK                            x       y       z     vdW  Elec       q    Type
REMARK                         _______ _______ _______ _____ _____    ______ ____
ROOT
ATOM      1  N   UNL     1      -0.106  -2.128   1.388  0.00  0.00    -0.206 N 
ATOM      2  C   UNL     1      -0.109  -2.710   2.604  0.00  0.00    +0.247 C 
ATOM      3  O   UNL     1       0.052  -2.035   3.599  0.00  0.00    -0.273 OA
ATOM      4  H   UNL     1      -0.162  -2.675   0.589  0.00  0.00    +0.177 HD
ENDROOT
BRANCH   2   5
ATOM      5  C   UNL     1      -0.311  -4.198   2.727  0.00  0.00    +0.195 C 
ATOM      6  C   UNL     1      -0.459  -4.570   4.202  0.00  0.00    +0.167 C 
ATOM      7  C   UNL     1       0.874  -4.436   4.892  0.00  0.00    +0.003 A 
ATOM      8  C   UNL     1       0.936  -4.027   6.210  0.00  0.00    +0.008 A 
ATOM      9  C   UNL     1       2.161  -3.905   6.839  0.00  0.00    +0.000 A 
ATOM     10  C   UNL     1       3.327  -4.190   6.152  0.00  0.00    +0.002 A 
ATOM     11  C   UNL     1       3.271  -4.598   4.833  0.00  0.00    +0.024 A 
ATOM     12  C   UNL     1       2.042  -4.723   4.199  0.00  0.00    +0.042 A 
ATOM     13  N   UNL     1       1.979  -5.138   2.865  0.00  0.00    -0.273 N 
ATOM     14  C   UNL     1       0.873  -4.914   2.135  0.00  0.00    +0.234 C 
ATOM     15  O   UNL     1       0.830  -5.295   0.985  0.00  0.00    -0.274 OA
ATOM     16  C   UNL     1       3.125  -5.821   2.260  0.00  0.00    +0.138 C 
BRANCH   6  17
ATOM     17  O   UNL     1      -1.405  -3.696   4.822  0.00  0.00    -0.386 OA
ATOM     18  H   UNL     1      -1.550  -3.875   5.761  0.00  0.00    +0.210 HD
ENDBRANCH   6  17
ENDBRANCH   2   5
BRANCH   1  21
ATOM     19  C   UNL     1      -0.149   1.329   0.027  0.00  0.00    +0.063 C 
ATOM     20  C   UNL     1      -0.136  -0.174   0.133  0.00  0.00    +0.053 C 
ATOM     21  N   UNL     1      -0.024  -0.734   1.279  0.00  0.00    -0.188 NA
BRANCH  20  22
ATOM     22  C   UNL     1      -0.254  -1.018  -1.110  0.00  0.00    +0.186 C 
ATOM     23  C   UNL     1       1.067  -0.940  -1.852  0.00  0.00    +0.120 C 
ATOM     24  C   UNL     1       1.028  -0.468  -3.166  0.00  0.00    +0.035 A 
ATOM     25  C   UNL     1       2.210  -0.364  -3.928  0.00  0.00    +0.013 A 
ATOM     26  C   UNL     1       2.146   0.099  -5.207  0.00  0.00    +0.001 A 
ATOM     27  C   UNL     1       0.935   0.473  -5.780  0.00  0.00    +0.002 A 
ATOM     28  C   UNL     1      -0.240   0.395  -5.093  0.00  0.00    +0.024 A 
ATOM     29  C   UNL     1      -0.248  -0.074  -3.768  0.00  0.00    +0.044 A 
ATOM     30  N   UNL     1      -1.403  -0.150  -3.095  0.00  0.00    -0.284 N 
ATOM     31  C   UNL     1      -1.494  -0.578  -1.853  0.00  0.00    +0.233 C 
ATOM     32  O   UNL     1      -2.579  -0.620  -1.303  0.00  0.00    -0.274 OA
ATOM     33  H   UNL     1      -2.216   0.125  -3.547  0.00  0.00    +0.155 HD
BRANCH  23  34
ATOM     34  O   UNL     1       2.215  -1.307  -1.275  0.00  0.00    -0.509 OA
ATOM     35  H   UNL     1       2.990  -1.213  -1.846  0.00  0.00    +0.292 HD
ENDBRANCH  23  34
ENDBRANCH  20  22
ENDBRANCH   1  21
TORSDOF 5
