REMARK  Name = ZINC19932275
REMARK  3 active torsions:
REMARK  status: ('A' for Active; 'I' for Inactive)
REMARK    1  A    between atoms: C_6  and  N_7
REMARK    2  A    between atoms: C_17  and  C_22
REMARK    3  A    between atoms: C_18  and  N_21
REMARK                            x       y       z     vdW  Elec       q    Type
REMARK                         _______ _______ _______ _____ _____    ______ ____
ROOT
ATOM      1  C   UNL     1      -1.252   3.338  -0.025  0.00  0.00    +0.056 A 
ATOM      2  C   UNL     1      -0.061   4.084  -0.019  0.00  0.00    +0.103 A 
ATOM      3  C   UNL     1       1.184   3.408  -0.074  0.00  0.00    +0.114 A 
ATOM      4  C   UNL     1       1.212   2.012  -0.133  0.00  0.00    +0.071 A 
ATOM      5  C   UNL     1       0.045   1.305  -0.138  0.00  0.00    +0.146 A 
ATOM      6  C   UNL     1      -1.193   1.964  -0.089  0.00  0.00    +0.068 A 
ATOM      7  F   UNL     1       0.082  -0.044  -0.196  0.00  0.00    -0.203 F 
ATOM      8  N   UNL     1       2.339   4.129  -0.069  0.00  0.00    -0.122 N 
ATOM      9  O   UNL     1       3.593   3.472  -0.123  0.00  0.00    -0.163 OA
ATOM     10  C   UNL     1       2.277   5.476  -0.010  0.00  0.00    +0.186 C 
ATOM     11  C   UNL     1       1.042   6.120   0.044  0.00  0.00    +0.158 C 
ATOM     12  N   UNL     1      -0.091   5.422   0.038  0.00  0.00    -0.169 N 
ATOM     13  O   UNL     1      -1.161   6.003   0.086  0.00  0.00    -0.078 OA
ENDROOT
BRANCH   6  14
ATOM     14  N   UNL     1      -2.375   1.221  -0.100  0.00  0.00    -0.328 N 
ATOM     15  C   UNL     1      -3.190   1.538  -1.294  0.00  0.00    +0.105 C 
ATOM     16  C   UNL     1      -4.582   0.974  -1.218  0.00  0.00    +0.019 C 
ATOM     17  C   UNL     1      -5.517   2.055  -0.636  0.00  0.00    +0.002 C 
ATOM     18  C   UNL     1      -5.396   2.166   0.814  0.00  0.00    +0.002 C 
ATOM     19  C   UNL     1      -3.971   2.565   1.250  0.00  0.00    +0.019 C 
ATOM     20  C   UNL     1      -3.093   1.345   1.188  0.00  0.00    +0.105 C 
ENDBRANCH   6  14
BRANCH  10  21
ATOM     21  C   UNL     1       3.523   6.270  -0.003  0.00  0.00    +0.265 C 
ATOM     22  O   UNL     1       4.019   6.613   1.052  0.00  0.00    -0.269 OA
ATOM     23  N   UNL     1       4.109   6.615  -1.167  0.00  0.00    -0.324 N 
ATOM     24  H   UNL     1       5.036   7.206  -1.161  0.00  0.00    +0.145 HD
ATOM     25  H   UNL     1       3.660   6.304  -2.122  0.00  0.00    +0.145 HD
ENDBRANCH  10  21
BRANCH  11  26
ATOM     26  N   UNL     1       0.993   7.506   0.103  0.00  0.00    -0.341 N 
ATOM     27  H   UNL     1       0.022   8.021   0.146  0.00  0.00    +0.144 HD
ATOM     28  H   UNL     1       1.925   8.090   0.108  0.00  0.00    +0.144 HD
ENDBRANCH  11  26
TORSDOF 3
