REMARK  Name = ZINC48822662
REMARK  3 active torsions:
REMARK  status: ('A' for Active; 'I' for Inactive)
REMARK    1  A    between atoms: C_1  and  C_2
REMARK    2  A    between atoms: C_7  and  C_9
REMARK    3  A    between atoms: C_7  and  N_12
REMARK                            x       y       z     vdW  Elec       q    Type
REMARK                         _______ _______ _______ _____ _____    ______ ____
ROOT
ATOM      1  N   UNL     1       1.444  -2.513   0.026  0.00  0.00    -0.283 N 
ATOM      2  C   UNL     1       1.588  -3.835  -0.194  0.00  0.00    +0.303 C 
ATOM      3  O   UNL     1       1.230  -4.634   0.650  0.00  0.00    -0.253 OA
ATOM      4  N   UNL     1       2.128  -4.272  -1.349  0.00  0.00    -0.289 N 
ATOM      5  C   UNL     1       2.678  -3.325  -2.332  0.00  0.00    +0.090 C 
ATOM      6  C   UNL     1       4.087  -3.788  -2.716  0.00  0.00    -0.063 C 
ATOM      7  N   UNL     1       4.035  -5.181  -3.179  0.00  0.00    +0.381 N 
ATOM      8  C   UNL     1       3.617  -6.058  -2.078  0.00  0.00    -0.063 C 
ATOM      9  C   UNL     1       2.190  -5.708  -1.660  0.00  0.00    +0.090 C 
ATOM     10  H   UNL     1       1.793  -1.875  -0.615  0.00  0.00    +0.151 HD
ATOM     11  H   UNL     1       3.374  -5.257  -3.937  0.00  0.00    -0.086 HD
ATOM     12  H   UNL     1       4.949  -5.460  -3.502  0.00  0.00    -0.086 HD
ENDROOT
BRANCH   1  18
ATOM     13  C   UNL     1      -0.039   1.520   0.007  0.00  0.00    +0.007 C 
ATOM     14  C   UNL     1      -0.012  -0.010   0.001  0.00  0.00    -0.012 C 
ATOM     15  C   UNL     1      -1.446  -0.545   0.019  0.00  0.00    +0.003 C 
ATOM     16  C   UNL     1      -1.419  -2.075   0.014  0.00  0.00    +0.003 C 
ATOM     17  C   UNL     1      -0.671  -2.576   1.251  0.00  0.00    +0.037 C 
ATOM     18  C   UNL     1       0.762  -2.041   1.233  0.00  0.00    +0.137 C 
ATOM     19  C   UNL     1       0.735  -0.511   1.239  0.00  0.00    +0.040 C 
BRANCH  18  20
ATOM     20  C   UNL     1       1.498  -2.535   2.452  0.00  0.00    +0.379 C 
ATOM     21  O   UNL     1       2.499  -3.218   2.324  0.00  0.00    -0.244 OA
ATOM     22  O   UNL     1       1.091  -2.252   3.566  0.00  0.00    -0.244 OA
ENDBRANCH  18  20
ENDBRANCH   1  18
TORSDOF 2
