REMARK  Name = ZINC06158970
REMARK  8 active torsions:
REMARK  status: ('A' for Active; 'I' for Inactive)
REMARK    1  A    between atoms: C_1  and  C_2
REMARK    2  A    between atoms: C_2  and  C_4
REMARK    3  A    between atoms: C_8  and  O_30
REMARK    4  A    between atoms: C_9  and  C_29
REMARK    5  A    between atoms: C_18  and  O_28
REMARK    6  A    between atoms: C_19  and  C_26
REMARK    7  A    between atoms: C_22  and  O_25
REMARK    8  A    between atoms: C_26  and  O_27
REMARK                            x       y       z     vdW  Elec       q    Type
REMARK                         _______ _______ _______ _____ _____    ______ ____
ROOT
ATOM      1  C   UNL     1       1.056   2.224  -0.254  0.00  0.00    +0.064 C 
ATOM      2  C   UNL     1       1.639   2.280   1.180  0.00  0.00    +0.014 C 
ATOM      3  C   UNL     1       1.700   3.780   1.577  0.00  0.00    +0.036 C 
ATOM      4  C   UNL     1       0.677   4.421   0.624  0.00  0.00    +0.075 C 
ATOM      5  C   UNL     1       0.983   3.695  -0.701  0.00  0.00    +0.006 C 
ATOM      6  C   UNL     1      -0.038   4.041  -1.749  0.00  0.00    +0.010 C 
ATOM      7  C   UNL     1      -0.397   5.535  -1.722  0.00  0.00    +0.005 C 
ATOM      8  C   UNL     1       0.617   6.367  -0.957  0.00  0.00    +0.006 C 
ATOM      9  C   UNL     1       0.728   5.919   0.493  0.00  0.00    +0.025 C 
ATOM     10  C   UNL     1       1.921   6.563   1.181  0.00  0.00    +0.009 C 
ATOM     11  C   UNL     1       2.063   8.030   0.751  0.00  0.00    +0.036 C 
ATOM     12  C   UNL     1       0.724   8.551   0.261  0.00  0.00    +0.076 C 
ATOM     13  C   UNL     1       0.319   7.861  -1.040  0.00  0.00    +0.026 C 
ATOM     14  C   UNL     1      -1.139   8.190  -1.328  0.00  0.00    +0.015 C 
ATOM     15  C   UNL     1      -1.293   9.707  -1.481  0.00  0.00    +0.032 C 
ATOM     16  C   UNL     1      -0.738  10.472  -0.286  0.00  0.00    +0.117 C 
ATOM     17  C   UNL     1       0.700  10.064   0.051  0.00  0.00    +0.066 C 
ATOM     18  C   UNL     1       2.398   4.018  -1.216  0.00  0.00    +0.015 C 
ENDROOT
BRANCH   1  20
ATOM     19  C   UNL     1      -0.338   0.034  -0.414  0.00  0.00    +0.086 C 
ATOM     20  C   UNL     1      -0.271   1.532  -0.264  0.00  0.00    +0.134 C 
ATOM     21  O   UNL     1      -1.288   2.174  -0.156  0.00  0.00    -0.297 OA
ENDBRANCH   1  20
BRANCH  16  22
ATOM     22  O   UNL     1      -0.766  11.875  -0.575  0.00  0.00    -0.392 OA
ATOM     23  H   UNL     1      -1.644  12.213  -0.799  0.00  0.00    +0.210 HD
ENDBRANCH  16  22
BRANCH  12  24
ATOM     24  O   UNL     1      -0.264   8.284   1.271  0.00  0.00    -0.388 OA
ATOM     25  H   UNL     1      -0.072   8.692   2.127  0.00  0.00    +0.210 HD
ENDBRANCH  12  24
BRANCH   4  26
ATOM     26  O   UNL     1      -0.645   4.066   1.086  0.00  0.00    -0.388 OA
ATOM     27  H   UNL     1      -0.899   4.490   1.917  0.00  0.00    +0.210 HD
ENDBRANCH   4  26
BRANCH  13  28
ATOM     28  C   UNL     1       1.176   8.397  -2.199  0.00  0.00    +0.165 C 
BRANCH  28  29
ATOM     29  O   UNL     1       0.778   7.767  -3.417  0.00  0.00    -0.394 OA
ATOM     30  H   UNL     1       1.277   8.058  -4.193  0.00  0.00    +0.209 HD
ENDBRANCH  28  29
ENDBRANCH  13  28
TORSDOF 6
