REMARK  Name = ZINC31943687
REMARK  5 active torsions:
REMARK  status: ('A' for Active; 'I' for Inactive)
REMARK    1  A    between atoms: C_1  and  C_2
REMARK    2  A    between atoms: N_10  and  C_11
REMARK    3  A    between atoms: C_11  and  C_12
REMARK    4  A    between atoms: C_16  and  C_18
REMARK    5  A    between atoms: C_18  and  N_20
REMARK                            x       y       z     vdW  Elec       q    Type
REMARK                         _______ _______ _______ _____ _____    ______ ____
ROOT
ATOM      1  C   UNL     1      -0.535  -3.240  -1.697  0.00  0.00    +0.086 C 
ATOM      2  C   UNL     1      -1.406  -2.091  -2.138  0.00  0.00    +0.108 A 
ATOM      3  N   UNL     1      -1.961  -1.984  -3.309  0.00  0.00    -0.232 NA
ATOM      4  C   UNL     1      -2.677  -0.831  -3.372  0.00  0.00    +0.093 A 
ATOM      5  C   UNL     1      -3.453  -0.234  -4.371  0.00  0.00    +0.079 A 
ATOM      6  C   UNL     1      -4.074   0.973  -4.129  0.00  0.00    +0.168 A 
ATOM      7  C   UNL     1      -3.932   1.603  -2.889  0.00  0.00    +0.168 A 
ATOM      8  C   UNL     1      -3.167   1.022  -1.896  0.00  0.00    +0.077 A 
ATOM      9  C   UNL     1      -2.542  -0.196  -2.127  0.00  0.00    +0.073 A 
ATOM     10  N   UNL     1      -1.727  -1.015  -1.368  0.00  0.00    -0.323 N 
ATOM     11  O   UNL     1      -4.640   2.771  -2.911  0.00  0.00    -0.453 OA
ATOM     12  C   UNL     1      -4.877   3.051  -4.303  0.00  0.00    +0.466 C 
ATOM     13  O   UNL     1      -4.870   1.750  -4.921  0.00  0.00    -0.453 OA
ENDROOT
BRANCH  10  14
ATOM     14  C   UNL     1      -1.294  -0.773   0.010  0.00  0.00    +0.158 C 
BRANCH  14  15
ATOM     15  C   UNL     1       0.002  -0.004   0.002  0.00  0.00    -0.027 A 
ATOM     16  C   UNL     1       1.208  -0.683  -0.013  0.00  0.00    +0.005 A 
ATOM     17  C   UNL     1       2.402   0.015  -0.020  0.00  0.00    +0.001 A 
ATOM     18  C   UNL     1       2.398   1.395  -0.013  0.00  0.00    +0.010 A 
ATOM     19  C   UNL     1       1.185   2.087   0.002  0.00  0.00    +0.003 A 
ATOM     20  C   UNL     1      -0.017   1.375   0.010  0.00  0.00    +0.015 A 
BRANCH  19  21
ATOM     21  C   UNL     1       1.173   3.563   0.011  0.00  0.00    +0.077 C 
ATOM     22  S   UNL     1      -0.040   4.404   0.878  0.00  0.00    -0.035 S 
BRANCH  21  23
ATOM     23  N   UNL     1       2.117   4.248  -0.664  0.00  0.00    -0.352 N 
ATOM     24  H   UNL     1       2.108   5.348  -0.658  0.00  0.00    +0.143 HD
ATOM     25  H   UNL     1       2.897   3.708  -1.221  0.00  0.00    +0.143 HD
ENDBRANCH  21  23
ENDBRANCH  19  21
ENDBRANCH  14  15
ENDBRANCH  10  14
TORSDOF 4
