REMARK  Name = ZINC45147998
REMARK  5 active torsions:
REMARK  status: ('A' for Active; 'I' for Inactive)
REMARK    1  A    between atoms: C_3  and  N_20
REMARK    2  A    between atoms: C_4  and  S_8
REMARK    3  A    between atoms: S_8  and  N_11
REMARK    4  A    between atoms: N_11  and  C_12
REMARK    5  A    between atoms: C_12  and  C_13
REMARK                            x       y       z     vdW  Elec       q    Type
REMARK                         _______ _______ _______ _____ _____    ______ ____
ROOT
ATOM      1  S   UNL     1       3.876  -0.900  -0.379  0.00  0.00    +0.063 S 
ATOM      2  O   UNL     1       3.556  -2.058  -1.139  0.00  0.00    -0.153 OA
ATOM      3  O   UNL     1       4.855   0.040  -0.799  0.00  0.00    -0.153 OA
ENDROOT
BRANCH   1   7
ATOM      4  C   UNL     1       0.010   1.405   0.158  0.00  0.00    +0.005 A 
ATOM      5  C   UNL     1       1.218   2.017   0.429  0.00  0.00    +0.025 A 
ATOM      6  C   UNL     1       2.405   1.314   0.266  0.00  0.00    +0.054 A 
ATOM      7  C   UNL     1       2.373  -0.004  -0.170  0.00  0.00    +0.161 A 
ATOM      8  C   UNL     1       1.161  -0.613  -0.439  0.00  0.00    +0.151 A 
ATOM      9  C   UNL     1      -0.020   0.092  -0.275  0.00  0.00    +0.040 A 
ATOM     10  F   UNL     1       1.129  -1.895  -0.863  0.00  0.00    -0.203 F 
BRANCH   6  11
ATOM     11  N   UNL     1       3.627   1.932   0.538  0.00  0.00    -0.356 N 
ATOM     12  H   UNL     1       3.665   2.891   0.682  0.00  0.00    +0.142 HD
ATOM     13  H   UNL     1       4.439   1.403   0.584  0.00  0.00    +0.142 HD
ENDBRANCH   6  11
ENDBRANCH   1   7
BRANCH   1  14
ATOM     14  N   UNL     1       4.342  -1.431   1.119  0.00  0.00    -0.189 NA
ATOM     15  H   UNL     1       5.162  -1.099   1.518  0.00  0.00    +0.148 HD
BRANCH  14  16
ATOM     16  C   UNL     1       3.517  -2.402   1.841  0.00  0.00    +0.111 C 
BRANCH  16  17
ATOM     17  C   UNL     1       4.326  -3.002   2.993  0.00  0.00    +0.030 C 
ATOM     18  C   UNL     1       3.508  -4.104   3.674  0.00  0.00    +0.009 C 
ATOM     19  C   UNL     1       4.295  -4.643   4.872  0.00  0.00    +0.028 C 
ATOM     20  C   UNL     1       4.618  -3.487   5.823  0.00  0.00    +0.160 C 
ATOM     21  O   UNL     1       5.352  -2.484   5.119  0.00  0.00    -0.379 OA
ATOM     22  C   UNL     1       4.648  -1.909   4.016  0.00  0.00    +0.164 C 
ENDBRANCH  16  17
ENDBRANCH  14  16
ENDBRANCH   1  14
TORSDOF 5
