REMARK  Name = ZINC25074663
REMARK  6 active torsions:
REMARK  status: ('A' for Active; 'I' for Inactive)
REMARK    1  A    between atoms: N_13  and  C_17
REMARK    2  A    between atoms: C_17  and  C_18
REMARK    3  A    between atoms: N_20  and  C_21
REMARK    4  A    between atoms: C_21  and  C_22
REMARK    5  A    between atoms: C_23  and  C_24
REMARK    6  A    between atoms: C_28  and  C_30
REMARK                            x       y       z     vdW  Elec       q    Type
REMARK                         _______ _______ _______ _____ _____    ______ ____
ROOT
ATOM      1  C   UNL     1       1.362  10.271  -2.601  0.00  0.00    +0.213 C 
ENDROOT
BRANCH   1  14
ATOM      2  C   UNL     1      -2.155  15.776  -0.381  0.00  0.00    +0.000 A 
ATOM      3  C   UNL     1      -1.746  14.476  -0.148  0.00  0.00    +0.000 A 
ATOM      4  C   UNL     1      -0.805  13.895  -0.973  0.00  0.00    +0.006 A 
ATOM      5  C   UNL     1      -0.263  14.607  -2.036  0.00  0.00    -0.012 A 
ATOM      6  C   UNL     1      -0.673  15.901  -2.269  0.00  0.00    -0.042 A 
ATOM      7  C   UNL     1      -1.620  16.484  -1.437  0.00  0.00    +0.004 A 
ATOM      8  C   UNL     1      -0.137  16.724  -3.411  0.00  0.00    +0.035 C 
ATOM      9  C   UNL     1       1.173  16.137  -3.930  0.00  0.00    +0.008 C 
ATOM     10  C   UNL     1       0.957  14.647  -4.219  0.00  0.00    +0.040 C 
ATOM     11  C   UNL     1       0.762  13.921  -2.894  0.00  0.00    +0.138 C 
ATOM     12  C   UNL     1       0.363  12.483  -3.144  0.00  0.00    +0.251 C 
ATOM     13  O   UNL     1      -0.630  12.086  -3.715  0.00  0.00    -0.272 OA
ATOM     14  N   UNL     1       1.342  11.736  -2.594  0.00  0.00    -0.215 N 
ATOM     15  C   UNL     1       2.296  12.498  -2.046  0.00  0.00    +0.310 C 
ATOM     16  O   UNL     1       3.283  12.053  -1.494  0.00  0.00    -0.252 OA
ATOM     17  N   UNL     1       2.039  13.814  -2.176  0.00  0.00    -0.281 N 
ATOM     18  H   UNL     1       2.574  14.724  -1.865  0.00  0.00    +0.152 HD
ENDBRANCH   1  14
BRANCH   1  19
ATOM     19  C   UNL     1       0.670   9.753  -1.366  0.00  0.00    +0.232 C 
ATOM     20  O   UNL     1       0.206  10.531  -0.560  0.00  0.00    -0.274 OA
ATOM     21  N   UNL     1       0.567   8.425  -1.158  0.00  0.00    -0.303 N 
ATOM     22  H   UNL     1       0.988   7.720  -1.890  0.00  0.00    +0.150 HD
BRANCH  21  23
ATOM     23  C   UNL     1      -0.105   7.922   0.042  0.00  0.00    +0.194 C 
BRANCH  23  24
ATOM     24  C   UNL     1      -0.086   6.450   0.035  0.00  0.00    -0.078 C 
ATOM     25  C   UNL     1      -0.070   5.277   0.029  0.00  0.00    -0.065 C 
BRANCH  25  26
ATOM     26  C   UNL     1      -0.050   3.845   0.022  0.00  0.00    +0.026 A 
ATOM     27  C   UNL     1       1.166   3.160   0.007  0.00  0.00    +0.017 A 
ATOM     28  C   UNL     1       1.178   1.781   0.000  0.00  0.00    +0.002 A 
ATOM     29  C   UNL     1      -0.013   1.076   0.008  0.00  0.00    +0.012 A 
ATOM     30  C   UNL     1      -1.221   1.748   0.017  0.00  0.00    +0.056 A 
ATOM     31  C   UNL     1      -1.247   3.128   0.030  0.00  0.00    +0.029 A 
BRANCH  30  32
ATOM     32  C   UNL     1      -2.513   0.972   0.019  0.00  0.00    +0.417 C 
ATOM     33  F   UNL     1      -2.234  -0.399   0.011  0.00  0.00    -0.166 F 
ATOM     34  F   UNL     1      -3.247   1.291   1.167  0.00  0.00    -0.166 F 
ATOM     35  F   UNL     1      -3.258   1.304  -1.118  0.00  0.00    -0.166 F 
ENDBRANCH  30  32
ENDBRANCH  25  26
ENDBRANCH  23  24
ENDBRANCH  21  23
ENDBRANCH   1  19
TORSDOF 6
