REMARK  Name = ZINC35788655
REMARK  5 active torsions:
REMARK  status: ('A' for Active; 'I' for Inactive)
REMARK    1  A    between atoms: C_1  and  C_2
REMARK    2  A    between atoms: N_5  and  C_11
REMARK    3  A    between atoms: C_6  and  C_10
REMARK    4  A    between atoms: C_16  and  C_17
REMARK    5  A    between atoms: C_17  and  N_19
REMARK                            x       y       z     vdW  Elec       q    Type
REMARK                         _______ _______ _______ _____ _____    ______ ____
ROOT
ATOM      1  C   UNL     1       0.501  -2.779  -2.201  0.00  0.00    +0.040 A 
ATOM      2  C   UNL     1      -0.751  -3.380  -2.186  0.00  0.00    +0.024 A 
ATOM      3  C   UNL     1      -1.119  -4.238  -3.203  0.00  0.00    +0.002 A 
ATOM      4  C   UNL     1      -0.245  -4.507  -4.244  0.00  0.00    +0.001 A 
ATOM      5  C   UNL     1       1.002  -3.921  -4.276  0.00  0.00    +0.012 A 
ATOM      6  C   UNL     1       1.387  -3.045  -3.257  0.00  0.00    +0.024 A 
ENDROOT
BRANCH   1  10
ATOM      7  C   UNL     1      -0.106   1.560  -0.050  0.00  0.00    +0.039 C 
ATOM      8  C   UNL     1      -0.052   0.031  -0.040  0.00  0.00    +0.132 C 
ATOM      9  C   UNL     1       0.668  -0.464  -1.300  0.00  0.00    +0.136 C 
ATOM     10  N   UNL     1       0.873  -1.916  -1.178  0.00  0.00    -0.322 N 
ATOM     11  C   UNL     1       1.485  -2.426   0.060  0.00  0.00    +0.096 C 
ATOM     12  C   UNL     1       0.725  -1.836   1.253  0.00  0.00    +0.182 C 
ATOM     13  O   UNL     1       0.662  -0.415   1.116  0.00  0.00    -0.373 OA
ATOM     14  C   UNL     1       1.389  -3.953   0.090  0.00  0.00    +0.030 C 
ENDBRANCH   1  10
BRANCH   6  15
ATOM     15  C   UNL     1       2.715  -2.411  -3.288  0.00  0.00    +0.079 C 
ATOM     16  S   UNL     1       3.247  -1.474  -1.958  0.00  0.00    -0.035 S 
BRANCH  15  17
ATOM     17  N   UNL     1       3.512  -2.568  -4.363  0.00  0.00    -0.352 N 
ATOM     18  H   UNL     1       3.211  -3.099  -5.117  0.00  0.00    +0.143 HD
ATOM     19  H   UNL     1       4.387  -2.150  -4.383  0.00  0.00    +0.143 HD
ENDBRANCH  15  17
ENDBRANCH   6  15
TORSDOF 3
