REMARK  Name = ZINC52306121
REMARK  6 active torsions:
REMARK  status: ('A' for Active; 'I' for Inactive)
REMARK    1  A    between atoms: C_1  and  C_2
REMARK    2  A    between atoms: C_2  and  C_3
REMARK    3  A    between atoms: C_2  and  C_4
REMARK    4  A    between atoms: C_6  and  S_16
REMARK    5  A    between atoms: N_7  and  C_9
REMARK    6  A    between atoms: S_16  and  N_19
REMARK                            x       y       z     vdW  Elec       q    Type
REMARK                         _______ _______ _______ _____ _____    ______ ____
ROOT
ATOM      1  C   UNL     1      -1.367  -0.681   0.010  0.00  0.00    +0.068 A 
ATOM      2  C   UNL     1      -2.133  -0.968   1.145  0.00  0.00    +0.074 A 
ATOM      3  C   UNL     1      -3.406  -1.192   0.743  0.00  0.00    +0.197 A 
ATOM      4  N   UNL     1      -3.443  -1.051  -0.602  0.00  0.00    -0.212 N 
ATOM      5  N   UNL     1      -2.152  -0.725  -1.036  0.00  0.00    -0.169 NA
ENDROOT
BRANCH   4   6
ATOM      6  C   UNL     1      -4.575  -1.200  -1.416  0.00  0.00    +0.081 A 
ATOM      7  C   UNL     1      -5.752  -0.537  -1.098  0.00  0.00    +0.029 A 
ATOM      8  C   UNL     1      -6.865  -0.685  -1.902  0.00  0.00    +0.002 A 
ATOM      9  C   UNL     1      -6.808  -1.493  -3.023  0.00  0.00    +0.001 A 
ATOM     10  C   UNL     1      -5.638  -2.155  -3.343  0.00  0.00    +0.017 A 
ATOM     11  C   UNL     1      -4.518  -2.006  -2.546  0.00  0.00    +0.043 A 
ATOM     12 BR   UNL     1      -2.915  -2.906  -2.988  0.00  0.00    -0.048 Br
ENDBRANCH   4   6
BRANCH   1  14
ATOM     13  C   UNL     1       0.316   1.121   0.278  0.00  0.00    +0.014 C 
ATOM     14  C   UNL     1       0.107  -0.368  -0.004  0.00  0.00    +0.033 C 
ATOM     15  C   UNL     1       0.814  -1.195   1.072  0.00  0.00    +0.014 C 
ENDBRANCH   1  14
BRANCH   3  16
ATOM     16  S   UNL     1      -4.769  -1.595   1.783  0.00  0.00    +0.073 S 
ATOM     17  O   UNL     1      -5.402  -0.367   2.117  0.00  0.00    -0.152 OA
ATOM     18  O   UNL     1      -5.462  -2.662   1.150  0.00  0.00    -0.152 OA
BRANCH  16  19
ATOM     19  N   UNL     1      -4.147  -2.205   3.192  0.00  0.00    -0.202 NA
ATOM     20  H   UNL     1      -4.628  -2.088   4.026  0.00  0.00    +0.144 HD
ATOM     21  H   UNL     1      -3.301  -2.679   3.183  0.00  0.00    +0.144 HD
ENDBRANCH  16  19
ENDBRANCH   3  16
TORSDOF 4
