REMARK  Name = ZINC11615751
REMARK  9 active torsions:
REMARK  status: ('A' for Active; 'I' for Inactive)
REMARK    1  A    between atoms: C_1  and  C_2
REMARK    2  A    between atoms: C_3  and  C_24
REMARK    3  A    between atoms: C_6  and  N_11
REMARK    4  A    between atoms: N_11  and  S_12
REMARK    5  A    between atoms: S_12  and  C_15
REMARK    6  A    between atoms: C_18  and  C_21
REMARK    7  A    between atoms: C_21  and  C_22
REMARK    8  A    between atoms: C_21  and  C_23
REMARK    9  A    between atoms: N_26  and  O_27
REMARK                            x       y       z     vdW  Elec       q    Type
REMARK                         _______ _______ _______ _____ _____    ______ ____
ROOT
ATOM      1  C   UNL     1      -3.454  -1.107   2.476  0.00  0.00    +0.087 C 
ATOM      2  C   UNL     1      -3.724  -0.756   1.036  0.00  0.00    +0.115 A 
ATOM      3  C   UNL     1      -2.890  -1.030  -0.005  0.00  0.00    +0.087 A 
ATOM      4  C   UNL     1      -3.570  -0.512  -1.209  0.00  0.00    +0.034 A 
ATOM      5  C   UNL     1      -3.255  -0.483  -2.563  0.00  0.00    +0.037 A 
ATOM      6  C   UNL     1      -4.139   0.095  -3.459  0.00  0.00    +0.049 A 
ATOM      7  C   UNL     1      -5.335   0.642  -3.002  0.00  0.00    +0.028 A 
ATOM      8  C   UNL     1      -5.652   0.616  -1.661  0.00  0.00    +0.049 A 
ATOM      9  C   UNL     1      -4.775   0.039  -0.750  0.00  0.00    +0.136 A 
ATOM     10  O   UNL     1      -4.817  -0.128   0.589  0.00  0.00    -0.459 OA
ENDROOT
BRANCH   3  11
ATOM     11  C   UNL     1      -1.586  -1.706   0.057  0.00  0.00    +0.270 C 
ATOM     12  O   UNL     1      -0.570  -1.056   0.213  0.00  0.00    -0.268 OA
ATOM     13  N   UNL     1      -1.516  -3.047  -0.060  0.00  0.00    -0.193 N 
ATOM     14  H   UNL     1      -2.326  -3.566  -0.185  0.00  0.00    +0.183 HD
BRANCH  13  15
ATOM     15  O   UNL     1      -0.260  -3.698  -0.007  0.00  0.00    -0.295 OA
ATOM     16  H   UNL     1      -0.310  -4.659  -0.104  0.00  0.00    +0.241 HD
ENDBRANCH  13  15
ENDBRANCH   3  11
BRANCH   6  17
ATOM     17  N   UNL     1      -3.830   0.129  -4.822  0.00  0.00    -0.216 N 
ATOM     18  H   UNL     1      -3.550   0.961  -5.236  0.00  0.00    +0.174 HD
BRANCH  17  19
ATOM     19  S   UNL     1      -3.943  -1.250  -5.732  0.00  0.00    +0.072 S 
ATOM     20  O   UNL     1      -3.624  -0.884  -7.067  0.00  0.00    -0.150 OA
ATOM     21  O   UNL     1      -3.232  -2.260  -5.029  0.00  0.00    -0.150 OA
BRANCH  19  22
ATOM     22  C   UNL     1      -5.637  -1.736  -5.733  0.00  0.00    +0.109 A 
ATOM     23  C   UNL     1      -6.124  -2.546  -4.725  0.00  0.00    +0.029 A 
ATOM     24  C   UNL     1      -7.454  -2.924  -4.724  0.00  0.00    +0.006 A 
ATOM     25  C   UNL     1      -8.294  -2.499  -5.736  0.00  0.00    -0.045 A 
ATOM     26  C   UNL     1      -7.805  -1.693  -6.747  0.00  0.00    +0.006 A 
ATOM     27  C   UNL     1      -6.476  -1.312  -6.746  0.00  0.00    +0.029 A 
BRANCH  25  28
ATOM     28  C   UNL     1      -9.743  -2.913  -5.737  0.00  0.00    +0.013 C 
ATOM     29  C   UNL     1      -9.837  -4.439  -5.796  0.00  0.00    +0.012 C 
ATOM     30  C   UNL     1     -10.418  -2.410  -4.460  0.00  0.00    +0.012 C 
ENDBRANCH  25  28
ENDBRANCH  19  22
ENDBRANCH  17  19
ENDBRANCH   6  17
TORSDOF 6
