REMARK  Name = ZINC09237505
REMARK  5 active torsions:
REMARK  status: ('A' for Active; 'I' for Inactive)
REMARK    1  A    between atoms: C_1  and  C_2
REMARK    2  A    between atoms: C_7  and  N_8
REMARK    3  A    between atoms: C_9  and  C_11
REMARK    4  A    between atoms: C_13  and  C_23
REMARK    5  A    between atoms: C_17  and  C_22
REMARK                            x       y       z     vdW  Elec       q    Type
REMARK                         _______ _______ _______ _____ _____    ______ ____
ROOT
ATOM      1  C   UNL     1      -3.094   0.890   1.489  0.00  0.00    +0.166 C 
ATOM      2  C   UNL     1      -2.461   0.983   0.094  0.00  0.00    +0.140 C 
ATOM      3  N   UNL     1      -3.364   1.673  -0.828  0.00  0.00    -0.272 N 
ATOM      4  N   UNL     1      -4.567   1.061  -0.976  0.00  0.00    -0.225 N 
ATOM      5  C   UNL     1      -5.444   1.185  -2.015  0.00  0.00    +0.148 A 
ATOM      6  N   UNL     1      -6.478   0.437  -1.743  0.00  0.00    -0.132 NA
ATOM      7  N   UNL     1      -6.312  -0.153  -0.609  0.00  0.00    -0.121 NA
ATOM      8  C   UNL     1      -5.160   0.190  -0.105  0.00  0.00    +0.209 A 
ATOM      9  S   UNL     1      -4.431  -0.340   1.413  0.00  0.00    -0.069 S 
ATOM     10  C   UNL     1      -5.254   2.031  -3.248  0.00  0.00    +0.090 C 
ATOM     11  H   UNL     1      -3.480   2.640  -0.565  0.00  0.00    +0.167 HD
ENDROOT
BRANCH   2  12
ATOM     12  C   UNL     1      -1.163   1.744   0.184  0.00  0.00    -0.024 A 
ATOM     13  C   UNL     1       0.037   1.060   0.226  0.00  0.00    +0.007 A 
ATOM     14  C   UNL     1       1.228   1.757   0.303  0.00  0.00    +0.020 A 
ATOM     15  C   UNL     1       1.218   3.140   0.344  0.00  0.00    +0.041 A 
ATOM     16  C   UNL     1       0.015   3.824   0.309  0.00  0.00    +0.020 A 
ATOM     17  C   UNL     1      -1.175   3.125   0.231  0.00  0.00    +0.007 A 
ATOM     18 CL   UNL     1       2.713   4.017   0.442  0.00  0.00    -0.084 Cl
ENDBRANCH   2  12
BRANCH   1  20
ATOM     19  N   UNL     1      -3.097   2.920   2.903  0.00  0.00    -0.284 N 
ATOM     20  C   UNL     1      -3.652   2.233   1.885  0.00  0.00    +0.233 C 
ATOM     21  O   UNL     1      -4.602   2.695   1.288  0.00  0.00    -0.274 OA
ATOM     22  H   UNL     1      -2.299   2.582   3.338  0.00  0.00    +0.155 HD
BRANCH  19  29
ATOM     23  C   UNL     1      -2.762   3.673   5.626  0.00  0.00    +0.046 C 
ATOM     24  C   UNL     1      -3.533   4.527   4.652  0.00  0.00    -0.028 A 
ATOM     25  C   UNL     1      -4.097   5.716   5.071  0.00  0.00    +0.020 A 
ATOM     26  C   UNL     1      -4.809   6.498   4.179  0.00  0.00    +0.018 A 
ATOM     27  C   UNL     1      -4.954   6.094   2.864  0.00  0.00    +0.017 A 
ATOM     28  C   UNL     1      -4.388   4.908   2.438  0.00  0.00    +0.024 A 
ATOM     29  C   UNL     1      -3.672   4.122   3.332  0.00  0.00    +0.036 A 
ATOM     30 BR   UNL     1      -5.586   8.122   4.759  0.00  0.00    -0.050 Br
ENDBRANCH  19  29
ENDBRANCH   1  20
TORSDOF 3
