REMARK  Name = ZINC62557879
REMARK  0 active torsions:
REMARK  status: ('A' for Active; 'I' for Inactive)
REMARK                            x       y       z     vdW  Elec       q    Type
REMARK                         _______ _______ _______ _____ _____    ______ ____
ROOT
ATOM      1  C   UNL     1      -0.017   1.383   0.010  0.00  0.00    +0.039 A 
ATOM      2  C   UNL     1       1.163   2.096   0.002  0.00  0.00    +0.071 A 
ATOM      3  C   UNL     1       2.383   1.417  -0.013  0.00  0.00    +0.131 A 
ATOM      4  C   UNL     1       2.398   0.015  -0.021  0.00  0.00    +0.178 A 
ATOM      5  C   UNL     1       1.203  -0.688  -0.013  0.00  0.00    +0.099 A 
ATOM      6  C   UNL     1       0.002  -0.004   0.002  0.00  0.00    +0.041 A 
ATOM      7 BR   UNL     1      -1.626  -0.966   0.013  0.00  0.00    -0.049 Br
ATOM      8 CL   UNL     1       1.215  -2.424  -0.023  0.00  0.00    -0.079 Cl
ATOM      9  O   UNL     1       3.700  -0.353  -0.035  0.00  0.00    -0.423 OA
ATOM     10  C   UNL     1       4.452   0.762  -0.036  0.00  0.00    +0.286 A 
ATOM     11  N   UNL     1       3.684   1.821  -0.023  0.00  0.00    -0.194 NA
ATOM     12  N   UNL     1       5.829   0.785  -0.049  0.00  0.00    -0.313 N 
ATOM     13 CL   UNL     1       1.132   3.832   0.011  0.00  0.00    -0.081 Cl
ATOM     14  H   UNL     1       6.328  -0.046  -0.058  0.00  0.00    +0.147 HD
ATOM     15  H   UNL     1       6.299   1.634  -0.049  0.00  0.00    +0.147 HD
ENDROOT
TORSDOF 0
