REMARK  Name = ZINC67350919
REMARK  10 active torsions:
REMARK  status: ('A' for Active; 'I' for Inactive)
REMARK    1  A    between atoms: C_1  and  C_2
REMARK    2  A    between atoms: C_3  and  C_29
REMARK    3  A    between atoms: C_5  and  C_7
REMARK    4  A    between atoms: C_11  and  N_13
REMARK    5  A    between atoms: C_14  and  C_16
REMARK    6  A    between atoms: N_18  and  C_19
REMARK    7  A    between atoms: C_19  and  C_21
REMARK    8  A    between atoms: C_19  and  C_22
REMARK    9  A    between atoms: N_25  and  C_28
REMARK   10  A    between atoms: C_26  and  C_27
REMARK                            x       y       z     vdW  Elec       q    Type
REMARK                         _______ _______ _______ _____ _____    ______ ____
ROOT
ATOM      1  N   UNL     1       0.068  -4.050   5.156  0.00  0.00    -0.278 N 
ATOM      2  C   UNL     1      -0.016  -5.135   5.951  0.00  0.00    +0.303 C 
ATOM      3  O   UNL     1       0.002  -6.247   5.465  0.00  0.00    -0.265 OA
ATOM      4  H   UNL     1       0.131  -3.165   5.548  0.00  0.00    +0.155 HD
ENDROOT
BRANCH   1   9
ATOM      5  C   UNL     1      -0.668  -5.368   1.794  0.00  0.00    +0.039 A 
ATOM      6  C   UNL     1       0.069  -4.484   1.004  0.00  0.00    +0.013 A 
ATOM      7  C   UNL     1       0.795  -3.470   1.596  0.00  0.00    +0.003 A 
ATOM      8  C   UNL     1       0.795  -3.326   2.970  0.00  0.00    +0.023 A 
ATOM      9  C   UNL     1       0.065  -4.200   3.766  0.00  0.00    +0.035 A 
ATOM     10  C   UNL     1      -0.673  -5.219   3.181  0.00  0.00    +0.036 A 
BRANCH   5  15
ATOM     11  C   UNL     1      -3.646  -9.324   1.193  0.00  0.00    +0.069 C 
ATOM     12  C   UNL     1      -2.732  -8.164   0.893  0.00  0.00    +0.080 A 
ATOM     13  C   UNL     1      -2.326  -7.770  -0.328  0.00  0.00    +0.125 A 
ATOM     14  O   UNL     1      -1.522  -6.702  -0.156  0.00  0.00    -0.440 OA
ATOM     15  C   UNL     1      -1.446  -6.455   1.163  0.00  0.00    +0.228 A 
ATOM     16  N   UNL     1      -2.184  -7.337   1.796  0.00  0.00    -0.214 NA
ATOM     17  C   UNL     1      -2.699  -8.406  -1.642  0.00  0.00    +0.088 C 
ENDBRANCH   5  15
ENDBRANCH   1   9
BRANCH   2  18
ATOM     18  C   UNL     1      -0.130  -4.969   7.431  0.00  0.00    +0.300 C 
ATOM     19  O   UNL     1      -0.148  -3.857   7.917  0.00  0.00    -0.265 OA
ATOM     20  N   UNL     1      -0.214  -6.054   8.226  0.00  0.00    -0.301 N 
ATOM     21  H   UNL     1      -0.200  -6.942   7.837  0.00  0.00    +0.150 HD
BRANCH  20  22
ATOM     22  C   UNL     1      -0.327  -5.891   9.678  0.00  0.00    +0.104 C 
ATOM     23  C   UNL     1       1.070  -5.736  10.283  0.00  0.00    +0.033 C 
BRANCH  22  24
ATOM     24  C   UNL     1      -0.999  -7.103  10.268  0.00  0.00    +0.013 A 
ATOM     25  C   UNL     1      -1.013  -8.388   9.716  0.00  0.00    +0.140 A 
ATOM     26  N   UNL     1      -1.694  -9.169  10.514  0.00  0.00    -0.179 NA
ATOM     27  N   UNL     1      -2.135  -8.406  11.602  0.00  0.00    -0.271 N 
ATOM     28  C   UNL     1      -1.691  -7.143  11.431  0.00  0.00    +0.041 A 
ATOM     29  C   UNL     1      -1.927  -5.983  12.364  0.00  0.00    +0.065 C 
ATOM     30  C   UNL     1      -2.932  -8.893  12.731  0.00  0.00    +0.172 C 
ENDBRANCH  22  24
ENDBRANCH  20  22
ENDBRANCH   2  18
TORSDOF 5
