REMARK  Name = ZINC62614981
REMARK  4 active torsions:
REMARK  status: ('A' for Active; 'I' for Inactive)
REMARK    1  A    between atoms: C_1  and  C_2
REMARK    2  A    between atoms: C_4  and  C_17
REMARK    3  A    between atoms: C_13  and  C_14
REMARK    4  A    between atoms: C_14  and  O_16
REMARK                            x       y       z     vdW  Elec       q    Type
REMARK                         _______ _______ _______ _____ _____    ______ ____
ROOT
ATOM      1  C   UNL     1      -0.143   1.472   0.110  0.00  0.00    +0.044 C 
ATOM      2  C   UNL     1      -0.113  -0.032   0.021  0.00  0.00    -0.047 A 
ATOM      3  C   UNL     1       0.175  -0.642  -1.190  0.00  0.00    +0.007 A 
ATOM      4  C   UNL     1       0.201  -2.018  -1.289  0.00  0.00    -0.039 A 
ATOM      5  C   UNL     1      -0.065  -2.792  -0.158  0.00  0.00    +0.023 A 
ATOM      6  C   UNL     1      -0.347  -2.172   1.068  0.00  0.00    +0.128 A 
ATOM      7  C   UNL     1      -0.369  -0.790   1.148  0.00  0.00    +0.049 A 
ATOM      8  O   UNL     1      -0.584  -2.934   2.174  0.00  0.00    -0.491 OA
ATOM      9  C   UNL     1      -1.797  -3.681   2.181  0.00  0.00    +0.229 C 
ATOM     10  C   UNL     1      -1.618  -5.050   1.542  0.00  0.00    +0.046 C 
ATOM     11  C   UNL     1      -1.365  -4.980   0.050  0.00  0.00    +0.039 C 
ATOM     12  C   UNL     1      -0.059  -4.263  -0.223  0.00  0.00    -0.030 C 
ATOM     13  C   UNL     1       1.069  -4.948  -0.513  0.00  0.00    +0.095 C 
ATOM     14  C   UNL     1       0.513  -2.680  -2.606  0.00  0.00    +0.044 C 
ENDROOT
BRANCH  13  15
ATOM     15  C   UNL     1       1.094  -6.359  -0.386  0.00  0.00    +0.330 C 
ATOM     16  O   UNL     1       0.143  -6.943   0.097  0.00  0.00    -0.246 OA
BRANCH  15  17
ATOM     17  O   UNL     1       2.173  -7.055  -0.801  0.00  0.00    -0.478 OA
ATOM     18  H   UNL     1       2.098  -8.011  -0.673  0.00  0.00    +0.295 HD
ENDBRANCH  15  17
ENDBRANCH  13  15
TORSDOF 2
