REMARK  Name = ZINC03199735
REMARK  4 active torsions:
REMARK  status: ('A' for Active; 'I' for Inactive)
REMARK    1  A    between atoms: N_10  and  C_11
REMARK    2  A    between atoms: C_11  and  C_12
REMARK    3  A    between atoms: N_14  and  N_15
REMARK    4  A    between atoms: N_18  and  C_19
REMARK                            x       y       z     vdW  Elec       q    Type
REMARK                         _______ _______ _______ _____ _____    ______ ____
ROOT
ATOM      1  C   UNL     1       2.382   3.761  -0.225  0.00  0.00    +0.246 C 
ATOM      2  O   UNL     1       3.366   3.153  -0.591  0.00  0.00    -0.273 OA
ATOM      3  N   UNL     1       1.183   3.147  -0.194  0.00  0.00    -0.232 N 
ATOM      4  H   UNL     1       0.397   3.633   0.098  0.00  0.00    +0.173 HD
ENDROOT
BRANCH   3   5
ATOM      5  N   UNL     1       1.073   1.806  -0.585  0.00  0.00    -0.218 N 
ATOM      6  C   UNL     1      -0.127   1.191  -0.554  0.00  0.00    +0.320 C 
ATOM      7  O   UNL     1      -0.222   0.028  -0.892  0.00  0.00    -0.251 OA
ATOM      8  N   UNL     1      -1.220   1.869  -0.153  0.00  0.00    -0.268 N 
ATOM      9  H   UNL     1       1.859   1.319  -0.877  0.00  0.00    +0.174 HD
ATOM     10  H   UNL     1      -1.134   2.776   0.180  0.00  0.00    +0.156 HD
BRANCH   8  11
ATOM     11  C   UNL     1      -2.481   1.264  -0.217  0.00  0.00    +0.036 A 
ATOM     12  C   UNL     1      -3.602   2.022  -0.532  0.00  0.00    +0.025 A 
ATOM     13  C   UNL     1      -4.844   1.423  -0.599  0.00  0.00    +0.023 A 
ATOM     14  C   UNL     1      -4.975   0.069  -0.344  0.00  0.00    +0.059 A 
ATOM     15  C   UNL     1      -3.861  -0.689  -0.026  0.00  0.00    +0.061 A 
ATOM     16  C   UNL     1      -2.614  -0.094   0.038  0.00  0.00    +0.044 A 
ATOM     17 CL   UNL     1      -4.029  -2.387   0.293  0.00  0.00    -0.082 Cl
ATOM     18 CL   UNL     1      -6.539  -0.681  -0.425  0.00  0.00    -0.082 Cl
ENDBRANCH   8  11
ENDBRANCH   3   5
BRANCH   1  19
ATOM     19  C   UNL     1       2.501   5.203   0.195  0.00  0.00    +0.202 C 
BRANCH  19  29
ATOM     20  C   UNL     1       6.432   3.325   2.350  0.00  0.00    +0.000 A 
ATOM     21  C   UNL     1       5.154   3.630   2.783  0.00  0.00    +0.002 A 
ATOM     22  C   UNL     1       4.326   4.400   1.994  0.00  0.00    +0.023 A 
ATOM     23  C   UNL     1       4.769   4.875   0.758  0.00  0.00    +0.033 A 
ATOM     24  C   UNL     1       6.047   4.562   0.328  0.00  0.00    -0.026 A 
ATOM     25  C   UNL     1       6.874   3.789   1.128  0.00  0.00    +0.005 A 
ATOM     26  C   UNL     1       6.582   5.037  -0.999  0.00  0.00    +0.038 C 
ATOM     27  C   UNL     1       5.697   6.162  -1.539  0.00  0.00    +0.024 C 
ATOM     28  C   UNL     1       4.235   5.715  -1.410  0.00  0.00    +0.106 C 
ATOM     29  N   UNL     1       3.887   5.654   0.011  0.00  0.00    -0.321 N 
ENDBRANCH  19  29
ENDBRANCH   1  19
TORSDOF 4
