REMARK  Name = ZINC41805036
REMARK  7 active torsions:
REMARK  status: ('A' for Active; 'I' for Inactive)
REMARK    1  A    between atoms: C_1  and  C_2
REMARK    2  A    between atoms: C_2  and  C_3
REMARK    3  A    between atoms: C_6  and  C_9
REMARK    4  A    between atoms: C_6  and  N_12
REMARK    5  A    between atoms: N_12  and  C_13
REMARK    6  A    between atoms: C_13  and  C_15
REMARK    7  A    between atoms: C_13  and  C_16
REMARK                            x       y       z     vdW  Elec       q    Type
REMARK                         _______ _______ _______ _____ _____    ______ ____
ROOT
ATOM      1  C   UNL     1      -0.631  -1.626  -1.121  0.00  0.00    -0.011 C 
ATOM      2  C   UNL     1      -1.758  -0.608  -0.936  0.00  0.00    +0.003 C 
ATOM      3  C   UNL     1      -3.023  -1.328  -0.463  0.00  0.00    -0.001 C 
ATOM      4  C   UNL     1      -3.439  -2.366  -1.507  0.00  0.00    +0.036 C 
ATOM      5  C   UNL     1      -2.312  -3.384  -1.693  0.00  0.00    -0.001 C 
ATOM      6  C   UNL     1      -1.048  -2.664  -2.165  0.00  0.00    +0.003 C 
ENDROOT
BRANCH   4   7
ATOM      7  C   UNL     1      -4.685  -3.075  -1.042  0.00  0.00    +0.346 C 
ATOM      8  O   UNL     1      -5.372  -3.687  -1.841  0.00  0.00    -0.248 OA
ATOM      9  O   UNL     1      -5.005  -3.036   0.134  0.00  0.00    -0.248 OA
ENDBRANCH   4   7
BRANCH   4  10
ATOM     10  N   UNL     1      -3.707  -1.694  -2.786  0.00  0.00    +0.397 N 
ATOM     11  H   UNL     1      -2.852  -1.295  -3.142  0.00  0.00    -0.083 HD
ATOM     12  H   UNL     1      -4.068  -2.363  -3.449  0.00  0.00    -0.083 HD
BRANCH  10  13
ATOM     13  C   UNL     1      -4.696  -0.627  -2.580  0.00  0.00    +0.014 C 
ATOM     14  C   UNL     1      -6.049  -1.247  -2.226  0.00  0.00    -0.004 C 
BRANCH  13  15
ATOM     15  C   UNL     1      -4.830   0.184  -3.844  0.00  0.00    +0.196 C 
ATOM     16  O   UNL     1      -4.168  -0.100  -4.819  0.00  0.00    -0.278 OA
ATOM     17  N   UNL     1      -5.687   1.223  -3.890  0.00  0.00    -0.331 N 
ATOM     18  H   UNL     1      -6.217   1.450  -3.110  0.00  0.00    +0.145 HD
ATOM     19  H   UNL     1      -5.773   1.745  -4.703  0.00  0.00    +0.145 HD
ENDBRANCH  13  15
ENDBRANCH  10  13
ENDBRANCH   4  10
BRANCH   1  21
ATOM     20  C   UNL     1       1.121   0.042  -0.497  0.00  0.00    +0.004 C 
ATOM     21  C   UNL     1       0.634  -0.906  -1.594  0.00  0.00    -0.000 C 
ENDBRANCH   1  21
TORSDOF 5
