REMARK  Name = ZINC39686142
REMARK  9 active torsions:
REMARK  status: ('A' for Active; 'I' for Inactive)
REMARK    1  A    between atoms: C_1  and  C_2
REMARK    2  A    between atoms: C_2  and  C_3
REMARK    3  A    between atoms: C_2  and  C_4
REMARK    4  A    between atoms: C_9  and  N_12
REMARK    5  A    between atoms: C_13  and  C_15
REMARK    6  A    between atoms: C_26  and  C_28
REMARK    7  A    between atoms: C_28  and  C_29
REMARK    8  A    between atoms: C_29  and  O_30
REMARK    9  A    between atoms: O_30  and  C_31
REMARK                            x       y       z     vdW  Elec       q    Type
REMARK                         _______ _______ _______ _____ _____    ______ ____
ROOT
ATOM      1  C   UNL     1      -3.792  -7.745   2.982  0.00  0.00    +0.100 C 
ATOM      2  C   UNL     1      -2.518  -8.572   3.264  0.00  0.00    +0.121 C 
ATOM      3  N   UNL     1      -3.003  -9.962   3.432  0.00  0.00    -0.300 N 
ATOM      4  C   UNL     1      -4.063 -10.110   2.406  0.00  0.00    +0.115 C 
ATOM      5  C   UNL     1      -4.803  -8.758   2.418  0.00  0.00    -0.004 C 
ATOM      6  C   UNL     1      -5.209  -8.366   1.001  0.00  0.00    -0.010 C 
ATOM      7  C   UNL     1      -6.259  -9.354   0.484  0.00  0.00    -0.082 C 
ATOM      8  N   UNL     1      -7.428  -9.338   1.371  0.00  0.00    +0.379 N 
ATOM      9  C   UNL     1      -7.047  -9.805   2.710  0.00  0.00    -0.082 C 
ATOM     10  C   UNL     1      -6.031  -8.836   3.321  0.00  0.00    -0.010 C 
ATOM     11  C   UNL     1      -2.578 -10.884   4.319  0.00  0.00    +0.218 C 
ATOM     12  O   UNL     1      -3.078 -11.989   4.332  0.00  0.00    -0.276 OA
ATOM     13  H   UNL     1      -7.788  -8.397   1.435  0.00  0.00    -0.086 HD
ATOM     14  H   UNL     1      -8.142  -9.943   0.996  0.00  0.00    -0.086 HD
ENDROOT
BRANCH   1  16
ATOM     15  N   UNL     1      -4.306  -5.588   1.886  0.00  0.00    -0.312 N 
ATOM     16  C   UNL     1      -3.506  -6.669   1.966  0.00  0.00    +0.218 C 
ATOM     17  O   UNL     1      -2.555  -6.776   1.222  0.00  0.00    -0.275 OA
ATOM     18  H   UNL     1      -5.067  -5.503   2.482  0.00  0.00    +0.149 HD
BRANCH  15  24
ATOM     19  C   UNL     1      -5.591  -1.758  -1.685  0.00  0.00    +0.218 C 
ATOM     20  O   UNL     1      -6.058  -2.164  -2.728  0.00  0.00    -0.275 OA
ATOM     21  N   UNL     1      -4.771  -2.545  -0.961  0.00  0.00    -0.301 N 
ATOM     22  C   UNL     1      -4.298  -2.118   0.362  0.00  0.00    +0.109 C 
ATOM     23  C   UNL     1      -4.621  -3.216   1.380  0.00  0.00    +0.041 C 
ATOM     24  C   UNL     1      -4.028  -4.542   0.899  0.00  0.00    +0.076 C 
ATOM     25  C   UNL     1      -4.656  -4.927  -0.443  0.00  0.00    +0.041 C 
ATOM     26  C   UNL     1      -4.338  -3.850  -1.478  0.00  0.00    +0.109 C 
BRANCH  19  28
ATOM     27  C   UNL     1      -6.297   0.512  -2.390  0.00  0.00    +0.017 C 
ATOM     28  C   UNL     1      -5.929  -0.372  -1.197  0.00  0.00    +0.069 C 
ATOM     29  C   UNL     1      -7.113  -0.445  -0.232  0.00  0.00    +0.017 C 
ENDBRANCH  19  28
ENDBRANCH  15  24
ENDBRANCH   1  16
BRANCH  11  30
ATOM     30  C   UNL     1      -1.479 -10.542   5.292  0.00  0.00    +0.124 C 
BRANCH  30  31
ATOM     31  C   UNL     1      -1.188 -11.755   6.179  0.00  0.00    +0.168 C 
BRANCH  31  32
ATOM     32  O   UNL     1      -0.147 -11.431   7.102  0.00  0.00    -0.382 OA
ATOM     33  C   UNL     1       0.203 -12.501   7.982  0.00  0.00    +0.194 C 
ENDBRANCH  31  32
ENDBRANCH  30  31
ENDBRANCH  11  30
TORSDOF 6
