REMARK  Name = ZINC44783284
REMARK  7 active torsions:
REMARK  status: ('A' for Active; 'I' for Inactive)
REMARK    1  A    between atoms: C_1  and  C_2
REMARK    2  A    between atoms: C_2  and  C_3
REMARK    3  A    between atoms: C_2  and  C_4
REMARK    4  A    between atoms: C_2  and  N_5
REMARK    5  A    between atoms: C_6  and  C_8
REMARK    6  A    between atoms: C_8  and  C_14
REMARK    7  A    between atoms: N_15  and  O_16
REMARK                            x       y       z     vdW  Elec       q    Type
REMARK                         _______ _______ _______ _____ _____    ______ ____
ROOT
ATOM      1  C   UNL     1       2.738  -0.522  -2.667  0.00  0.00    +0.105 C 
ATOM      2  C   UNL     1       2.054   0.070  -3.901  0.00  0.00    +0.024 C 
ATOM      3  C   UNL     1       2.020   1.595  -3.784  0.00  0.00    +0.001 C 
ATOM      4  C   UNL     1       3.450   2.131  -3.686  0.00  0.00    +0.000 C 
ATOM      5  C   UNL     1       4.133   1.540  -2.452  0.00  0.00    +0.001 C 
ATOM      6  C   UNL     1       4.167   0.014  -2.569  0.00  0.00    +0.024 C 
ENDROOT
BRANCH   1   7
ATOM      7  C   UNL     1       2.772  -2.024  -2.783  0.00  0.00    +0.147 C 
ATOM      8  N   UNL     1       3.896  -2.654  -2.692  0.00  0.00    -0.076 NA
ATOM      9  N   UNL     1       1.604  -2.725  -2.985  0.00  0.00    -0.343 N 
ATOM     10  H   UNL     1       0.752  -2.261  -2.980  0.00  0.00    +0.144 HD
ATOM     11  H   UNL     1       1.633  -3.684  -3.133  0.00  0.00    +0.144 HD
BRANCH   8  12
ATOM     12  O   UNL     1       3.928  -4.065  -2.800  0.00  0.00    -0.408 OA
ATOM     13  H   UNL     1       4.813  -4.446  -2.720  0.00  0.00    +0.328 HD
ENDBRANCH   8  12
ENDBRANCH   1   7
BRANCH   1  15
ATOM     14  N   UNL     1       2.463  -0.418  -0.211  0.00  0.00    -0.310 N 
ATOM     15  C   UNL     1       1.969  -0.130  -1.431  0.00  0.00    +0.227 C 
ATOM     16  O   UNL     1       0.905   0.443  -1.535  0.00  0.00    -0.275 OA
ATOM     17  H   UNL     1       3.277  -0.939  -0.127  0.00  0.00    +0.149 HD
BRANCH  14  19
ATOM     18  C   UNL     1       0.353  -0.515   1.022  0.00  0.00    +0.031 C 
ATOM     19  C   UNL     1       1.772   0.057   0.990  0.00  0.00    +0.026 C 
ATOM     20  C   UNL     1       1.704   1.586   0.969  0.00  0.00    +0.031 C 
ATOM     21  C   UNL     1       2.535  -0.402   2.234  0.00  0.00    +0.031 C 
ENDBRANCH  14  19
ENDBRANCH   1  15
TORSDOF 4
