REMARK  Name = ZINC09493892
REMARK  10 active torsions:
REMARK  status: ('A' for Active; 'I' for Inactive)
REMARK    1  A    between atoms: C_1  and  C_2
REMARK    2  A    between atoms: C_5  and  N_9
REMARK    3  A    between atoms: C_6  and  C_8
REMARK    4  A    between atoms: N_9  and  S_10
REMARK    5  A    between atoms: S_10  and  C_13
REMARK    6  A    between atoms: C_15  and  N_20
REMARK    7  A    between atoms: C_21  and  C_23
REMARK    8  A    between atoms: C_23  and  N_24
REMARK    9  A    between atoms: C_27  and  C_31
REMARK   10  A    between atoms: C_27  and  C_32
REMARK                            x       y       z     vdW  Elec       q    Type
REMARK                         _______ _______ _______ _____ _____    ______ ____
ROOT
ATOM      1  C   UNL     1       2.379   0.398  -2.581  0.00  0.00    +0.128 A 
ATOM      2  C   UNL     1       3.377   0.119  -3.495  0.00  0.00    +0.053 A 
ATOM      3  C   UNL     1       3.158   0.340  -4.848  0.00  0.00    +0.035 A 
ATOM      4  C   UNL     1       1.937   0.841  -5.280  0.00  0.00    +0.025 A 
ATOM      5  C   UNL     1       0.943   1.118  -4.362  0.00  0.00    +0.024 A 
ATOM      6  C   UNL     1       1.161   0.892  -3.014  0.00  0.00    +0.068 A 
ATOM      7 CL   UNL     1      -0.093   1.234  -1.864  0.00  0.00    -0.082 Cl
ENDROOT
BRANCH   3   8
ATOM      8  N   UNL     1       4.167   0.059  -5.777  0.00  0.00    -0.284 N 
ATOM      9  C   UNL     1       5.013  -0.968  -5.561  0.00  0.00    +0.235 C 
ATOM     10  O   UNL     1       4.841  -1.708  -4.616  0.00  0.00    -0.274 OA
ATOM     11  H   UNL     1       4.258   0.602  -6.575  0.00  0.00    +0.155 HD
BRANCH   9  12
ATOM     12  C   UNL     1       6.174  -1.197  -6.495  0.00  0.00    +0.214 C 
BRANCH  12  13
ATOM     13  N   UNL     1       6.937  -2.365  -6.048  0.00  0.00    -0.215 N 
ATOM     14  C   UNL     1       7.974  -2.309  -5.189  0.00  0.00    +0.246 C 
ATOM     15  O   UNL     1       8.434  -1.320  -4.660  0.00  0.00    -0.273 OA
ATOM     16  C   UNL     1       8.444  -3.740  -5.021  0.00  0.00    +0.107 C 
ATOM     17  N   UNL     1       7.538  -4.508  -5.892  0.00  0.00    -0.285 N 
ATOM     18  C   UNL     1       6.694  -3.619  -6.448  0.00  0.00    +0.310 C 
ATOM     19  O   UNL     1       5.811  -3.921  -7.226  0.00  0.00    -0.252 OA
ATOM     20  C   UNL     1       8.302  -4.190  -3.565  0.00  0.00    +0.041 C 
ATOM     21  C   UNL     1       9.893  -3.885  -5.491  0.00  0.00    +0.041 C 
ATOM     22  H   UNL     1       7.547  -5.467  -6.037  0.00  0.00    +0.151 HD
ENDBRANCH  12  13
ENDBRANCH   9  12
ENDBRANCH   3   8
BRANCH   1  23
ATOM     23  S   UNL     1       2.655   0.118  -0.864  0.00  0.00    +0.074 S 
ATOM     24  O   UNL     1       4.001  -0.320  -0.735  0.00  0.00    -0.150 OA
ATOM     25  O   UNL     1       1.556  -0.651  -0.396  0.00  0.00    -0.150 OA
BRANCH  23  26
ATOM     26  N   UNL     1       2.561   1.588  -0.107  0.00  0.00    -0.216 N 
ATOM     27  H   UNL     1       1.824   1.778   0.494  0.00  0.00    +0.174 HD
BRANCH  26  32
ATOM     28  C   UNL     1       6.551   5.512  -1.026  0.00  0.00    +0.044 C 
ATOM     29  C   UNL     1       5.490   4.469  -0.782  0.00  0.00    -0.050 A 
ATOM     30  C   UNL     1       5.103   3.625  -1.807  0.00  0.00    +0.005 A 
ATOM     31  C   UNL     1       4.128   2.672  -1.588  0.00  0.00    +0.025 A 
ATOM     32  C   UNL     1       3.544   2.554  -0.333  0.00  0.00    +0.051 A 
ATOM     33  C   UNL     1       3.939   3.399   0.696  0.00  0.00    -0.028 A 
ATOM     34  C   UNL     1       4.911   4.354   0.468  0.00  0.00    +0.008 A 
ATOM     35  C   UNL     1       3.308   3.275   2.058  0.00  0.00    +0.046 C 
ENDBRANCH  26  32
ENDBRANCH  23  26
ENDBRANCH   1  23
TORSDOF 6
