REMARK  Name = ZINC40325792
REMARK  4 active torsions:
REMARK  status: ('A' for Active; 'I' for Inactive)
REMARK    1  A    between atoms: C_1  and  C_2
REMARK    2  A    between atoms: C_15  and  C_17
REMARK    3  A    between atoms: C_19  and  N_24
REMARK    4  A    between atoms: C_21  and  N_23
REMARK                            x       y       z     vdW  Elec       q    Type
REMARK                         _______ _______ _______ _____ _____    ______ ____
ROOT
ATOM      1  C   UNL     1       1.176   1.922   0.343  0.00  0.00    +0.008 C 
ATOM      2  C   UNL     1       0.850   0.438   0.159  0.00  0.00    -0.008 C 
ATOM      3  C   UNL     1       1.591  -0.100  -1.068  0.00  0.00    +0.022 C 
ATOM      4  C   UNL     1       1.256  -1.581  -1.266  0.00  0.00    +0.108 C 
ATOM      5  N   UNL     1       1.534  -2.308  -0.017  0.00  0.00    -0.294 N 
ATOM      6  C   UNL     1       0.923  -1.816   1.222  0.00  0.00    +0.080 C 
ATOM      7  C   UNL     1       1.294  -0.340   1.397  0.00  0.00    +0.012 C 
ATOM      8  C   UNL     1       0.610   0.203   2.650  0.00  0.00    +0.005 C 
ATOM      9  C   UNL     1       1.101  -0.585   3.868  0.00  0.00    +0.000 C 
ATOM     10  C   UNL     1       0.769  -2.067   3.696  0.00  0.00    +0.002 C 
ATOM     11  C   UNL     1       1.435  -2.608   2.424  0.00  0.00    +0.023 C 
ATOM     12  C   UNL     1       2.329  -3.397  -0.013  0.00  0.00    +0.247 C 
ATOM     13  O   UNL     1       2.636  -3.920   1.040  0.00  0.00    -0.270 OA
ENDROOT
BRANCH  12  14
ATOM     14  C   UNL     1       2.828  -3.954  -1.288  0.00  0.00    +0.040 A 
ATOM     15  C   UNL     1       4.141  -4.414  -1.385  0.00  0.00    +0.036 A 
ATOM     16  C   UNL     1       4.605  -4.936  -2.583  0.00  0.00    +0.027 A 
ATOM     17  C   UNL     1       3.764  -5.002  -3.686  0.00  0.00    +0.045 A 
ATOM     18  C   UNL     1       2.456  -4.544  -3.594  0.00  0.00    +0.027 A 
ATOM     19  C   UNL     1       1.984  -4.026  -2.397  0.00  0.00    +0.036 A 
BRANCH  18  20
ATOM     20  N   UNL     1       1.613  -4.612  -4.706  0.00  0.00    -0.358 N 
ATOM     21  H   UNL     1       1.942  -4.978  -5.542  0.00  0.00    +0.142 HD
ATOM     22  H   UNL     1       0.700  -4.293  -4.642  0.00  0.00    +0.142 HD
ENDBRANCH  18  20
BRANCH  16  23
ATOM     23  N   UNL     1       5.921  -5.397  -2.680  0.00  0.00    -0.358 N 
ATOM     24  H   UNL     1       6.509  -5.351  -1.910  0.00  0.00    +0.142 HD
ATOM     25  H   UNL     1       6.246  -5.762  -3.518  0.00  0.00    +0.142 HD
ENDBRANCH  16  23
ENDBRANCH  12  14
TORSDOF 3
