REMARK  Name = ZINC64837864
REMARK  5 active torsions:
REMARK  status: ('A' for Active; 'I' for Inactive)
REMARK    1  A    between atoms: C_1  and  N_2
REMARK    2  A    between atoms: C_3  and  C_5
REMARK    3  A    between atoms: C_7  and  N_12
REMARK    4  A    between atoms: C_13  and  C_15
REMARK    5  A    between atoms: N_21  and  C_22
REMARK                            x       y       z     vdW  Elec       q    Type
REMARK                         _______ _______ _______ _____ _____    ______ ____
ROOT
ATOM      1  N   UNL     1      -1.155  -5.003   0.675  0.00  0.00    -0.280 N 
ATOM      2  C   UNL     1      -1.020  -6.342   0.744  0.00  0.00    +0.267 C 
ATOM      3  O   UNL     1      -0.491  -6.948  -0.170  0.00  0.00    -0.268 OA
ATOM      4  H   UNL     1      -1.513  -4.512   1.432  0.00  0.00    +0.155 HD
ENDROOT
BRANCH   1   7
ATOM      5  C   UNL     1       0.173  -2.388  -1.558  0.00  0.00    +0.057 A 
ATOM      6  C   UNL     1      -0.200  -3.065  -0.396  0.00  0.00    +0.037 A 
ATOM      7  C   UNL     1      -0.779  -4.320  -0.487  0.00  0.00    +0.035 A 
ATOM      8  C   UNL     1      -0.987  -4.902  -1.732  0.00  0.00    +0.025 A 
ATOM      9  C   UNL     1      -0.617  -4.234  -2.883  0.00  0.00    +0.022 A 
ATOM     10  C   UNL     1      -0.044  -2.979  -2.805  0.00  0.00    +0.053 A 
ATOM     11 CL   UNL     1       0.412  -2.140  -4.254  0.00  0.00    -0.083 Cl
BRANCH   5  14
ATOM     12  C   UNL     1       1.612   0.847  -0.177  0.00  0.00    +0.128 C 
ATOM     13  N   UNL     1       1.000  -0.481  -0.265  0.00  0.00    -0.314 N 
ATOM     14  C   UNL     1       0.791  -1.048  -1.469  0.00  0.00    +0.245 C 
ATOM     15  O   UNL     1       1.111  -0.459  -2.483  0.00  0.00    -0.270 OA
ATOM     16  H   UNL     1       0.744  -0.951   0.544  0.00  0.00    +0.149 HD
ENDBRANCH   5  14
ENDBRANCH   1   7
BRANCH   2  17
ATOM     17  C   UNL     1      -1.511  -7.069   1.918  0.00  0.00    +0.127 A 
ATOM     18  C   UNL     1      -2.158  -6.536   2.979  0.00  0.00    +0.116 A 
ATOM     19  N   UNL     1      -2.442  -7.552   3.853  0.00  0.00    -0.339 N 
ATOM     20  H   UNL     1      -2.903  -7.456   4.700  0.00  0.00    +0.167 HD
ATOM     21  C   UNL     1      -1.975  -8.706   3.339  0.00  0.00    +0.163 A 
ATOM     22  S   UNL     1      -2.096 -10.248   4.074  0.00  0.00    -0.013 S 
ATOM     23  N   UNL     1      -1.403  -8.445   2.148  0.00  0.00    -0.284 N 
BRANCH  23  24
ATOM     24  C   UNL     1      -0.805  -9.381   1.295  0.00  0.00    +0.049 A 
ATOM     25  C   UNL     1       0.562  -9.329   1.054  0.00  0.00    +0.026 A 
ATOM     26  C   UNL     1       1.149 -10.254   0.213  0.00  0.00    +0.002 A 
ATOM     27  C   UNL     1       0.377 -11.231  -0.389  0.00  0.00    +0.000 A 
ATOM     28  C   UNL     1      -0.985 -11.284  -0.152  0.00  0.00    +0.002 A 
ATOM     29  C   UNL     1      -1.577 -10.366   0.693  0.00  0.00    +0.026 A 
ENDBRANCH  23  24
ENDBRANCH   2  17
TORSDOF 4
