REMARK  Name = ZINC65277460
REMARK  5 active torsions:
REMARK  status: ('A' for Active; 'I' for Inactive)
REMARK    1  A    between atoms: C_4  and  C_7
REMARK    2  A    between atoms: C_7  and  C_8
REMARK    3  A    between atoms: C_7  and  N_15
REMARK    4  A    between atoms: N_15  and  C_16
REMARK    5  A    between atoms: C_16  and  C_17
REMARK                            x       y       z     vdW  Elec       q    Type
REMARK                         _______ _______ _______ _____ _____    ______ ____
ROOT
ATOM      1  C   UNL     1       3.711  -0.707  -0.038  0.00  0.00    +0.115 C 
ENDROOT
BRANCH   1   2
ATOM      2  C   UNL     1       4.014  -1.161  -1.442  0.00  0.00    -0.026 A 
ATOM      3  C   UNL     1       3.407  -2.294  -1.949  0.00  0.00    +0.006 A 
ATOM      4  C   UNL     1       3.684  -2.711  -3.237  0.00  0.00    +0.015 A 
ATOM      5  C   UNL     1       4.570  -1.992  -4.020  0.00  0.00    +0.018 A 
ATOM      6  C   UNL     1       5.178  -0.858  -3.513  0.00  0.00    +0.015 A 
ATOM      7  C   UNL     1       4.896  -0.440  -2.226  0.00  0.00    +0.006 A 
ATOM      8 BR   UNL     1       4.951  -2.562  -5.783  0.00  0.00    -0.050 Br
ENDBRANCH   1   2
BRANCH   1  12
ATOM      9  C   UNL     1      -0.017   1.378   0.010  0.00  0.00    +0.000 A 
ATOM     10  C   UNL     1       1.171   2.086   0.002  0.00  0.00    +0.000 A 
ATOM     11  C   UNL     1       2.377   1.411  -0.013  0.00  0.00    +0.005 A 
ATOM     12  C   UNL     1       2.396   0.029  -0.020  0.00  0.00    -0.026 A 
ATOM     13  C   UNL     1       1.208  -0.679  -0.012  0.00  0.00    +0.005 A 
ATOM     14  C   UNL     1       0.002  -0.004   0.002  0.00  0.00    +0.000 A 
ENDBRANCH   1  12
BRANCH   1  15
ATOM     15  N   UNL     1       3.630  -1.877   0.848  0.00  0.00    -0.298 NA
ATOM     16  H   UNL     1       2.727  -2.321   0.777  0.00  0.00    +0.123 HD
BRANCH  15  17
ATOM     17  C   UNL     1       3.928  -1.506   2.238  0.00  0.00    +0.178 C 
BRANCH  17  18
ATOM     18  C   UNL     1       3.834  -2.729   3.114  0.00  0.00    +0.234 C 
ATOM     19  O   UNL     1       3.549  -3.802   2.629  0.00  0.00    -0.274 OA
ATOM     20  N   UNL     1       4.069  -2.628   4.438  0.00  0.00    -0.239 N 
ATOM     21  C   UNL     1       3.986  -3.722   5.221  0.00  0.00    +0.303 C 
ATOM     22  O   UNL     1       3.700  -4.798   4.735  0.00  0.00    -0.253 OA
ATOM     23  N   UNL     1       4.221  -3.621   6.545  0.00  0.00    -0.313 N 
ATOM     24  H   UNL     1       4.298  -1.769   4.826  0.00  0.00    +0.159 HD
ATOM     25  H   UNL     1       4.449  -2.762   6.933  0.00  0.00    +0.146 HD
ATOM     26  H   UNL     1       4.161  -4.408   7.109  0.00  0.00    +0.146 HD
ENDBRANCH  17  18
ENDBRANCH  15  17
ENDBRANCH   1  15
TORSDOF 5
