REMARK  Name = ZINC05118278
REMARK  6 active torsions:
REMARK  status: ('A' for Active; 'I' for Inactive)
REMARK    1  A    between atoms: C_3  and  C_9
REMARK    2  A    between atoms: C_4  and  N_8
REMARK    3  A    between atoms: C_9  and  O_11
REMARK    4  A    between atoms: O_11  and  C_12
REMARK    5  A    between atoms: C_12  and  C_13
REMARK    6  A    between atoms: N_18  and  C_19
REMARK                            x       y       z     vdW  Elec       q    Type
REMARK                         _______ _______ _______ _____ _____    ______ ____
ROOT
ATOM      1  C   UNL     1      -6.954  -0.265   2.984  0.00  0.00    +0.258 C 
ATOM      2  O   UNL     1      -6.539   0.307   3.969  0.00  0.00    -0.272 OA
ATOM      3  N   UNL     1      -6.089  -0.822   2.113  0.00  0.00    -0.237 N 
ATOM      4  C   UNL     1      -4.762  -0.742   2.337  0.00  0.00    +0.306 C 
ATOM      5  O   UNL     1      -4.346  -0.169   3.324  0.00  0.00    -0.252 OA
ATOM      6  N   UNL     1      -3.897  -1.299   1.466  0.00  0.00    -0.294 N 
ATOM      7  H   UNL     1      -6.421  -1.280   1.325  0.00  0.00    +0.159 HD
ATOM      8  H   UNL     1      -4.229  -1.757   0.678  0.00  0.00    +0.151 HD
ENDROOT
BRANCH   6   9
ATOM      9  C   UNL     1      -2.455  -1.212   1.710  0.00  0.00    +0.037 C 
ATOM     10  C   UNL     1      -1.704  -1.919   0.580  0.00  0.00    +0.029 C 
ATOM     11  C   UNL     1      -0.198  -1.829   0.834  0.00  0.00    -0.008 C 
ATOM     12  C   UNL     1       0.135  -2.502   2.167  0.00  0.00    +0.007 C 
ATOM     13  C   UNL     1      -0.616  -1.795   3.297  0.00  0.00    -0.008 C 
ATOM     14  C   UNL     1      -2.122  -1.885   3.043  0.00  0.00    +0.029 C 
ATOM     15  C   UNL     1      -0.195  -0.325   3.348  0.00  0.00    +0.007 C 
ATOM     16  C   UNL     1      -0.528   0.348   2.015  0.00  0.00    -0.008 C 
ATOM     17  C   UNL     1       0.224  -0.359   0.885  0.00  0.00    +0.007 C 
ATOM     18  C   UNL     1      -2.034   0.257   1.761  0.00  0.00    +0.029 C 
ENDBRANCH   6   9
BRANCH   1  19
ATOM     19  C   UNL     1      -8.437  -0.354   2.733  0.00  0.00    +0.328 C 
BRANCH  19  20
ATOM     20  O   UNL     1      -9.150   0.317   3.805  0.00  0.00    -0.452 OA
BRANCH  20  21
ATOM     21  C   UNL     1     -10.496   0.329   3.732  0.00  0.00    +0.341 C 
ATOM     22  O   UNL     1     -11.058  -0.208   2.797  0.00  0.00    -0.245 OA
BRANCH  21  25
ATOM     23  C   UNL     1     -11.387   2.331   6.775  0.00  0.00    +0.021 A 
ATOM     24  C   UNL     1     -10.644   1.714   5.794  0.00  0.00    +0.018 A 
ATOM     25  C   UNL     1     -11.285   0.990   4.784  0.00  0.00    +0.080 A 
ATOM     26  C   UNL     1     -12.687   0.903   4.776  0.00  0.00    +0.040 A 
ATOM     27  C   UNL     1     -13.420   1.528   5.777  0.00  0.00    +0.043 A 
ATOM     28  C   UNL     1     -12.772   2.239   6.768  0.00  0.00    +0.043 A 
ATOM     29 CL   UNL     1     -13.695   3.022   8.012  0.00  0.00    -0.083 Cl
BRANCH  26  30
ATOM     30  N   UNL     1     -13.337   0.193   3.776  0.00  0.00    -0.357 N 
ATOM     31  H   UNL     1     -12.866  -0.503   3.291  0.00  0.00    +0.142 HD
ATOM     32  H   UNL     1     -14.261   0.392   3.561  0.00  0.00    +0.142 HD
ENDBRANCH  26  30
ENDBRANCH  21  25
ENDBRANCH  20  21
ENDBRANCH  19  20
ENDBRANCH   1  19
TORSDOF 6
