REMARK  Name = ZINC39354617
REMARK  8 active torsions:
REMARK  status: ('A' for Active; 'I' for Inactive)
REMARK    1  A    between atoms: C_1  and  C_2
REMARK    2  A    between atoms: C_6  and  C_8
REMARK    3  A    between atoms: C_8  and  N_9
REMARK    4  A    between atoms: N_16  and  C_17
REMARK    5  A    between atoms: C_17  and  C_18
REMARK    6  A    between atoms: C_18  and  C_19
REMARK    7  A    between atoms: N_28  and  C_35
REMARK    8  A    between atoms: N_31  and  C_34
REMARK                            x       y       z     vdW  Elec       q    Type
REMARK                         _______ _______ _______ _____ _____    ______ ____
ROOT
ATOM      1  N   UNL     1       1.440  -3.073   2.903  0.00  0.00    -0.286 N 
ATOM      2  C   UNL     1       2.265  -4.235   2.538  0.00  0.00    +0.203 C 
ATOM      3  C   UNL     1       3.613  -3.947   3.251  0.00  0.00    +0.203 C 
ATOM      4  N   UNL     1       3.385  -2.661   3.924  0.00  0.00    -0.341 N 
ATOM      5  C   UNL     1       2.186  -2.239   3.689  0.00  0.00    +0.159 C 
ATOM      6  N   UNL     1       1.701  -1.055   4.190  0.00  0.00    -0.318 N 
ATOM      7  N   UNL     1       4.016  -4.914   4.285  0.00  0.00    -0.266 N 
ATOM      8  C   UNL     1       3.232  -5.964   4.568  0.00  0.00    +0.312 C 
ATOM      9  O   UNL     1       3.611  -6.732   5.430  0.00  0.00    -0.252 OA
ATOM     10  N   UNL     1       2.066  -6.229   3.976  0.00  0.00    -0.227 N 
ATOM     11  C   UNL     1       1.509  -5.463   3.001  0.00  0.00    +0.247 C 
ATOM     12  O   UNL     1       0.447  -5.758   2.495  0.00  0.00    -0.273 OA
ATOM     13  C   UNL     1       1.330  -7.419   4.409  0.00  0.00    +0.143 C 
ATOM     14  C   UNL     1       5.277  -4.729   5.006  0.00  0.00    +0.136 C 
ATOM     15  H   UNL     1       0.793  -0.780   3.991  0.00  0.00    +0.149 HD
ATOM     16  H   UNL     1       4.042  -2.193   4.463  0.00  0.00    +0.164 HD
ENDROOT
BRANCH   1  17
ATOM     17  C   UNL     1       0.054  -2.845   2.489  0.00  0.00    +0.143 C 
BRANCH  17  23
ATOM     18  C   UNL     1      -0.018   1.503   0.010  0.00  0.00    +0.044 C 
ATOM     19  C   UNL     1       0.002  -0.004   0.002  0.00  0.00    -0.050 A 
ATOM     20  C   UNL     1       0.006  -0.689  -1.199  0.00  0.00    +0.003 A 
ATOM     21  C   UNL     1       0.025  -2.071  -1.207  0.00  0.00    +0.001 A 
ATOM     22  C   UNL     1       0.040  -2.768  -0.013  0.00  0.00    +0.005 A 
ATOM     23  C   UNL     1       0.037  -2.084   1.188  0.00  0.00    -0.030 A 
ATOM     24  C   UNL     1       0.023  -0.702   1.195  0.00  0.00    +0.008 A 
ENDBRANCH  17  23
ENDBRANCH   1  17
BRANCH   6  25
ATOM     25  C   UNL     1       2.556  -0.209   5.027  0.00  0.00    +0.109 C 
BRANCH  25  26
ATOM     26  C   UNL     1       1.779   1.040   5.450  0.00  0.00    +0.056 C 
BRANCH  26  27
ATOM     27  C   UNL     1       2.659   1.910   6.311  0.00  0.00    -0.021 A 
ATOM     28  C   UNL     1       3.624   2.907   5.841  0.00  0.00    +0.003 A 
ATOM     29  C   UNL     1       4.024   3.352   4.580  0.00  0.00    +0.010 A 
ATOM     30  C   UNL     1       4.977   4.326   4.475  0.00  0.00    +0.001 A 
ATOM     31  C   UNL     1       5.551   4.877   5.612  0.00  0.00    +0.002 A 
ATOM     32  C   UNL     1       5.170   4.453   6.867  0.00  0.00    +0.026 A 
ATOM     33  C   UNL     1       4.202   3.463   6.998  0.00  0.00    +0.047 A 
ATOM     34  N   UNL     1       3.622   2.841   8.081  0.00  0.00    -0.360 N 
ATOM     35  C   UNL     1       2.702   1.923   7.652  0.00  0.00    +0.087 A 
ATOM     36  H   UNL     1       3.832   3.027   9.009  0.00  0.00    +0.165 HD
ENDBRANCH  26  27
ENDBRANCH  25  26
ENDBRANCH   6  25
TORSDOF 5
