REMARK  Name = ZINC37163118
REMARK  5 active torsions:
REMARK  status: ('A' for Active; 'I' for Inactive)
REMARK    1  A    between atoms: C_1  and  C_2
REMARK    2  A    between atoms: C_2  and  C_4
REMARK    3  A    between atoms: C_2  and  N_16
REMARK    4  A    between atoms: N_16  and  C_17
REMARK    5  A    between atoms: C_17  and  C_18
REMARK                            x       y       z     vdW  Elec       q    Type
REMARK                         _______ _______ _______ _____ _____    ______ ____
ROOT
ATOM      1  C   UNL     1      -0.019   1.526   0.010  0.00  0.00    -0.009 C 
ATOM      2  C   UNL     1       0.002  -0.004   0.002  0.00  0.00    -0.044 C 
ENDROOT
BRANCH   2   3
ATOM      3  C   UNL     1      -1.412  -0.526   0.013  0.00  0.00    -0.060 A 
ATOM      4  C   UNL     1      -2.140  -0.568  -1.164  0.00  0.00    +0.004 A 
ATOM      5  C   UNL     1      -3.436  -1.044  -1.164  0.00  0.00    +0.028 A 
ATOM      6  C   UNL     1      -4.011  -1.482   0.019  0.00  0.00    +0.067 A 
ATOM      7  C   UNL     1      -3.276  -1.440   1.206  0.00  0.00    +0.067 A 
ATOM      8  C   UNL     1      -1.974  -0.965   1.195  0.00  0.00    +0.029 A 
ATOM      9  N   UNL     1      -4.104  -1.937   2.210  0.00  0.00    -0.306 N 
ATOM     10  H   UNL     1      -3.868  -2.030   3.146  0.00  0.00    +0.170 HD
ATOM     11  C   UNL     1      -5.288  -2.267   1.659  0.00  0.00    +0.325 A 
ATOM     12  O   UNL     1      -6.237  -2.732   2.262  0.00  0.00    -0.247 OA
ATOM     13  N   UNL     1      -5.262  -2.004   0.338  0.00  0.00    -0.306 N 
ATOM     14  H   UNL     1      -5.991  -2.152  -0.284  0.00  0.00    +0.170 HD
ENDBRANCH   2   3
BRANCH   2  15
ATOM     15  N   UNL     1       0.690  -0.478  -1.207  0.00  0.00    +0.386 N 
ATOM     16  H   UNL     1       0.632  -1.484  -1.254  0.00  0.00    -0.085 HD
ATOM     17  H   UNL     1       0.251  -0.077  -2.022  0.00  0.00    -0.085 HD
BRANCH  15  18
ATOM     18  C   UNL     1       2.100  -0.070  -1.159  0.00  0.00    -0.039 C 
BRANCH  18  19
ATOM     19  C   UNL     1       2.806  -0.556  -2.399  0.00  0.00    -0.026 A 
ATOM     20  C   UNL     1       2.966   0.070  -3.590  0.00  0.00    +0.011 A 
ATOM     21  C   UNL     1       3.658  -0.575  -4.599  0.00  0.00    +0.028 A 
ATOM     22  C   UNL     1       4.155  -1.815  -4.366  0.00  0.00    +0.078 A 
ATOM     23  S   UNL     1       3.653  -2.103  -2.677  0.00  0.00    -0.084 S 
ATOM     24 CL   UNL     1       5.053  -2.851  -5.431  0.00  0.00    -0.076 Cl
ENDBRANCH  18  19
ENDBRANCH  15  18
ENDBRANCH   2  15
TORSDOF 4
