REMARK  Name = ZINC63067975
REMARK  5 active torsions:
REMARK  status: ('A' for Active; 'I' for Inactive)
REMARK    1  A    between atoms: C_12  and  C_14
REMARK    2  A    between atoms: C_14  and  C_15
REMARK    3  A    between atoms: C_15  and  S_16
REMARK    4  A    between atoms: S_16  and  C_17
REMARK    5  A    between atoms: C_17  and  C_18
REMARK                            x       y       z     vdW  Elec       q    Type
REMARK                         _______ _______ _______ _____ _____    ______ ____
ROOT
ATOM      1  C   UNL     1      -0.017   1.378   0.010  0.00  0.00    +0.002 A 
ATOM      2  C   UNL     1       1.167   2.094   0.002  0.00  0.00    +0.002 A 
ATOM      3  C   UNL     1       2.381   1.430  -0.011  0.00  0.00    +0.025 A 
ATOM      4  C   UNL     1       2.406   0.047  -0.018  0.00  0.00    +0.058 A 
ATOM      5  C   UNL     1       1.213  -0.677  -0.014  0.00  0.00    +0.055 A 
ATOM      6  C   UNL     1       0.002  -0.004   0.002  0.00  0.00    +0.025 A 
ATOM      7  N   UNL     1       1.254  -2.076  -0.032  0.00  0.00    -0.283 N 
ATOM      8  C   UNL     1       2.399  -2.734   0.232  0.00  0.00    +0.235 C 
ATOM      9  O   UNL     1       2.422  -3.945   0.168  0.00  0.00    -0.274 OA
ATOM     10  C   UNL     1       3.652  -1.984   0.605  0.00  0.00    +0.209 C 
ATOM     11  N   UNL     1       3.622  -0.656  -0.025  0.00  0.00    -0.261 N 
ATOM     12  C   UNL     1       4.725  -0.130  -0.593  0.00  0.00    +0.221 C 
ATOM     13  O   UNL     1       4.678   0.967  -1.108  0.00  0.00    -0.275 OA
ATOM     14  H   UNL     1       0.450  -2.577  -0.237  0.00  0.00    +0.155 HD
ENDROOT
BRANCH  12  15
ATOM     15  C   UNL     1       6.018  -0.905  -0.587  0.00  0.00    +0.107 C 
BRANCH  15  16
ATOM     16  C   UNL     1       7.105  -0.090  -1.290  0.00  0.00    +0.079 C 
BRANCH  16  17
ATOM     17  S   UNL     1       8.660  -1.023  -1.283  0.00  0.00    -0.151 S 
BRANCH  17  18
ATOM     18  C   UNL     1       9.829   0.067  -2.141  0.00  0.00    +0.164 C 
BRANCH  18  19
ATOM     19  C   UNL     1      11.181  -0.598  -2.205  0.00  0.00    +0.220 C 
ATOM     20  O   UNL     1      11.339  -1.698  -1.720  0.00  0.00    -0.275 OA
ATOM     21  N   UNL     1      12.213   0.030  -2.802  0.00  0.00    -0.329 N 
ATOM     22  H   UNL     1      12.086   0.910  -3.190  0.00  0.00    +0.145 HD
ATOM     23  H   UNL     1      13.082  -0.397  -2.844  0.00  0.00    +0.145 HD
ENDBRANCH  18  19
ENDBRANCH  17  18
ENDBRANCH  16  17
ENDBRANCH  15  16
ENDBRANCH  12  15
TORSDOF 5
