REMARK  Name = ZINC66120944
REMARK  7 active torsions:
REMARK  status: ('A' for Active; 'I' for Inactive)
REMARK    1  A    between atoms: C_1  and  C_2
REMARK    2  A    between atoms: C_2  and  C_4
REMARK    3  A    between atoms: C_2  and  N_12
REMARK    4  A    between atoms: C_4  and  C_5
REMARK    5  A    between atoms: C_19  and  C_22
REMARK    6  A    between atoms: C_22  and  C_23
REMARK    7  A    between atoms: C_23  and  C_24
REMARK                            x       y       z     vdW  Elec       q    Type
REMARK                         _______ _______ _______ _____ _____    ______ ____
ROOT
ATOM      1  N   UNL     1       0.709  -0.494   1.188  0.00  0.00    -0.296 N 
ATOM      2  C   UNL     1       0.051  -0.633   2.355  0.00  0.00    +0.302 C 
ATOM      3  O   UNL     1      -1.106  -0.272   2.448  0.00  0.00    -0.253 OA
ATOM      4  N   UNL     1       0.676  -1.174   3.420  0.00  0.00    -0.285 N 
ATOM      5  C   UNL     1       2.106  -1.505   3.361  0.00  0.00    +0.109 C 
ATOM      6  C   UNL     1       2.817  -0.834   4.540  0.00  0.00    +0.019 C 
ATOM      7  C   UNL     1       2.131  -1.244   5.845  0.00  0.00    +0.006 C 
ATOM      8  C   UNL     1       0.674  -0.773   5.827  0.00  0.00    +0.007 C 
ATOM      9  C   UNL     1      -0.059  -1.438   4.665  0.00  0.00    +0.112 C 
ATOM     10  H   UNL     1       1.652  -0.715   1.133  0.00  0.00    +0.151 HD
ENDROOT
BRANCH   1  12
ATOM     11  C   UNL     1      -0.015   1.522   0.007  0.00  0.00    +0.028 C 
ATOM     12  C   UNL     1       0.000  -0.008   0.001  0.00  0.00    +0.076 C 
BRANCH  12  13
ATOM     13  C   UNL     1       0.713  -0.506  -1.258  0.00  0.00    +0.057 C 
BRANCH  13  14
ATOM     14  C   UNL     1       0.620  -2.009  -1.326  0.00  0.00    -0.046 A 
ATOM     15  C   UNL     1       1.599  -2.788  -0.738  0.00  0.00    +0.005 A 
ATOM     16  C   UNL     1       1.514  -4.167  -0.799  0.00  0.00    +0.015 A 
ATOM     17  C   UNL     1       0.451  -4.766  -1.450  0.00  0.00    +0.018 A 
ATOM     18  C   UNL     1      -0.528  -3.985  -2.039  0.00  0.00    +0.015 A 
ATOM     19  C   UNL     1      -0.446  -2.607  -1.972  0.00  0.00    +0.005 A 
ATOM     20 BR   UNL     1       0.335  -6.651  -1.536  0.00  0.00    -0.050 Br
ENDBRANCH  13  14
ENDBRANCH  12  13
ENDBRANCH   1  12
BRANCH   8  21
ATOM     21  C   UNL     1      -0.001  -1.155   7.146  0.00  0.00    +0.014 C 
BRANCH  21  22
ATOM     22  C   UNL     1      -1.417  -0.576   7.179  0.00  0.00    +0.096 C 
BRANCH  22  23
ATOM     23  C   UNL     1      -2.083  -0.951   8.478  0.00  0.00    +0.210 C 
ATOM     24  O   UNL     1      -1.484  -1.616   9.297  0.00  0.00    -0.276 OA
ATOM     25  N   UNL     1      -3.344  -0.548   8.730  0.00  0.00    -0.329 N 
ATOM     26  H   UNL     1      -3.823  -0.017   8.075  0.00  0.00    +0.145 HD
ATOM     27  H   UNL     1      -3.772  -0.790   9.566  0.00  0.00    +0.145 HD
ENDBRANCH  22  23
ENDBRANCH  21  22
ENDBRANCH   8  21
TORSDOF 6
