REMARK  Name = ZINC45438516
REMARK  4 active torsions:
REMARK  status: ('A' for Active; 'I' for Inactive)
REMARK    1  A    between atoms: C_1  and  N_2
REMARK    2  A    between atoms: N_2  and  C_3
REMARK    3  A    between atoms: C_6  and  C_12
REMARK    4  A    between atoms: C_8  and  N_9
REMARK                            x       y       z     vdW  Elec       q    Type
REMARK                         _______ _______ _______ _____ _____    ______ ____
ROOT
ATOM      1  C   UNL     1       2.071  -2.745   4.483  0.00  0.00    +0.209 C 
ATOM      2  N   UNL     1       3.411  -2.278   4.884  0.00  0.00    -0.294 N 
ATOM      3  C   UNL     1       3.500  -1.074   5.569  0.00  0.00    +0.159 C 
ATOM      4  N   UNL     1       2.683  -0.938   6.691  0.00  0.00    -0.259 N 
ATOM      5  C   UNL     1       1.445  -1.568   6.603  0.00  0.00    +0.205 A 
ATOM      6  N   UNL     1       1.140  -2.431   5.573  0.00  0.00    -0.288 N 
ATOM      7  C   UNL     1      -0.131  -2.884   5.786  0.00  0.00    +0.072 A 
ATOM      8  C   UNL     1      -0.950  -3.765   5.090  0.00  0.00    +0.028 A 
ATOM      9  C   UNL     1      -2.213  -3.995   5.608  0.00  0.00    +0.002 A 
ATOM     10  C   UNL     1      -2.654  -3.381   6.768  0.00  0.00    +0.002 A 
ATOM     11  C   UNL     1      -1.859  -2.501   7.479  0.00  0.00    +0.030 A 
ATOM     12  C   UNL     1      -0.578  -2.253   6.974  0.00  0.00    +0.091 A 
ATOM     13  N   UNL     1       0.429  -1.467   7.416  0.00  0.00    -0.214 NA
ATOM     14  N   UNL     1       4.304  -0.124   5.184  0.00  0.00    -0.375 N 
ATOM     15  H   UNL     1       4.205  -2.795   4.676  0.00  0.00    +0.151 HD
ATOM     16  H   UNL     1       4.861  -0.247   4.400  0.00  0.00    +0.158 HD
ATOM     17  H   UNL     1       2.958  -0.439   7.477  0.00  0.00    +0.158 HD
ATOM     18  H   UNL     1       4.345   0.708   5.683  0.00  0.00    +0.158 HD
ENDROOT
BRANCH   1  22
ATOM     19  C   UNL     1       0.849  -0.740   0.912  0.00  0.00    +0.057 A 
ATOM     20  C   UNL     1       1.535  -0.045   1.901  0.00  0.00    +0.025 A 
ATOM     21  C   UNL     1       1.928  -0.696   3.053  0.00  0.00    +0.009 A 
ATOM     22  C   UNL     1       1.640  -2.038   3.224  0.00  0.00    -0.004 A 
ATOM     23  C   UNL     1       0.959  -2.732   2.242  0.00  0.00    +0.042 A 
ATOM     24  C   UNL     1       0.557  -2.086   1.089  0.00  0.00    +0.147 A 
BRANCH  19  26
ATOM     25  C   UNL     1       0.637   1.363  -0.383  0.00  0.00    +0.125 C 
ATOM     26  N   UNL     1       0.449  -0.084  -0.255  0.00  0.00    -0.345 N 
ATOM     27  H   UNL     1       0.047  -0.587  -0.980  0.00  0.00    +0.146 HD
ENDBRANCH  19  26
BRANCH  24  28
ATOM     28  N   UNL     1      -0.178  -2.829   0.041  0.00  0.00    +0.058 N 
ATOM     29  O   UNL     1      -1.070  -2.288  -0.570  0.00  0.00    -0.126 OA
ATOM     30  O   UNL     1       0.113  -3.976  -0.204  0.00  0.00    -0.126 OA
ENDBRANCH  24  28
ENDBRANCH   1  22
TORSDOF 3
