REMARK  Name = ZINC49508599
REMARK  11 active torsions:
REMARK  status: ('A' for Active; 'I' for Inactive)
REMARK    1  A    between atoms: C_1  and  N_2
REMARK    2  A    between atoms: C_10  and  C_12
REMARK    3  A    between atoms: C_12  and  C_14
REMARK    4  A    between atoms: C_12  and  N_35
REMARK    5  A    between atoms: C_14  and  N_15
REMARK    6  A    between atoms: C_16  and  C_18
REMARK    7  A    between atoms: N_20  and  C_21
REMARK    8  A    between atoms: N_27  and  S_31
REMARK    9  A    between atoms: S_31  and  C_34
REMARK   10  A    between atoms: N_35  and  C_36
REMARK   11  A    between atoms: N_35  and  C_37
REMARK                            x       y       z     vdW  Elec       q    Type
REMARK                         _______ _______ _______ _____ _____    ______ ____
ROOT
ATOM      1  N   UNL     1       8.188  -2.880  -1.663  0.00  0.00    -0.309 N 
ATOM      2  C   UNL     1       8.550  -3.635  -2.719  0.00  0.00    +0.299 C 
ATOM      3  O   UNL     1       7.937  -3.550  -3.763  0.00  0.00    -0.265 OA
ATOM      4  H   UNL     1       8.678  -2.947  -0.828  0.00  0.00    +0.149 HD
ENDROOT
BRANCH   2   5
ATOM      5  C   UNL     1       9.704  -4.576  -2.604  0.00  0.00    +0.303 C 
ATOM      6  O   UNL     1      10.317  -4.660  -1.560  0.00  0.00    -0.265 OA
ATOM      7  N   UNL     1      10.066  -5.331  -3.661  0.00  0.00    -0.278 N 
ATOM      8  H   UNL     1       9.627  -5.208  -4.517  0.00  0.00    +0.155 HD
BRANCH   7   9
ATOM      9  C   UNL     1      11.072  -6.290  -3.522  0.00  0.00    +0.036 A 
ATOM     10  C   UNL     1      11.215  -6.983  -2.325  0.00  0.00    +0.024 A 
ATOM     11  C   UNL     1      12.210  -7.929  -2.189  0.00  0.00    +0.007 A 
ATOM     12  C   UNL     1      13.072  -8.197  -3.240  0.00  0.00    -0.025 A 
ATOM     13  C   UNL     1      12.930  -7.510  -4.437  0.00  0.00    +0.056 A 
ATOM     14  C   UNL     1      11.928  -6.559  -4.580  0.00  0.00    +0.048 A 
ATOM     15  N   UNL     1      13.782  -7.768  -5.517  0.00  0.00    -0.207 N 
ATOM     16  C   UNL     1      15.007  -8.544  -5.286  0.00  0.00    +0.131 C 
ATOM     17  C   UNL     1      14.643  -9.745  -4.404  0.00  0.00    +0.025 C 
ATOM     18  C   UNL     1      14.150  -9.232  -3.051  0.00  0.00    +0.038 C 
BRANCH  15  19
ATOM     19  S   UNL     1      13.413  -7.208  -7.031  0.00  0.00    +0.043 S 
ATOM     20  O   UNL     1      14.217  -7.983  -7.910  0.00  0.00    -0.155 OA
ATOM     21  O   UNL     1      11.995  -7.268  -7.105  0.00  0.00    -0.155 OA
ATOM     22  C   UNL     1      13.967  -5.481  -7.037  0.00  0.00    +0.218 C 
ENDBRANCH  15  19
ENDBRANCH   7   9
ENDBRANCH   2   5
BRANCH   1  23
ATOM     23  C   UNL     1       7.056  -1.957  -1.775  0.00  0.00    +0.094 C 
BRANCH  23  24
ATOM     24  C   UNL     1       6.779  -1.322  -0.411  0.00  0.00    -0.021 C 
BRANCH  24  34
ATOM     25  C   UNL     1       3.847  -5.656   3.487  0.00  0.00    +0.129 C 
ATOM     26  N   UNL     1       5.265  -5.350   3.283  0.00  0.00    -0.333 N 
ATOM     27  C   UNL     1       6.301  -6.084   4.023  0.00  0.00    +0.105 C 
ATOM     28  C   UNL     1       7.325  -5.063   4.534  0.00  0.00    +0.024 C 
ATOM     29  C   UNL     1       7.992  -4.390   3.335  0.00  0.00    +0.038 C 
ATOM     30  C   UNL     1       6.953  -3.868   2.378  0.00  0.00    -0.026 A 
ATOM     31  C   UNL     1       5.655  -4.359   2.377  0.00  0.00    +0.033 A 
ATOM     32  C   UNL     1       4.723  -3.862   1.473  0.00  0.00    +0.023 A 
ATOM     33  C   UNL     1       5.087  -2.881   0.573  0.00  0.00    +0.004 A 
ATOM     34  C   UNL     1       6.381  -2.393   0.571  0.00  0.00    -0.059 A 
ATOM     35  C   UNL     1       7.310  -2.879   1.476  0.00  0.00    +0.007 A 
ENDBRANCH  24  34
BRANCH  24  36
ATOM     36  N   UNL     1       5.689  -0.345  -0.538  0.00  0.00    +0.382 N 
ATOM     37  C   UNL     1       5.490   0.337   0.747  0.00  0.00    -0.096 C 
ATOM     38  C   UNL     1       6.034   0.643  -1.569  0.00  0.00    -0.096 C 
ATOM     39  H   UNL     1       4.839  -0.822  -0.801  0.00  0.00    -0.082 HD
ENDBRANCH  24  36
ENDBRANCH  23  24
ENDBRANCH   1  23
TORSDOF 7
