REMARK  Name = ZINC19277074
REMARK  4 active torsions:
REMARK  status: ('A' for Active; 'I' for Inactive)
REMARK    1  A    between atoms: C_4  and  C_7
REMARK    2  A    between atoms: C_7  and  C_9
REMARK    3  A    between atoms: C_7  and  N_22
REMARK    4  A    between atoms: C_9  and  N_10
REMARK                            x       y       z     vdW  Elec       q    Type
REMARK                         _______ _______ _______ _____ _____    ______ ____
ROOT
ATOM      1  N   UNL     1      -1.413   3.430   0.287  0.00  0.00    -0.226 N 
ATOM      2  C   UNL     1      -2.725   3.603   0.547  0.00  0.00    +0.246 C 
ATOM      3  O   UNL     1      -3.649   3.481  -0.228  0.00  0.00    -0.273 OA
ATOM      4  C   UNL     1      -2.800   3.979   2.009  0.00  0.00    +0.113 C 
ATOM      5  C   UNL     1      -3.416   5.365   2.166  0.00  0.00    +0.035 C 
ATOM      6  C   UNL     1      -3.449   5.745   3.649  0.00  0.00    +0.003 C 
ATOM      7  C   UNL     1      -4.273   4.712   4.420  0.00  0.00    +0.000 C 
ATOM      8  C   UNL     1      -3.633   3.330   4.271  0.00  0.00    +0.003 C 
ATOM      9  C   UNL     1      -3.600   2.942   2.790  0.00  0.00    +0.035 C 
ATOM     10  N   UNL     1      -1.399   3.985   2.449  0.00  0.00    -0.285 N 
ATOM     11  C   UNL     1      -0.661   3.652   1.373  0.00  0.00    +0.309 C 
ATOM     12  O   UNL     1       0.551   3.563   1.385  0.00  0.00    -0.252 OA
ATOM     13  H   UNL     1      -1.151   4.235   3.491  0.00  0.00    +0.151 HD
ENDROOT
BRANCH   1  14
ATOM     14  C   UNL     1      -0.876   3.052  -1.022  0.00  0.00    +0.106 C 
BRANCH  14  15
ATOM     15  C   UNL     1      -0.795   1.527  -1.120  0.00  0.00    -0.026 C 
BRANCH  15  19
ATOM     16  C   UNL     1       1.090   0.432  -4.793  0.00  0.00    +0.000 A 
ATOM     17  C   UNL     1      -0.287   0.387  -4.683  0.00  0.00    +0.000 A 
ATOM     18  C   UNL     1      -0.897   0.741  -3.494  0.00  0.00    +0.002 A 
ATOM     19  C   UNL     1      -0.130   1.141  -2.416  0.00  0.00    -0.060 A 
ATOM     20  C   UNL     1       1.246   1.191  -2.528  0.00  0.00    +0.002 A 
ATOM     21  C   UNL     1       1.857   0.832  -3.715  0.00  0.00    +0.000 A 
ENDBRANCH  15  19
BRANCH  15  22
ATOM     22  N   UNL     1      -0.012   1.005   0.008  0.00  0.00    +0.384 N 
ATOM     23  H   UNL     1      -0.497   1.287   0.954  0.00  0.00    -0.089 HD
ATOM     24  H   UNL     1       1.003   1.428  -0.024  0.00  0.00    -0.089 HD
ATOM     25  H   UNL     1       0.046  -0.091  -0.062  0.00  0.00    -0.089 HD
ENDBRANCH  15  22
ENDBRANCH  14  15
ENDBRANCH   1  14
TORSDOF 4
