REMARK  Name = ZINC39859110
REMARK  6 active torsions:
REMARK  status: ('A' for Active; 'I' for Inactive)
REMARK    1  A    between atoms: C_1  and  C_2
REMARK    2  A    between atoms: C_6  and  C_24
REMARK    3  A    between atoms: C_7  and  N_8
REMARK    4  A    between atoms: C_12  and  C_13
REMARK    5  A    between atoms: C_16  and  O_20
REMARK    6  A    between atoms: C_17  and  O_19
REMARK                            x       y       z     vdW  Elec       q    Type
REMARK                         _______ _______ _______ _____ _____    ______ ____
ROOT
ATOM      1  N   UNL     1       0.161  -0.875   3.034  0.00  0.00    -0.223 N 
ATOM      2  C   UNL     1       1.274  -0.250   3.382  0.00  0.00    +0.263 C 
ATOM      3  O   UNL     1       2.334  -0.479   2.830  0.00  0.00    -0.269 OA
ATOM      4  C   UNL     1       1.164   0.739   4.472  0.00  0.00    +0.078 C 
ATOM      5  C   UNL     1       2.122   1.520   5.031  0.00  0.00    +0.028 C 
ATOM      6  S   UNL     1      -0.579   0.625   4.853  0.00  0.00    -0.061 S 
ATOM      7  C   UNL     1      -1.013  -0.615   3.643  0.00  0.00    +0.125 C 
ATOM      8  S   UNL     1      -2.548  -1.307   3.334  0.00  0.00    -0.027 S 
ENDROOT
BRANCH   1  15
ATOM      9  C   UNL     1      -0.273   0.012   0.364  0.00  0.00    +0.046 C 
ATOM     10  C   UNL     1      -0.004  -1.435   0.688  0.00  0.00    -0.028 A 
ATOM     11  C   UNL     1       0.044  -2.373  -0.324  0.00  0.00    +0.005 A 
ATOM     12  C   UNL     1       0.291  -3.700  -0.028  0.00  0.00    +0.001 A 
ATOM     13  C   UNL     1       0.491  -4.094   1.283  0.00  0.00    +0.005 A 
ATOM     14  C   UNL     1       0.445  -3.160   2.300  0.00  0.00    -0.028 A 
ATOM     15  C   UNL     1       0.203  -1.825   2.005  0.00  0.00    +0.048 A 
ATOM     16  C   UNL     1       0.663  -3.590   3.728  0.00  0.00    +0.046 C 
ENDBRANCH   1  15
BRANCH   5  17
ATOM     17  C   UNL     1       1.815   2.318   6.225  0.00  0.00    -0.020 A 
ATOM     18  C   UNL     1       0.676   2.032   6.987  0.00  0.00    +0.012 A 
ATOM     19  C   UNL     1       0.390   2.782   8.107  0.00  0.00    +0.050 A 
ATOM     20  C   UNL     1       1.230   3.822   8.483  0.00  0.00    +0.158 A 
ATOM     21  C   UNL     1       2.366   4.114   7.729  0.00  0.00    +0.159 A 
ATOM     22  C   UNL     1       2.664   3.364   6.609  0.00  0.00    +0.057 A 
BRANCH  21  23
ATOM     23  O   UNL     1       3.185   5.134   8.102  0.00  0.00    -0.503 OA
ATOM     24  H   UNL     1       3.893   4.870   8.705  0.00  0.00    +0.292 HD
ENDBRANCH  21  23
BRANCH  20  25
ATOM     25  O   UNL     1       0.942   4.559   9.588  0.00  0.00    -0.503 OA
ATOM     26  H   UNL     1       1.330   4.213  10.403  0.00  0.00    +0.292 HD
ENDBRANCH  20  25
ENDBRANCH   5  17
TORSDOF 4
