REMARK  Name = ZINC35599801
REMARK  9 active torsions:
REMARK  status: ('A' for Active; 'I' for Inactive)
REMARK    1  A    between atoms: C_1  and  C_2
REMARK    2  A    between atoms: C_4  and  N_18
REMARK    3  A    between atoms: C_6  and  S_9
REMARK    4  A    between atoms: C_7  and  C_8
REMARK    5  A    between atoms: S_9  and  N_12
REMARK    6  A    between atoms: N_12  and  C_13
REMARK    7  A    between atoms: C_13  and  C_15
REMARK    8  A    between atoms: C_13  and  C_16
REMARK    9  A    between atoms: C_16  and  O_17
REMARK                            x       y       z     vdW  Elec       q    Type
REMARK                         _______ _______ _______ _____ _____    ______ ____
ROOT
ATOM      1  C   UNL     1      -0.121   1.725  -0.096  0.00  0.00    +0.044 C 
ATOM      2  C   UNL     1      -0.098   0.219  -0.137  0.00  0.00    -0.044 A 
ATOM      3  C   UNL     1      -0.156  -0.440  -1.350  0.00  0.00    +0.026 A 
ATOM      4  C   UNL     1      -0.134  -1.828  -1.387  0.00  0.00    +0.027 A 
ATOM      5  C   UNL     1      -0.054  -2.550  -0.202  0.00  0.00    +0.051 A 
ATOM      6  C   UNL     1       0.003  -1.885   1.007  0.00  0.00    +0.110 A 
ATOM      7  C   UNL     1      -0.013  -0.503   1.039  0.00  0.00    -0.021 A 
ATOM      8  C   UNL     1       0.056   0.219   2.360  0.00  0.00    +0.046 C 
ENDROOT
BRANCH   6   9
ATOM      9  S   UNL     1       0.104  -2.800   2.510  0.00  0.00    +0.059 S 
ATOM     10  O   UNL     1       0.035  -4.174   2.154  0.00  0.00    -0.153 OA
ATOM     11  O   UNL     1       1.193  -2.256   3.243  0.00  0.00    -0.153 OA
BRANCH   9  12
ATOM     12  N   UNL     1      -1.265  -2.466   3.379  0.00  0.00    -0.185 NA
ATOM     13  H   UNL     1      -1.201  -1.993   4.223  0.00  0.00    +0.148 HD
BRANCH  12  14
ATOM     14  C   UNL     1      -2.574  -2.886   2.873  0.00  0.00    +0.099 C 
ATOM     15  C   UNL     1      -3.233  -1.720   2.133  0.00  0.00    +0.028 C 
BRANCH  14  16
ATOM     16  C   UNL     1      -3.461  -3.313   4.044  0.00  0.00    +0.175 C 
BRANCH  16  17
ATOM     17  O   UNL     1      -3.723  -2.184   4.880  0.00  0.00    -0.393 OA
ATOM     18  H   UNL     1      -4.281  -2.382   5.645  0.00  0.00    +0.209 HD
ENDBRANCH  16  17
ENDBRANCH  14  16
ENDBRANCH  12  14
ENDBRANCH   9  12
ENDBRANCH   6   9
BRANCH   4  19
ATOM     19  N   UNL     1      -0.193  -2.497  -2.611  0.00  0.00    -0.358 N 
ATOM     20  H   UNL     1      -0.250  -1.992  -3.438  0.00  0.00    +0.142 HD
ATOM     21  H   UNL     1      -0.178  -3.466  -2.636  0.00  0.00    +0.142 HD
ENDBRANCH   4  19
TORSDOF 6
