REMARK  Name = ZINC66952154
REMARK  8 active torsions:
REMARK  status: ('A' for Active; 'I' for Inactive)
REMARK    1  A    between atoms: C_1  and  C_2
REMARK    2  A    between atoms: N_4  and  C_5
REMARK    3  A    between atoms: N_4  and  C_6
REMARK    4  A    between atoms: C_6  and  C_7
REMARK    5  A    between atoms: C_12  and  N_13
REMARK    6  A    between atoms: N_16  and  C_17
REMARK    7  A    between atoms: C_17  and  C_18
REMARK    8  A    between atoms: C_18  and  O_28
REMARK                            x       y       z     vdW  Elec       q    Type
REMARK                         _______ _______ _______ _____ _____    ______ ____
ROOT
ATOM      1  N   UNL     1      -3.403  -2.694   1.181  0.00  0.00    -0.269 N 
ATOM      2  C   UNL     1      -4.625  -2.832   1.733  0.00  0.00    +0.304 C 
ATOM      3  O   UNL     1      -4.733  -3.201   2.887  0.00  0.00    -0.253 OA
ATOM      4  N   UNL     1      -5.727  -2.562   1.006  0.00  0.00    -0.296 N 
ATOM      5  H   UNL     1      -3.313  -2.326   0.288  0.00  0.00    +0.156 HD
ATOM      6  H   UNL     1      -5.641  -2.268   0.086  0.00  0.00    +0.150 HD
ENDROOT
BRANCH   1  12
ATOM      7  C   UNL     1      -1.017  -2.586   1.540  0.00  0.00    -0.009 A 
ATOM      8  C   UNL     1       0.104  -2.965   2.252  0.00  0.00    +0.007 A 
ATOM      9  C   UNL     1      -0.013  -3.840   3.316  0.00  0.00    +0.000 A 
ATOM     10  C   UNL     1      -1.254  -4.339   3.670  0.00  0.00    +0.002 A 
ATOM     11  C   UNL     1      -2.378  -3.964   2.962  0.00  0.00    +0.023 A 
ATOM     12  C   UNL     1      -2.264  -3.080   1.897  0.00  0.00    +0.039 A 
BRANCH   7  13
ATOM     13  C   UNL     1      -0.887  -1.632   0.380  0.00  0.00    +0.144 C 
BRANCH  13  17
ATOM     14  C   UNL     1      -0.509   1.873   1.873  0.00  0.00    +0.109 C 
ATOM     15  C   UNL     1      -0.210   0.472   1.407  0.00  0.00    +0.213 C 
ATOM     16  O   UNL     1       0.903   0.011   1.546  0.00  0.00    -0.276 OA
ATOM     17  N   UNL     1      -1.179  -0.270   0.834  0.00  0.00    -0.300 N 
ATOM     18  C   UNL     1      -2.523   0.287   0.665  0.00  0.00    +0.132 C 
ENDBRANCH  13  17
ENDBRANCH   7  13
ENDBRANCH   1  12
BRANCH   4  19
ATOM     19  C   UNL     1      -7.055  -2.713   1.605  0.00  0.00    +0.145 C 
BRANCH  19  20
ATOM     20  C   UNL     1      -8.126  -2.476   0.539  0.00  0.00    +0.107 C 
ATOM     21  C   UNL     1      -7.934  -3.477  -0.599  0.00  0.00    +0.041 C 
ATOM     22  C   UNL     1      -9.136  -3.371  -1.545  0.00  0.00    +0.008 C 
ATOM     23  C   UNL     1     -10.363  -3.931  -0.829  0.00  0.00    +0.035 C 
ATOM     24  C   UNL     1     -10.518  -3.300   0.530  0.00  0.00    -0.041 A 
ATOM     25  C   UNL     1      -9.489  -2.635   1.160  0.00  0.00    -0.011 A 
ATOM     26  C   UNL     1      -9.696  -2.081   2.416  0.00  0.00    +0.007 A 
ATOM     27  C   UNL     1     -10.924  -2.188   3.036  0.00  0.00    +0.000 A 
ATOM     28  C   UNL     1     -11.957  -2.852   2.403  0.00  0.00    +0.000 A 
ATOM     29  C   UNL     1     -11.753  -3.405   1.155  0.00  0.00    +0.004 A 
BRANCH  20  30
ATOM     30  O   UNL     1      -7.994  -1.149   0.025  0.00  0.00    -0.382 OA
ATOM     31  H   UNL     1      -8.096  -0.457   0.693  0.00  0.00    +0.211 HD
ENDBRANCH  20  30
ENDBRANCH  19  20
ENDBRANCH   4  19
TORSDOF 6
