REMARK  Name = ZINC35052810
REMARK  9 active torsions:
REMARK  status: ('A' for Active; 'I' for Inactive)
REMARK    1  A    between atoms: C_1  and  C_2
REMARK    2  A    between atoms: C_13  and  O_15
REMARK    3  A    between atoms: O_15  and  C_16
REMARK    4  A    between atoms: C_18  and  N_31
REMARK    5  A    between atoms: C_20  and  O_30
REMARK    6  A    between atoms: C_22  and  O_29
REMARK    7  A    between atoms: C_24  and  C_27
REMARK    8  A    between atoms: C_27  and  O_28
REMARK    9  A    between atoms: C_32  and  C_34
REMARK                            x       y       z     vdW  Elec       q    Type
REMARK                         _______ _______ _______ _____ _____    ______ ____
ROOT
ATOM      1  C   UNL     1      -4.521  -2.670   0.589  0.00  0.00    +0.331 C 
ATOM      2  C   UNL     1      -6.018  -2.466   0.342  0.00  0.00    +0.173 C 
ATOM      3  C   UNL     1      -6.548  -3.623  -0.512  0.00  0.00    +0.172 C 
ATOM      4  C   UNL     1      -6.252  -4.946   0.200  0.00  0.00    +0.176 C 
ATOM      5  C   UNL     1      -4.745  -5.054   0.453  0.00  0.00    +0.179 C 
ATOM      6  O   UNL     1      -4.312  -3.933   1.225  0.00  0.00    -0.332 OA
ENDROOT
BRANCH   2   7
ATOM      7  N   UNL     1      -6.726  -2.438   1.624  0.00  0.00    -0.304 N 
ATOM      8  C   UNL     1      -7.869  -1.733   1.747  0.00  0.00    +0.210 C 
ATOM      9  O   UNL     1      -8.311  -1.124   0.796  0.00  0.00    -0.276 OA
ATOM     10  C   UNL     1      -8.598  -1.704   3.066  0.00  0.00    +0.109 C 
ATOM     11  H   UNL     1      -6.373  -2.925   2.384  0.00  0.00    +0.149 HD
ENDBRANCH   2   7
BRANCH   4  12
ATOM     12  O   UNL     1      -6.950  -4.986   1.446  0.00  0.00    -0.387 OA
ATOM     13  H   UNL     1      -6.807  -5.798   1.951  0.00  0.00    +0.210 HD
ENDBRANCH   4  12
BRANCH   3  14
ATOM     14  O   UNL     1      -7.959  -3.479  -0.688  0.00  0.00    -0.387 OA
ATOM     15  H   UNL     1      -8.363  -4.178  -1.220  0.00  0.00    +0.210 HD
ENDBRANCH   3  14
BRANCH   1  16
ATOM     16  O   UNL     1      -4.031  -1.625   1.431  0.00  0.00    -0.462 OA
BRANCH  16  27
ATOM     17  C   UNL     1       0.066   1.377   0.059  0.00  0.00    +0.040 C 
ATOM     18  C   UNL     1       0.054  -0.130   0.033  0.00  0.00    -0.055 C 
ATOM     19  C   UNL     1       0.044  -0.755  -1.138  0.00  0.00    +0.091 C 
ATOM     20  C   UNL     1       0.026  -2.229  -1.174  0.00  0.00    +0.332 C 
ATOM     21  O   UNL     1      -0.187  -2.833  -2.207  0.00  0.00    -0.246 OA
ATOM     22  O   UNL     1       0.257  -2.885  -0.009  0.00  0.00    -0.453 OA
ATOM     23  C   UNL     1      -0.396  -2.324   1.135  0.00  0.00    +0.214 C 
ATOM     24  C   UNL     1       0.059  -0.883   1.333  0.00  0.00    +0.082 C 
ATOM     25  C   UNL     1      -0.817  -0.181   2.333  0.00  0.00    -0.012 C 
ATOM     26  C   UNL     1      -2.104  -0.482   2.435  0.00  0.00    +0.042 C 
ATOM     27  C   UNL     1      -2.683  -1.535   1.581  0.00  0.00    +0.123 C 
ATOM     28  C   UNL     1      -1.887  -2.397   0.949  0.00  0.00    +0.063 C 
ENDBRANCH  16  27
ENDBRANCH   1  16
BRANCH   5  29
ATOM     29  C   UNL     1      -4.447  -6.346   1.216  0.00  0.00    +0.190 C 
BRANCH  29  30
ATOM     30  O   UNL     1      -3.034  -6.505   1.350  0.00  0.00    -0.392 OA
ATOM     31  H   UNL     1      -2.771  -7.305   1.826  0.00  0.00    +0.210 HD
ENDBRANCH  29  30
ENDBRANCH   5  29
TORSDOF 7
