REMARK  Name = ZINC50703550
REMARK  5 active torsions:
REMARK  status: ('A' for Active; 'I' for Inactive)
REMARK    1  A    between atoms: C_1  and  C_2
REMARK    2  A    between atoms: C_2  and  C_3
REMARK    3  A    between atoms: C_10  and  C_12
REMARK    4  A    between atoms: C_14  and  N_20
REMARK    5  A    between atoms: C_15  and  N_19
REMARK                            x       y       z     vdW  Elec       q    Type
REMARK                         _______ _______ _______ _____ _____    ______ ____
ROOT
ATOM      1  C   UNL     1      -5.900  -0.653  -1.595  0.00  0.00    +0.041 A 
ATOM      2  C   UNL     1      -7.087   0.018  -1.288  0.00  0.00    +0.047 A 
ATOM      3  C   UNL     1      -8.299  -0.605  -1.484  0.00  0.00    +0.149 A 
ATOM      4  C   UNL     1      -8.343  -1.902  -1.987  0.00  0.00    +0.074 A 
ATOM      5  C   UNL     1      -7.162  -2.574  -2.294  0.00  0.00    +0.065 A 
ATOM      6  C   UNL     1      -5.947  -1.954  -2.106  0.00  0.00    +0.035 A 
ATOM      7 CL   UNL     1      -7.223  -4.191  -2.921  0.00  0.00    -0.082 Cl
ENDROOT
BRANCH   1  14
ATOM      8  C   UNL     1      -1.614  -0.379   0.457  0.00  0.00    +0.006 C 
ATOM      9  C   UNL     1      -1.613  -1.890   0.698  0.00  0.00    +0.006 C 
ATOM     10  C   UNL     1      -3.051  -2.415   0.658  0.00  0.00    +0.019 C 
ATOM     11  C   UNL     1      -3.650  -2.146  -0.726  0.00  0.00    +0.108 C 
ATOM     12  N   UNL     1      -3.522  -0.714  -1.027  0.00  0.00    -0.297 N 
ATOM     13  C   UNL     1      -2.197  -0.086  -0.929  0.00  0.00    +0.111 C 
ATOM     14  C   UNL     1      -4.600   0.012  -1.385  0.00  0.00    +0.247 C 
ATOM     15  O   UNL     1      -4.501   1.214  -1.536  0.00  0.00    -0.270 OA
BRANCH   8  17
ATOM     16  C   UNL     1      -0.192   1.675   0.411  0.00  0.00    +0.004 C 
ATOM     17  C   UNL     1      -0.180   0.150   0.529  0.00  0.00    +0.002 C 
ENDBRANCH   8  17
ENDBRANCH   1  14
BRANCH   4  18
ATOM     18  N   UNL     1      -9.570  -2.528  -2.184  0.00  0.00    -0.355 N 
ATOM     19  H   UNL     1     -10.389  -2.087  -1.910  0.00  0.00    +0.142 HD
ATOM     20  H   UNL     1      -9.606  -3.405  -2.596  0.00  0.00    +0.142 HD
ENDBRANCH   4  18
BRANCH   3  21
ATOM     21  N   UNL     1      -9.556   0.106  -1.158  0.00  0.00    +0.058 N 
ATOM     22  O   UNL     1      -9.657   1.289  -1.383  0.00  0.00    -0.126 OA
ATOM     23  O   UNL     1     -10.482  -0.498  -0.668  0.00  0.00    -0.126 OA
ENDBRANCH   3  21
TORSDOF 4
