REMARK  Name = ZINC63281867
REMARK  7 active torsions:
REMARK  status: ('A' for Active; 'I' for Inactive)
REMARK    1  A    between atoms: C_1  and  C_2
REMARK    2  A    between atoms: C_2  and  C_3
REMARK    3  A    between atoms: C_2  and  C_4
REMARK    4  A    between atoms: C_4  and  C_6
REMARK    5  A    between atoms: C_4  and  N_18
REMARK    6  A    between atoms: N_8  and  C_9
REMARK    7  A    between atoms: C_27  and  C_29
REMARK                            x       y       z     vdW  Elec       q    Type
REMARK                         _______ _______ _______ _____ _____    ______ ____
ROOT
ATOM      1  N   UNL     1      -2.147   0.086   1.153  0.00  0.00    -0.288 N 
ATOM      2  C   UNL     1      -2.786   1.252   1.372  0.00  0.00    +0.303 C 
ATOM      3  O   UNL     1      -2.912   2.055   0.468  0.00  0.00    -0.253 OA
ATOM      4  N   UNL     1      -3.286   1.527   2.593  0.00  0.00    -0.283 N 
ATOM      5  C   UNL     1      -3.890   2.837   2.876  0.00  0.00    +0.128 C 
ATOM      6  C   UNL     1      -5.313   2.617   3.405  0.00  0.00    +0.127 C 
ATOM      7  N   UNL     1      -5.264   1.613   4.477  0.00  0.00    -0.297 N 
ATOM      8  C   UNL     1      -4.661   0.303   4.194  0.00  0.00    +0.127 C 
ATOM      9  C   UNL     1      -3.243   0.521   3.663  0.00  0.00    +0.128 C 
ATOM     10  C   UNL     1      -5.765   1.888   5.698  0.00  0.00    +0.242 C 
ATOM     11  O   UNL     1      -6.260   2.972   5.919  0.00  0.00    -0.273 OA
ATOM     12  H   UNL     1      -2.113  -0.587   1.851  0.00  0.00    +0.151 HD
ENDROOT
BRANCH  10  13
ATOM     13  C   UNL     1      -5.708   0.848   6.787  0.00  0.00    +0.190 C 
ATOM     14  C   UNL     1      -6.516  -0.367   6.390  0.00  0.00    +0.016 C 
ATOM     15  C   UNL     1      -7.489  -0.492   7.321  0.00  0.00    -0.004 A 
ATOM     16  C   UNL     1      -8.580  -1.458   7.496  0.00  0.00    +0.010 A 
ATOM     17  C   UNL     1      -9.415  -1.320   8.551  0.00  0.00    +0.001 A 
ATOM     18  C   UNL     1      -9.264  -0.281   9.479  0.00  0.00    +0.002 A 
ATOM     19  C   UNL     1      -8.286   0.644   9.386  0.00  0.00    +0.026 A 
ATOM     20  C   UNL     1      -7.351   0.596   8.315  0.00  0.00    +0.043 A 
ATOM     21  N   UNL     1      -6.331   1.364   8.011  0.00  0.00    -0.370 N 
ATOM     22  H   UNL     1      -6.038   2.142   8.511  0.00  0.00    +0.161 HD
ENDBRANCH  10  13
BRANCH   1  23
ATOM     23  C   UNL     1      -1.502  -0.165  -0.139  0.00  0.00    +0.163 C 
BRANCH  23  24
ATOM     24  C   UNL     1      -1.412  -1.651  -0.375  0.00  0.00    +0.238 C 
ATOM     25  O   UNL     1      -1.844  -2.424   0.454  0.00  0.00    -0.273 OA
ATOM     26  N   UNL     1      -0.852  -2.120  -1.507  0.00  0.00    -0.284 N 
ATOM     27  H   UNL     1      -0.569  -1.503  -2.200  0.00  0.00    +0.155 HD
BRANCH  26  28
ATOM     28  C   UNL     1      -0.679  -3.499  -1.684  0.00  0.00    +0.037 A 
ATOM     29  C   UNL     1       0.436  -3.978  -2.357  0.00  0.00    +0.027 A 
ATOM     30  C   UNL     1       0.608  -5.338  -2.532  0.00  0.00    +0.051 A 
ATOM     31  C   UNL     1      -0.332  -6.227  -2.036  0.00  0.00    +0.166 A 
ATOM     32  C   UNL     1      -1.452  -5.749  -1.360  0.00  0.00    +0.168 A 
ATOM     33  C   UNL     1      -1.621  -4.387  -1.181  0.00  0.00    +0.072 A 
ATOM     34  O   UNL     1      -2.217  -6.813  -0.976  0.00  0.00    -0.453 OA
ATOM     35  C   UNL     1      -1.765  -7.921  -1.778  0.00  0.00    +0.466 C 
ATOM     36  O   UNL     1      -0.396  -7.591  -2.075  0.00  0.00    -0.453 OA
ENDBRANCH  26  28
ENDBRANCH  23  24
BRANCH  23  38
ATOM     37  C   UNL     1      -0.187   1.945   0.108  0.00  0.00    +0.009 C 
ATOM     38  C   UNL     1      -0.095   0.436  -0.132  0.00  0.00    +0.012 C 
ATOM     39  C   UNL     1       0.730  -0.208   0.983  0.00  0.00    +0.009 C 
ENDBRANCH  23  38
ENDBRANCH   1  23
TORSDOF 5
