REMARK  Name = ZINC20154154
REMARK  7 active torsions:
REMARK  status: ('A' for Active; 'I' for Inactive)
REMARK    1  A    between atoms: C_1  and  C_2
REMARK    2  A    between atoms: C_2  and  C_4
REMARK    3  A    between atoms: C_2  and  O_20
REMARK    4  A    between atoms: N_6  and  C_7
REMARK    5  A    between atoms: C_10  and  N_14
REMARK    6  A    between atoms: C_11  and  N_13
REMARK    7  A    between atoms: O_20  and  C_21
REMARK                            x       y       z     vdW  Elec       q    Type
REMARK                         _______ _______ _______ _____ _____    ______ ____
ROOT
ATOM      1  C   UNL     1      -3.765   6.126   5.576  0.00  0.00    +0.258 C 
ATOM      2  O   UNL     1      -3.737   6.838   4.594  0.00  0.00    -0.271 OA
ATOM      3  N   UNL     1      -3.079   4.966   5.587  0.00  0.00    -0.282 N 
ATOM      4  H   UNL     1      -3.039   4.359   6.503  0.00  0.00    +0.155 HD
ENDROOT
BRANCH   3   5
ATOM      5  C   UNL     1      -2.416   4.533   4.430  0.00  0.00    +0.035 A 
ATOM      6  C   UNL     1      -1.824   5.459   3.582  0.00  0.00    +0.025 A 
ATOM      7  C   UNL     1      -1.169   5.035   2.441  0.00  0.00    +0.027 A 
ATOM      8  C   UNL     1      -1.103   3.684   2.140  0.00  0.00    +0.051 A 
ATOM      9  C   UNL     1      -1.702   2.751   2.986  0.00  0.00    +0.048 A 
ATOM     10  C   UNL     1      -2.353   3.178   4.133  0.00  0.00    +0.048 A 
BRANCH   8  11
ATOM     11  N   UNL     1      -0.439   3.255   0.982  0.00  0.00    -0.324 N 
ATOM     12  C   UNL     1      -0.113   4.392   0.109  0.00  0.00    +0.133 C 
ATOM     13  C   UNL     1       0.556   3.874  -1.167  0.00  0.00    +0.178 C 
ATOM     14  O   UNL     1       1.714   3.111  -0.817  0.00  0.00    -0.377 OA
ATOM     15  C   UNL     1       1.432   1.994   0.032  0.00  0.00    +0.178 C 
ATOM     16  C   UNL     1       0.772   2.493   1.320  0.00  0.00    +0.133 C 
ENDBRANCH   8  11
BRANCH   9  17
ATOM     17  N   UNL     1      -1.642   1.386   2.681  0.00  0.00    -0.356 N 
ATOM     18  H   UNL     1      -2.115   0.652   3.350  0.00  0.00    +0.142 HD
ATOM     19  H   UNL     1      -1.121   1.048   1.773  0.00  0.00    +0.142 HD
ENDBRANCH   9  17
ENDBRANCH   3   5
BRANCH   1  21
ATOM     20  C   UNL     1      -3.621   6.792   7.960  0.00  0.00    +0.062 C 
ATOM     21  C   UNL     1      -4.566   6.539   6.783  0.00  0.00    +0.256 C 
BRANCH  21  22
ATOM     22  O   UNL     1      -5.290   7.736   6.488  0.00  0.00    -0.478 OA
BRANCH  22  23
ATOM     23  C   UNL     1      -6.419   7.967   7.209  0.00  0.00    +0.140 A 
ATOM     24  C   UNL     1      -6.758   7.126   8.258  0.00  0.00    +0.048 A 
ATOM     25  C   UNL     1      -7.904   7.365   8.992  0.00  0.00    +0.023 A 
ATOM     26  C   UNL     1      -8.719   8.438   8.675  0.00  0.00    +0.043 A 
ATOM     27  C   UNL     1      -8.386   9.275   7.625  0.00  0.00    +0.043 A 
ATOM     28  C   UNL     1      -7.238   9.042   6.891  0.00  0.00    +0.084 A 
ATOM     29 CL   UNL     1      -6.821  10.092   5.573  0.00  0.00    -0.080 Cl
ATOM     30 CL   UNL     1     -10.161   8.732   9.595  0.00  0.00    -0.083 Cl
ENDBRANCH  22  23
ENDBRANCH  21  22
ENDBRANCH   1  21
TORSDOF 6
