REMARK  Name = ZINC17096756
REMARK  3 active torsions:
REMARK  status: ('A' for Active; 'I' for Inactive)
REMARK    1  A    between atoms: N_12  and  N_13
REMARK    2  A    between atoms: C_14  and  C_15
REMARK    3  A    between atoms: C_18  and  C_20
REMARK                            x       y       z     vdW  Elec       q    Type
REMARK                         _______ _______ _______ _____ _____    ______ ____
ROOT
ATOM      1  N   UNL     1      -1.234   1.650   0.017  0.00  0.00    -0.186 NA
ATOM      2  C   UNL     1      -2.352   0.984   0.019  0.00  0.00    +0.176 C 
ENDROOT
BRANCH   1  14
ATOM      3  C   UNL     1       4.047  -0.854  -0.041  0.00  0.00    +0.001 A 
ATOM      4  C   UNL     1       5.102   0.041  -0.046  0.00  0.00    +0.002 A 
ATOM      5  C   UNL     1       4.841   1.404  -0.037  0.00  0.00    +0.030 A 
ATOM      6  C   UNL     1       3.550   1.844  -0.022  0.00  0.00    +0.123 A 
ATOM      7  C   UNL     1       2.461   0.962  -0.016  0.00  0.00    +0.045 A 
ATOM      8  C   UNL     1       2.743  -0.413  -0.026  0.00  0.00    +0.013 A 
ATOM      9  C   UNL     1       1.172   1.671  -0.000  0.00  0.00    +0.169 C 
ATOM     10  N   UNL     1       1.163   2.967   0.002  0.00  0.00    -0.111 NA
ATOM     11  S   UNL     1       2.770   3.435  -0.006  0.00  0.00    +0.101 S 
ATOM     12  O   UNL     1       3.054   4.043   1.246  0.00  0.00    -0.146 OA
ATOM     13  O   UNL     1       3.031   4.057  -1.256  0.00  0.00    -0.146 OA
ATOM     14  N   UNL     1      -0.011   0.966   0.007  0.00  0.00    -0.219 N 
ATOM     15  H   UNL     1       0.002  -0.004   0.002  0.00  0.00    +0.176 HD
ENDBRANCH   1  14
BRANCH   2  16
ATOM     16  C   UNL     1      -3.630   1.698   0.029  0.00  0.00    +0.148 A 
ATOM     17  C   UNL     1      -4.880   1.120   0.026  0.00  0.00    +0.051 A 
ATOM     18  C   UNL     1      -5.811   2.168   0.042  0.00  0.00    +0.050 A 
ATOM     19  C   UNL     1      -5.102   3.333   0.044  0.00  0.00    +0.136 A 
ATOM     20  O   UNL     1      -3.788   3.038   0.036  0.00  0.00    -0.454 OA
BRANCH  19  21
ATOM     21  C   UNL     1      -5.679   4.691   0.053  0.00  0.00    +0.017 A 
ATOM     22  C   UNL     1      -7.066   4.864   0.055  0.00  0.00    +0.012 A 
ATOM     23  C   UNL     1      -7.598   6.136   0.068  0.00  0.00    +0.016 A 
ATOM     24  C   UNL     1      -6.762   7.240   0.070  0.00  0.00    +0.018 A 
ATOM     25  C   UNL     1      -5.388   7.076   0.063  0.00  0.00    +0.016 A 
ATOM     26  C   UNL     1      -4.842   5.809   0.054  0.00  0.00    +0.012 A 
ATOM     27 BR   UNL     1      -7.502   8.981   0.082  0.00  0.00    -0.050 Br
ENDBRANCH  19  21
ENDBRANCH   2  16
TORSDOF 3
