REMARK  Name = ZINC38039809
REMARK  3 active torsions:
REMARK  status: ('A' for Active; 'I' for Inactive)
REMARK    1  A    between atoms: C_2  and  N_19
REMARK    2  A    between atoms: C_5  and  N_8
REMARK    3  A    between atoms: C_12  and  C_15
REMARK                            x       y       z     vdW  Elec       q    Type
REMARK                         _______ _______ _______ _____ _____    ______ ____
ROOT
ATOM      1  C   UNL     1      -0.017   1.379   0.010  0.00  0.00    +0.063 A 
ATOM      2  C   UNL     1       1.176   2.090   0.002  0.00  0.00    +0.030 A 
ATOM      3  C   UNL     1       2.388   1.413  -0.014  0.00  0.00    +0.063 A 
ATOM      4  C   UNL     1       2.408   0.030  -0.022  0.00  0.00    +0.149 A 
ATOM      5  C   UNL     1       1.215  -0.682  -0.014  0.00  0.00    +0.101 A 
ATOM      6  C   UNL     1       0.002  -0.004   0.002  0.00  0.00    +0.149 A 
ATOM      7  F   UNL     1      -1.159  -0.696   0.010  0.00  0.00    -0.203 F 
ATOM      8  F   UNL     1       3.588  -0.629  -0.038  0.00  0.00    -0.203 F 
ENDROOT
BRANCH   5   9
ATOM      9  N   UNL     1       1.234  -2.085  -0.022  0.00  0.00    -0.325 N 
ATOM     10  C   UNL     1       1.238  -2.826  -1.291  0.00  0.00    +0.105 C 
ATOM     11  C   UNL     1       0.085  -3.835  -1.276  0.00  0.00    +0.020 C 
ATOM     12  C   UNL     1       0.201  -4.718  -0.032  0.00  0.00    +0.016 C 
ATOM     13  C   UNL     1       0.099  -3.850   1.224  0.00  0.00    +0.092 C 
ATOM     14  C   UNL     1       1.258  -2.841   1.237  0.00  0.00    +0.118 C 
BRANCH  13  15
ATOM     15  C   UNL     1       0.180  -4.725   2.448  0.00  0.00    +0.215 C 
ATOM     16  O   UNL     1       1.070  -4.558   3.255  0.00  0.00    -0.276 OA
ATOM     17  N   UNL     1      -0.737  -5.692   2.647  0.00  0.00    -0.329 N 
ATOM     18  H   UNL     1      -1.448  -5.826   2.002  0.00  0.00    +0.145 HD
ATOM     19  H   UNL     1      -0.684  -6.256   3.435  0.00  0.00    +0.145 HD
ENDBRANCH  13  15
ENDBRANCH   5   9
BRANCH   2  20
ATOM     20  N   UNL     1       1.157   3.489   0.010  0.00  0.00    -0.358 N 
ATOM     21  H   UNL     1       0.310   3.962   0.020  0.00  0.00    +0.142 HD
ATOM     22  H   UNL     1       1.990   3.986   0.004  0.00  0.00    +0.142 HD
ENDBRANCH   2  20
TORSDOF 3
