REMARK  Name = ZINC43424715
REMARK  3 active torsions:
REMARK  status: ('A' for Active; 'I' for Inactive)
REMARK    1  A    between atoms: C_3  and  N_12
REMARK    2  A    between atoms: C_4  and  N_11
REMARK    3  A    between atoms: C_6  and  C_7
REMARK                            x       y       z     vdW  Elec       q    Type
REMARK                         _______ _______ _______ _____ _____    ______ ____
ROOT
ATOM      1  C   UNL     1      -0.017   1.378   0.010  0.00  0.00    +0.014 A 
ATOM      2  C   UNL     1       1.169   2.090   0.002  0.00  0.00    +0.025 A 
ATOM      3  C   UNL     1       2.381   1.417  -0.013  0.00  0.00    +0.051 A 
ATOM      4  C   UNL     1       2.400   0.022  -0.021  0.00  0.00    +0.046 A 
ATOM      5  C   UNL     1       1.207  -0.683  -0.013  0.00  0.00    +0.037 A 
ATOM      6  C   UNL     1       0.002  -0.004   0.002  0.00  0.00    +0.057 A 
ENDROOT
BRANCH   3   7
ATOM      7  N   UNL     1       3.583   2.136  -0.021  0.00  0.00    -0.321 N 
ATOM      8  C   UNL     1       4.222   2.538  -1.284  0.00  0.00    +0.133 C 
ATOM      9  C   UNL     1       4.534   4.037  -1.219  0.00  0.00    +0.179 C 
ATOM     10  O   UNL     1       5.258   4.320  -0.018  0.00  0.00    -0.373 OA
ATOM     11  C   UNL     1       4.537   4.020   1.177  0.00  0.00    +0.139 C 
ATOM     12  C   UNL     1       4.251   2.521   1.236  0.00  0.00    +0.102 C 
ATOM     13  C   UNL     1       5.572   1.754   1.333  0.00  0.00    +0.025 C 
ATOM     14  C   UNL     1       6.339   2.199   2.579  0.00  0.00    +0.002 C 
ATOM     15  C   UNL     1       6.641   3.696   2.479  0.00  0.00    +0.003 C 
ATOM     16  C   UNL     1       5.336   4.447   2.404  0.00  0.00    +0.033 C 
ENDBRANCH   3   7
BRANCH   6  17
ATOM     17  C   UNL     1      -1.294  -0.773   0.011  0.00  0.00    +0.417 C 
ATOM     18  F   UNL     1      -2.368   0.123   0.026  0.00  0.00    -0.166 F 
ATOM     19  F   UNL     1      -1.370  -1.572  -1.135  0.00  0.00    -0.166 F 
ATOM     20  F   UNL     1      -1.347  -1.584   1.149  0.00  0.00    -0.166 F 
ENDBRANCH   6  17
BRANCH   4  21
ATOM     21  N   UNL     1       3.621  -0.663  -0.037  0.00  0.00    -0.357 N 
ATOM     22  H   UNL     1       4.455  -0.169  -0.042  0.00  0.00    +0.142 HD
ATOM     23  H   UNL     1       3.632  -1.633  -0.042  0.00  0.00    +0.142 HD
ENDBRANCH   4  21
TORSDOF 3
