REMARK  Name = ZINC62861564
REMARK  4 active torsions:
REMARK  status: ('A' for Active; 'I' for Inactive)
REMARK    1  A    between atoms: C_1  and  C_2
REMARK    2  A    between atoms: C_2  and  C_8
REMARK    3  A    between atoms: N_10  and  C_11
REMARK    4  A    between atoms: C_12  and  C_19
REMARK                            x       y       z     vdW  Elec       q    Type
REMARK                         _______ _______ _______ _____ _____    ______ ____
ROOT
ATOM      1  C   UNL     1       0.873   0.095  -1.314  0.00  0.00    +0.221 C 
ATOM      2  O   UNL     1       2.072  -0.070  -1.249  0.00  0.00    -0.275 OA
ATOM      3  N   UNL     1       0.216  -0.176  -2.460  0.00  0.00    -0.284 N 
ATOM      4  H   UNL     1      -0.752  -0.124  -2.488  0.00  0.00    +0.155 HD
ENDROOT
BRANCH   1   6
ATOM      5  C   UNL     1      -0.573   1.924  -0.467  0.00  0.00    +0.019 C 
ATOM      6  C   UNL     1       0.116   0.604  -0.114  0.00  0.00    +0.029 C 
ATOM      7  C   UNL     1      -0.937  -0.427   0.302  0.00  0.00    +0.012 C 
ATOM      8  C   UNL     1      -0.233  -1.719   0.727  0.00  0.00    -0.018 C 
ATOM      9  C   UNL     1       0.753  -1.408   1.856  0.00  0.00    -0.083 C 
ATOM     10  N   UNL     1       1.749  -0.437   1.387  0.00  0.00    +0.380 N 
ATOM     11  C   UNL     1       1.088   0.829   1.045  0.00  0.00    -0.067 C 
ATOM     12  H   UNL     1       2.428  -0.275   2.116  0.00  0.00    -0.086 HD
ATOM     13  H   UNL     1       2.216  -0.803   0.571  0.00  0.00    -0.086 HD
ENDBRANCH   1   6
BRANCH   3  14
ATOM     14  C   UNL     1       0.927  -0.532  -3.602  0.00  0.00    +0.062 A 
ATOM     15  C   UNL     1       0.701   0.143  -4.813  0.00  0.00    +0.086 A 
ATOM     16  C   UNL     1       1.423  -0.224  -5.953  0.00  0.00    +0.032 A 
ATOM     17  C   UNL     1       2.349  -1.242  -5.882  0.00  0.00    +0.020 A 
ATOM     18  C   UNL     1       2.570  -1.906  -4.685  0.00  0.00    +0.032 A 
ATOM     19  C   UNL     1       1.869  -1.552  -3.549  0.00  0.00    +0.041 A 
ATOM     20 BR   UNL     1       2.186  -2.461  -1.921  0.00  0.00    -0.048 Br
ATOM     21 BR   UNL     1       3.324  -1.737  -7.426  0.00  0.00    -0.050 Br
BRANCH  15  22
ATOM     22  C   UNL     1      -0.290   1.228  -4.882  0.00  0.00    +0.388 C 
ATOM     23  O   UNL     1      -0.556   1.747  -5.958  0.00  0.00    -0.241 OA
ATOM     24  O   UNL     1      -0.848   1.612  -3.863  0.00  0.00    -0.241 OA
ENDBRANCH  15  22
ENDBRANCH   3  14
TORSDOF 3
