REMARK  Name = ZINC56052807
REMARK  4 active torsions:
REMARK  status: ('A' for Active; 'I' for Inactive)
REMARK    1  A    between atoms: C_1  and  C_2
REMARK    2  A    between atoms: C_8  and  C_10
REMARK    3  A    between atoms: C_11  and  C_26
REMARK    4  A    between atoms: C_16  and  C_18
REMARK                            x       y       z     vdW  Elec       q    Type
REMARK                         _______ _______ _______ _____ _____    ______ ____
ROOT
ATOM      1  C   UNL     1      -3.505  -4.373   0.012  0.00  0.00    +0.056 C 
ATOM      2  C   UNL     1      -4.854  -4.377  -0.024  0.00  0.00    +0.017 C 
ATOM      3  N   UNL     1      -5.557  -5.548  -0.008  0.00  0.00    -0.300 N 
ATOM      4  C   UNL     1      -4.984  -6.757   0.043  0.00  0.00    +0.135 C 
ATOM      5  S   UNL     1      -5.983  -8.147   0.057  0.00  0.00    -0.019 S 
ATOM      6  N   UNL     1      -3.646  -6.915   0.082  0.00  0.00    -0.315 N 
ATOM      7  C   UNL     1      -2.797  -5.712   0.063  0.00  0.00    +0.139 C 
ATOM      8  C   UNL     1      -5.598  -3.067  -0.081  0.00  0.00    +0.061 C 
ATOM      9  H   UNL     1      -6.525  -5.501  -0.035  0.00  0.00    +0.154 HD
ATOM     10  H   UNL     1      -3.252  -7.801   0.119  0.00  0.00    +0.149 HD
ENDROOT
BRANCH   1  18
ATOM     11  C   UNL     1       0.452   1.168  -0.424  0.00  0.00    +0.089 C 
ATOM     12  C   UNL     1      -0.405   0.281   0.442  0.00  0.00    +0.136 A 
ATOM     13  C   UNL     1      -1.084  -0.804   0.031  0.00  0.00    +0.091 A 
ATOM     14  C   UNL     1      -1.757  -1.350   1.147  0.00  0.00    +0.168 A 
ATOM     15  N   UNL     1      -1.480  -0.605   2.187  0.00  0.00    -0.063 NA
ATOM     16  O   UNL     1      -0.617   0.433   1.758  0.00  0.00    -0.358 OA
ATOM     17  N   UNL     1      -2.572  -2.481   1.142  0.00  0.00    -0.264 N 
ATOM     18  C   UNL     1      -2.775  -3.160  -0.004  0.00  0.00    +0.249 C 
ATOM     19  O   UNL     1      -2.332  -2.730  -1.053  0.00  0.00    -0.270 OA
ATOM     20  H   UNL     1      -2.992  -2.779   1.964  0.00  0.00    +0.157 HD
ENDBRANCH   1  18
BRANCH   7  21
ATOM     21  C   UNL     1      -1.938  -5.737   1.301  0.00  0.00    -0.020 A 
ATOM     22  C   UNL     1      -2.520  -5.908   2.543  0.00  0.00    +0.026 A 
ATOM     23  C   UNL     1      -1.732  -5.930   3.680  0.00  0.00    +0.043 A 
ATOM     24  C   UNL     1      -0.360  -5.781   3.573  0.00  0.00    +0.040 A 
ATOM     25  C   UNL     1       0.222  -5.610   2.330  0.00  0.00    +0.043 A 
ATOM     26  C   UNL     1      -0.567  -5.593   1.194  0.00  0.00    +0.026 A 
ATOM     27 CL   UNL     1       1.942  -5.422   2.196  0.00  0.00    -0.083 Cl
ATOM     28 CL   UNL     1      -2.463  -6.144   5.239  0.00  0.00    -0.083 Cl
ENDBRANCH   7  21
TORSDOF 2
