REMARK  Name = ZINC46893561
REMARK  11 active torsions:
REMARK  status: ('A' for Active; 'I' for Inactive)
REMARK    1  A    between atoms: C_1  and  C_2
REMARK    2  A    between atoms: C_4  and  C_8
REMARK    3  A    between atoms: C_5  and  C_7
REMARK    4  A    between atoms: C_8  and  C_10
REMARK    5  A    between atoms: C_8  and  N_11
REMARK    6  A    between atoms: N_14  and  C_15
REMARK    7  A    between atoms: C_15  and  C_16
REMARK    8  A    between atoms: C_16  and  C_18
REMARK    9  A    between atoms: C_16  and  N_23
REMARK   10  A    between atoms: N_23  and  C_24
REMARK   11  A    between atoms: N_23  and  C_25
REMARK                            x       y       z     vdW  Elec       q    Type
REMARK                         _______ _______ _______ _____ _____    ______ ____
ROOT
ATOM      1  N   UNL     1      -2.996  -2.409   0.855  0.00  0.00    -0.293 N 
ATOM      2  C   UNL     1      -3.928  -3.219   1.394  0.00  0.00    +0.300 C 
ATOM      3  O   UNL     1      -3.749  -4.421   1.418  0.00  0.00    -0.253 OA
ATOM      4  N   UNL     1      -5.059  -2.696   1.907  0.00  0.00    -0.301 N 
ATOM      5  H   UNL     1      -3.139  -1.450   0.836  0.00  0.00    +0.151 HD
ATOM      6  H   UNL     1      -5.202  -1.736   1.888  0.00  0.00    +0.150 HD
ENDROOT
BRANCH   1   7
ATOM      7  C   UNL     1      -1.766  -2.977   0.297  0.00  0.00    +0.102 C 
ATOM      8  C   UNL     1      -1.986  -3.321  -1.177  0.00  0.00    +0.033 C 
BRANCH   7  12
ATOM      9  C   UNL     1       0.068   1.765   0.591  0.00  0.00    +0.051 C 
ATOM     10  C   UNL     1       0.105   0.259   0.548  0.00  0.00    -0.013 A 
ATOM     11  C   UNL     1      -0.923  -0.618   0.438  0.00  0.00    +0.016 A 
ATOM     12  C   UNL     1      -0.649  -1.973   0.417  0.00  0.00    -0.017 A 
ATOM     13  C   UNL     1       0.640  -2.385   0.507  0.00  0.00    -0.008 A 
ATOM     14  S   UNL     1       1.516  -0.833   0.619  0.00  0.00    -0.098 S 
ATOM     15  C   UNL     1       1.190  -3.787   0.507  0.00  0.00    +0.052 C 
ENDBRANCH   7  12
ENDBRANCH   1   7
BRANCH   4  16
ATOM     16  C   UNL     1      -6.073  -3.576   2.494  0.00  0.00    +0.095 C 
BRANCH  16  17
ATOM     17  C   UNL     1      -7.298  -2.750   2.890  0.00  0.00    -0.014 C 
BRANCH  17  18
ATOM     18  C   UNL     1      -6.913  -1.760   3.959  0.00  0.00    -0.022 A 
ATOM     19  C   UNL     1      -6.638  -0.439   3.840  0.00  0.00    +0.009 A 
ATOM     20  C   UNL     1      -6.304   0.281   4.971  0.00  0.00    +0.008 A 
ATOM     21  C   UNL     1      -6.261  -0.355   6.167  0.00  0.00    +0.045 A 
ATOM     22  S   UNL     1      -6.709  -2.023   5.713  0.00  0.00    -0.103 S 
ENDBRANCH  17  18
BRANCH  17  23
ATOM     23  N   UNL     1      -8.346  -3.643   3.403  0.00  0.00    +0.382 N 
ATOM     24  C   UNL     1      -9.549  -2.859   3.714  0.00  0.00    -0.096 C 
ATOM     25  C   UNL     1      -8.669  -4.653   2.387  0.00  0.00    -0.096 C 
ATOM     26  H   UNL     1      -8.017  -4.101   4.240  0.00  0.00    -0.082 HD
ENDBRANCH  17  23
ENDBRANCH  16  17
ENDBRANCH   4  16
TORSDOF 6
