REMARK  Name = ZINC53994226
REMARK  6 active torsions:
REMARK  status: ('A' for Active; 'I' for Inactive)
REMARK    1  A    between atoms: C_4  and  C_7
REMARK    2  A    between atoms: N_9  and  C_10
REMARK    3  A    between atoms: C_11  and  N_31
REMARK    4  A    between atoms: N_12  and  C_23
REMARK    5  A    between atoms: C_14  and  S_15
REMARK    6  A    between atoms: S_15  and  C_16
REMARK                            x       y       z     vdW  Elec       q    Type
REMARK                         _______ _______ _______ _____ _____    ______ ____
ROOT
ATOM      1  C   UNL     1       4.951  -2.682  -0.269  0.00  0.00    +0.108 A 
ATOM      2  C   UNL     1       5.111  -3.974  -0.675  0.00  0.00    +0.137 A 
ATOM      3  N   UNL     1       6.437  -4.269  -0.590  0.00  0.00    -0.243 N 
ATOM      4  N   UNL     1       7.104  -3.131  -0.120  0.00  0.00    -0.161 NA
ATOM      5  C   UNL     1       6.220  -2.178   0.068  0.00  0.00    +0.146 A 
ENDROOT
BRANCH   3   6
ATOM      6  C   UNL     1       7.057  -5.552  -0.929  0.00  0.00    +0.132 C 
ATOM      7  C   UNL     1       8.096  -5.338  -2.042  0.00  0.00    +0.051 C 
ATOM      8  C   UNL     1       8.950  -6.632  -2.162  0.00  0.00    +0.168 C 
ATOM      9  S   UNL     1       9.170  -7.058  -0.383  0.00  0.00    -0.029 S 
ATOM     10  O   UNL     1      10.377  -6.473   0.087  0.00  0.00    -0.174 OA
ATOM     11  O   UNL     1       8.954  -8.452  -0.211  0.00  0.00    -0.174 OA
ATOM     12  C   UNL     1       7.745  -6.138   0.328  0.00  0.00    +0.192 C 
ENDBRANCH   3   6
BRANCH   1  15
ATOM     13  C   UNL     1       3.531  -0.901  -0.993  0.00  0.00    +0.248 C 
ATOM     14  O   UNL     1       4.440  -0.473  -1.679  0.00  0.00    -0.270 OA
ATOM     15  N   UNL     1       3.731  -1.975  -0.204  0.00  0.00    -0.277 N 
ATOM     16  H   UNL     1       3.036  -2.262   0.409  0.00  0.00    +0.155 HD
BRANCH  13  20
ATOM     17  C   UNL     1      -0.272   0.987  -1.090  0.00  0.00    +0.000 A 
ATOM     18  C   UNL     1       0.760   1.478  -1.870  0.00  0.00    +0.001 A 
ATOM     19  C   UNL     1       1.998   0.869  -1.843  0.00  0.00    +0.013 A 
ATOM     20  C   UNL     1       2.208  -0.243  -1.027  0.00  0.00    +0.037 A 
ATOM     21  C   UNL     1       1.162  -0.733  -0.242  0.00  0.00    +0.013 A 
ATOM     22  C   UNL     1      -0.071  -0.115  -0.278  0.00  0.00    +0.001 A 
ENDBRANCH  13  20
ENDBRANCH   1  15
BRANCH   2  23
ATOM     23  N   UNL     1       4.100  -4.836  -1.100  0.00  0.00    -0.342 N 
ATOM     24  H   UNL     1       3.180  -4.529  -1.126  0.00  0.00    +0.144 HD
ATOM     25  H   UNL     1       4.317  -5.742  -1.370  0.00  0.00    +0.144 HD
ENDBRANCH   2  23
BRANCH   5  26
ATOM     26  S   UNL     1       6.564  -0.550   0.647  0.00  0.00    -0.066 S 
BRANCH  26  27
ATOM     27  C   UNL     1       8.324  -0.463   0.654  0.00  0.00    +0.014 A 
ATOM     28  C   UNL     1       9.010  -0.140  -0.511  0.00  0.00    +0.016 A 
ATOM     29  C   UNL     1      10.389  -0.072  -0.502  0.00  0.00    +0.021 A 
ATOM     30  C   UNL     1      11.088  -0.326   0.665  0.00  0.00    +0.041 A 
ATOM     31  C   UNL     1      10.408  -0.649   1.827  0.00  0.00    +0.021 A 
ATOM     32  C   UNL     1       9.028  -0.712   1.825  0.00  0.00    +0.016 A 
ATOM     33 CL   UNL     1      12.822  -0.240   0.673  0.00  0.00    -0.084 Cl
ENDBRANCH  26  27
ENDBRANCH   5  26
TORSDOF 6
