REMARK  Name = ZINC12915798
REMARK  8 active torsions:
REMARK  status: ('A' for Active; 'I' for Inactive)
REMARK    1  A    between atoms: C_1  and  C_2
REMARK    2  A    between atoms: C_2  and  C_4
REMARK    3  A    between atoms: C_2  and  N_12
REMARK    4  A    between atoms: N_12  and  C_13
REMARK    5  A    between atoms: C_13  and  C_14
REMARK    6  A    between atoms: N_16  and  C_17
REMARK    7  A    between atoms: C_19  and  S_24
REMARK    8  A    between atoms: S_24  and  N_27
REMARK                            x       y       z     vdW  Elec       q    Type
REMARK                         _______ _______ _______ _____ _____    ______ ____
ROOT
ATOM      1  C   UNL     1      -3.310  -1.074  -1.606  0.00  0.00    +0.200 C 
ATOM      2  O   UNL     1      -3.576  -2.093  -1.005  0.00  0.00    -0.278 OA
ATOM      3  N   UNL     1      -4.277  -0.413  -2.272  0.00  0.00    -0.286 N 
ATOM      4  H   UNL     1      -4.079   0.436  -2.698  0.00  0.00    +0.155 HD
ENDROOT
BRANCH   3   5
ATOM      5  C   UNL     1      -5.567  -0.951  -2.351  0.00  0.00    +0.054 A 
ATOM      6  C   UNL     1      -6.087  -1.669  -1.282  0.00  0.00    +0.053 A 
ATOM      7  C   UNL     1      -7.360  -2.198  -1.362  0.00  0.00    +0.107 A 
ATOM      8  C   UNL     1      -8.117  -2.014  -2.505  0.00  0.00    +0.030 A 
ATOM      9  C   UNL     1      -7.603  -1.300  -3.571  0.00  0.00    +0.024 A 
ATOM     10  C   UNL     1      -6.332  -0.762  -3.495  0.00  0.00    +0.062 A 
ATOM     11 CL   UNL     1      -5.689   0.141  -4.831  0.00  0.00    -0.082 Cl
BRANCH   7  12
ATOM     12  S   UNL     1      -8.021  -3.110  -0.007  0.00  0.00    +0.061 S 
ATOM     13  O   UNL     1      -9.022  -3.964  -0.541  0.00  0.00    -0.153 OA
ATOM     14  O   UNL     1      -6.910  -3.605   0.729  0.00  0.00    -0.153 OA
BRANCH  12  15
ATOM     15  N   UNL     1      -8.797  -2.029   0.979  0.00  0.00    -0.172 NA
ATOM     16  C   UNL     1      -8.081  -1.348   2.069  0.00  0.00    +0.137 C 
ATOM     17  C   UNL     1      -8.348   0.158   1.956  0.00  0.00    +0.177 C 
ATOM     18  O   UNL     1      -9.758   0.381   1.886  0.00  0.00    -0.377 OA
ATOM     19  C   UNL     1     -10.386  -0.197   0.739  0.00  0.00    +0.177 C 
ATOM     20  C   UNL     1     -10.222  -1.716   0.786  0.00  0.00    +0.137 C 
ENDBRANCH  12  15
ENDBRANCH   7  12
ENDBRANCH   3   5
BRANCH   1  21
ATOM     21  C   UNL     1      -1.898  -0.546  -1.607  0.00  0.00    +0.016 C 
BRANCH  21  22
ATOM     22  N   UNL     1      -1.042  -1.439  -0.815  0.00  0.00    +0.389 N 
ATOM     23  H   UNL     1      -1.055  -2.364  -1.219  0.00  0.00    -0.084 HD
ATOM     24  H   UNL     1      -1.384  -1.482   0.133  0.00  0.00    -0.084 HD
BRANCH  22  26
ATOM     25  C   UNL     1       0.376   0.422  -0.092  0.00  0.00    -0.009 C 
ATOM     26  C   UNL     1       0.335  -0.925  -0.816  0.00  0.00    -0.042 C 
BRANCH  26  27
ATOM     27  C   UNL     1       1.237  -1.904  -0.109  0.00  0.00    -0.043 A 
ATOM     28  C   UNL     1       0.699  -2.841   0.753  0.00  0.00    +0.005 A 
ATOM     29  C   UNL     1       1.526  -3.739   1.402  0.00  0.00    +0.020 A 
ATOM     30  C   UNL     1       2.892  -3.700   1.189  0.00  0.00    +0.042 A 
ATOM     31  C   UNL     1       3.431  -2.763   0.326  0.00  0.00    +0.040 A 
ATOM     32  C   UNL     1       2.602  -1.867  -0.327  0.00  0.00    +0.044 A 
ATOM     33 CL   UNL     1       3.277  -0.695  -1.415  0.00  0.00    -0.083 Cl
ATOM     34 CL   UNL     1       3.931  -4.827   2.004  0.00  0.00    -0.083 Cl
ENDBRANCH  26  27
ENDBRANCH  22  26
ENDBRANCH  21  22
ENDBRANCH   1  21
TORSDOF 7
