REMARK  Name = ZINC00673254
REMARK  7 active torsions:
REMARK  status: ('A' for Active; 'I' for Inactive)
REMARK    1  A    between atoms: C_1  and  C_2
REMARK    2  A    between atoms: C_4  and  C_15
REMARK    3  A    between atoms: C_5  and  C_14
REMARK    4  A    between atoms: N_6  and  C_7
REMARK    5  A    between atoms: N_16  and  N_17
REMARK    6  A    between atoms: C_18  and  C_20
REMARK    7  A    between atoms: N_23  and  C_25
REMARK                            x       y       z     vdW  Elec       q    Type
REMARK                         _______ _______ _______ _____ _____    ______ ____
ROOT
ATOM      1  C   UNL     1      -0.018   1.503   0.010  0.00  0.00    +0.064 C 
ATOM      2  C   UNL     1       0.002  -0.004   0.002  0.00  0.00    +0.022 A 
ATOM      3  C   UNL     1       0.008  -0.781  -1.097  0.00  0.00    +0.032 A 
ATOM      4  C   UNL     1       0.029  -2.170  -0.628  0.00  0.00    +0.016 A 
ATOM      5  C   UNL     1       0.035  -2.113   0.736  0.00  0.00    +0.030 A 
ATOM      6  N   UNL     1       0.024  -0.804   1.109  0.00  0.00    -0.317 N 
ATOM      7  C   UNL     1       0.055  -3.296   1.669  0.00  0.00    +0.064 C 
ENDROOT
BRANCH   6   8
ATOM      8  C   UNL     1       0.029  -0.345   2.433  0.00  0.00    +0.048 A 
ATOM      9  C   UNL     1       1.132  -0.576   3.244  0.00  0.00    +0.026 A 
ATOM     10  C   UNL     1       1.135  -0.123   4.549  0.00  0.00    +0.003 A 
ATOM     11  C   UNL     1       0.042   0.561   5.048  0.00  0.00    +0.015 A 
ATOM     12  C   UNL     1      -1.058   0.793   4.242  0.00  0.00    +0.020 A 
ATOM     13  C   UNL     1      -1.065   0.347   2.933  0.00  0.00    +0.041 A 
ATOM     14 BR   UNL     1      -2.552   1.728   4.928  0.00  0.00    -0.050 Br
ENDBRANCH   6   8
BRANCH   4  15
ATOM     15  C   UNL     1       0.042  -3.384  -1.463  0.00  0.00    +0.140 C 
ATOM     16  N   UNL     1       0.061  -4.556  -0.904  0.00  0.00    -0.187 NA
BRANCH  16  17
ATOM     17  N   UNL     1       0.073  -5.710  -1.697  0.00  0.00    -0.202 N 
ATOM     18  C   UNL     1       0.092  -6.927  -1.117  0.00  0.00    +0.285 C 
ATOM     19  O   UNL     1       0.098  -7.022   0.096  0.00  0.00    -0.267 OA
ATOM     20  H   UNL     1       0.068  -5.635  -2.664  0.00  0.00    +0.178 HD
BRANCH  18  21
ATOM     21  C   UNL     1       0.105  -8.143  -1.953  0.00  0.00    +0.167 A 
ATOM     22  C   UNL     1       0.119  -9.482  -1.491  0.00  0.00    +0.091 A 
ATOM     23  C   UNL     1       0.127 -10.250  -2.607  0.00  0.00    +0.128 A 
ATOM     24  N   UNL     1       0.118  -9.409  -3.671  0.00  0.00    -0.272 N 
ATOM     25  N   UNL     1       0.099  -8.189  -3.271  0.00  0.00    -0.165 NA
ATOM     26  C   UNL     1       0.122  -9.832  -5.074  0.00  0.00    +0.172 C 
ATOM     27 CL   UNL     1       0.126 -10.024   0.158  0.00  0.00    -0.080 Cl
ENDBRANCH  18  21
ENDBRANCH  16  17
ENDBRANCH   4  15
TORSDOF 4
