REMARK  Name = ZINC59465854
REMARK  5 active torsions:
REMARK  status: ('A' for Active; 'I' for Inactive)
REMARK    1  A    between atoms: C_1  and  C_2
REMARK    2  A    between atoms: C_3  and  C_20
REMARK    3  A    between atoms: C_5  and  N_10
REMARK    4  A    between atoms: C_6  and  C_7
REMARK    5  A    between atoms: C_11  and  C_12
REMARK                            x       y       z     vdW  Elec       q    Type
REMARK                         _______ _______ _______ _____ _____    ______ ____
ROOT
ATOM      1  C   UNL     1      -0.018   1.503   0.010  0.00  0.00    +0.045 C 
ATOM      2  C   UNL     1       0.002  -0.004   0.002  0.00  0.00    -0.026 A 
ATOM      3  C   UNL     1       0.006  -0.679  -1.167  0.00  0.00    -0.008 A 
ATOM      4  S   UNL     1       0.031  -2.383  -0.641  0.00  0.00    -0.074 S 
ATOM      5  C   UNL     1       0.036  -2.114   1.124  0.00  0.00    +0.114 A 
ATOM      6  C   UNL     1       0.023  -0.714   1.201  0.00  0.00    +0.072 A 
ATOM      7  C   UNL     1      -0.009  -0.128  -2.570  0.00  0.00    +0.052 C 
ENDROOT
BRANCH   6   8
ATOM      8  C   UNL     1       0.026  -0.022   2.495  0.00  0.00    +0.244 C 
ATOM      9  O   UNL     1      -1.026   0.251   3.042  0.00  0.00    -0.270 OA
ATOM     10  N   UNL     1       1.195   0.311   3.078  0.00  0.00    -0.325 N 
ATOM     11  H   UNL     1       2.034   0.093   2.642  0.00  0.00    +0.145 HD
ATOM     12  H   UNL     1       1.197   0.768   3.934  0.00  0.00    +0.145 HD
ENDBRANCH   6   8
BRANCH   5  13
ATOM     13  N   UNL     1       0.053  -3.022   2.123  0.00  0.00    -0.247 NA
ATOM     14  C   UNL     1       0.069  -4.300   1.846  0.00  0.00    +0.121 C 
BRANCH  14  15
ATOM     15  C   UNL     1       0.088  -5.288   2.934  0.00  0.00    +0.011 A 
ATOM     16  C   UNL     1       0.111  -6.656   2.641  0.00  0.00    +0.012 A 
ATOM     17  C   UNL     1       0.128  -7.577   3.666  0.00  0.00    +0.021 A 
ATOM     18  C   UNL     1       0.122  -7.151   4.985  0.00  0.00    +0.042 A 
ATOM     19  C   UNL     1       0.099  -5.799   5.284  0.00  0.00    +0.040 A 
ATOM     20  C   UNL     1       0.088  -4.865   4.269  0.00  0.00    +0.051 A 
ATOM     21 CL   UNL     1       0.066  -3.170   4.645  0.00  0.00    -0.083 Cl
ATOM     22 CL   UNL     1       0.143  -8.319   6.269  0.00  0.00    -0.083 Cl
ENDBRANCH  14  15
ENDBRANCH   5  13
TORSDOF 3
