REMARK  Name = ZINC44843437
REMARK  4 active torsions:
REMARK  status: ('A' for Active; 'I' for Inactive)
REMARK    1  A    between atoms: C_1  and  C_2
REMARK    2  A    between atoms: C_2  and  C_4
REMARK    3  A    between atoms: C_2  and  C_7
REMARK    4  A    between atoms: C_4  and  N_6
REMARK                            x       y       z     vdW  Elec       q    Type
REMARK                         _______ _______ _______ _____ _____    ______ ____
ROOT
ATOM      1  C   UNL     1       0.796  -0.403   1.211  0.00  0.00    +0.225 C 
ATOM      2  O   UNL     1       0.305  -1.140   2.039  0.00  0.00    -0.275 OA
ATOM      3  N   UNL     1       2.048   0.067   1.384  0.00  0.00    -0.300 N 
ATOM      4  C   UNL     1       2.763  -0.257   2.629  0.00  0.00    +0.108 C 
ATOM      5  C   UNL     1       4.250  -0.668   2.475  0.00  0.00    +0.030 C 
ATOM      6  C   UNL     1       4.491  -1.629   1.354  0.00  0.00    +0.071 C 
ATOM      7  S   UNL     1       4.805  -0.714  -0.201  0.00  0.00    -0.159 S 
ATOM      8  C   UNL     1       3.247  -0.091  -0.694  0.00  0.00    +0.088 C 
ATOM      9  C   UNL     1       2.638   0.856   0.350  0.00  0.00    +0.118 C 
ENDROOT
BRANCH   1  11
ATOM     10  C   UNL     1      -1.213   0.810   0.411  0.00  0.00    +0.024 C 
ATOM     11  C   UNL     1       0.007  -0.011  -0.011  0.00  0.00    +0.123 C 
BRANCH  11  12
ATOM     12  C   UNL     1      -0.449  -1.252  -0.734  0.00  0.00    +0.058 C 
ATOM     13  S   UNL     1      -0.392  -2.671   0.001  0.00  0.00    -0.040 S 
BRANCH  12  14
ATOM     14  N   UNL     1      -0.904  -1.167  -2.000  0.00  0.00    -0.355 N 
ATOM     15  H   UNL     1      -0.938  -0.306  -2.446  0.00  0.00    +0.143 HD
ATOM     16  H   UNL     1      -1.197  -1.966  -2.465  0.00  0.00    +0.143 HD
ENDBRANCH  12  14
ENDBRANCH  11  12
ENDBRANCH   1  11
TORSDOF 3
