REMARK  Name = ZINC13739541
REMARK  5 active torsions:
REMARK  status: ('A' for Active; 'I' for Inactive)
REMARK    1  A    between atoms: C_1  and  S_2
REMARK    2  A    between atoms: S_2  and  C_3
REMARK    3  A    between atoms: N_16  and  N_17
REMARK    4  A    between atoms: C_18  and  C_20
REMARK    5  A    between atoms: C_21  and  C_22
REMARK                            x       y       z     vdW  Elec       q    Type
REMARK                         _______ _______ _______ _____ _____    ______ ____
ROOT
ATOM      1  C   UNL     1      -4.769   3.829   0.148  0.00  0.00    +0.191 A 
ATOM      2  N   UNL     1      -3.630   3.147   0.136  0.00  0.00    -0.205 NA
ATOM      3  C   UNL     1      -3.601   1.829   0.029  0.00  0.00    +0.148 A 
ATOM      4  C   UNL     1      -4.827   1.114  -0.082  0.00  0.00    +0.052 A 
ATOM      5  C   UNL     1      -5.035  -0.331  -0.202  0.00  0.00    -0.025 A 
ATOM      6  C   UNL     1      -6.310  -0.761  -0.285  0.00  0.00    -0.004 A 
ATOM      7  S   UNL     1      -7.299   0.708  -0.203  0.00  0.00    -0.073 S 
ATOM      8  C   UNL     1      -5.995   1.901  -0.056  0.00  0.00    +0.115 A 
ATOM      9  N   UNL     1      -5.940   3.215   0.053  0.00  0.00    -0.215 NA
ATOM     10  C   UNL     1      -6.784  -2.176  -0.418  0.00  0.00    +0.043 C 
ATOM     11  C   UNL     1      -5.589  -3.052  -0.819  0.00  0.00    +0.005 C 
ATOM     12  C   UNL     1      -4.406  -2.717   0.094  0.00  0.00    +0.005 C 
ATOM     13  C   UNL     1      -3.874  -1.322  -0.237  0.00  0.00    +0.037 C 
ATOM     14  N   UNL     1      -2.394   1.154   0.020  0.00  0.00    -0.248 N 
ATOM     15  H   UNL     1      -2.353   0.239  -0.299  0.00  0.00    +0.172 HD
ENDROOT
BRANCH  14  16
ATOM     16  N   UNL     1      -1.231   1.792   0.471  0.00  0.00    -0.232 N 
ATOM     17  C   UNL     1      -0.055   1.134   0.462  0.00  0.00    +0.253 C 
ATOM     18  O   UNL     1      -0.003  -0.015   0.061  0.00  0.00    -0.269 OA
ATOM     19  H   UNL     1      -1.273   2.707   0.790  0.00  0.00    +0.173 HD
BRANCH  17  20
ATOM     20  C   UNL     1       1.161   1.802   0.927  0.00  0.00    +0.069 C 
ATOM     21  C   UNL     1       2.339   1.146   0.913  0.00  0.00    +0.013 C 
BRANCH  21  22
ATOM     22  C   UNL     1       3.562   1.818   1.381  0.00  0.00    -0.025 A 
ATOM     23  C   UNL     1       3.507   3.139   1.837  0.00  0.00    +0.008 A 
ATOM     24  C   UNL     1       4.656   3.760   2.279  0.00  0.00    +0.001 A 
ATOM     25  C   UNL     1       5.863   3.083   2.263  0.00  0.00    +0.000 A 
ATOM     26  C   UNL     1       5.926   1.777   1.808  0.00  0.00    +0.001 A 
ATOM     27  C   UNL     1       4.785   1.141   1.368  0.00  0.00    +0.008 A 
ENDBRANCH  21  22
ENDBRANCH  17  20
ENDBRANCH  14  16
BRANCH   1  29
ATOM     28  C   UNL     1      -6.495   5.950   0.256  0.00  0.00    +0.093 C 
ATOM     29  S   UNL     1      -4.723   5.585   0.294  0.00  0.00    -0.089 S 
ENDBRANCH   1  29
TORSDOF 4
