REMARK  Name = ZINC01109683
REMARK  8 active torsions:
REMARK  status: ('A' for Active; 'I' for Inactive)
REMARK    1  A    between atoms: C_1  and  C_2
REMARK    2  A    between atoms: C_5  and  C_9
REMARK    3  A    between atoms: C_6  and  C_8
REMARK    4  A    between atoms: N_11  and  C_12
REMARK    5  A    between atoms: C_12  and  N_14
REMARK    6  A    between atoms: N_14  and  C_15
REMARK    7  A    between atoms: C_18  and  C_21
REMARK    8  A    between atoms: C_26  and  C_30
REMARK                            x       y       z     vdW  Elec       q    Type
REMARK                         _______ _______ _______ _____ _____    ______ ____
ROOT
ATOM      1  N   UNL     1      -4.008   2.769  -0.674  0.00  0.00    -0.297 N 
ATOM      2  H   UNL     1      -4.086   2.055  -0.022  0.00  0.00    +0.154 HD
ENDROOT
BRANCH   1   3
ATOM      3  C   UNL     1      -5.061   3.667  -0.856  0.00  0.00    +0.033 A 
ATOM      4  C   UNL     1      -4.803   5.032  -0.930  0.00  0.00    +0.024 A 
ATOM      5  C   UNL     1      -5.840   5.920  -1.114  0.00  0.00    +0.015 A 
ATOM      6  C   UNL     1      -7.151   5.450  -1.217  0.00  0.00    +0.037 A 
ATOM      7  C   UNL     1      -7.406   4.079  -1.137  0.00  0.00    +0.015 A 
ATOM      8  C   UNL     1      -6.365   3.195  -0.957  0.00  0.00    +0.024 A 
BRANCH   6   9
ATOM      9  C   UNL     1      -8.265   6.400  -1.410  0.00  0.00    +0.228 A 
ATOM     10  N   UNL     1      -9.527   6.066  -1.518  0.00  0.00    -0.209 NA
ATOM     11  C   UNL     1     -10.264   7.194  -1.684  0.00  0.00    +0.110 A 
ATOM     12  C   UNL     1     -11.630   7.438  -1.847  0.00  0.00    +0.032 A 
ATOM     13  C   UNL     1     -12.079   8.731  -1.996  0.00  0.00    +0.005 A 
ATOM     14  C   UNL     1     -11.185   9.791  -1.983  0.00  0.00    -0.047 A 
ATOM     15  C   UNL     1      -9.834   9.566  -1.823  0.00  0.00    +0.052 A 
ATOM     16  C   UNL     1      -9.363   8.271  -1.672  0.00  0.00    +0.156 A 
ATOM     17  O   UNL     1      -8.133   7.737  -1.495  0.00  0.00    -0.435 OA
ATOM     18  C   UNL     1     -11.694  11.201  -2.146  0.00  0.00    +0.044 C 
ENDBRANCH   6   9
ENDBRANCH   1   3
BRANCH   1  19
ATOM     19  C   UNL     1      -2.882   2.893  -1.404  0.00  0.00    +0.141 C 
ATOM     20  S   UNL     1      -2.698   4.216  -2.475  0.00  0.00    -0.018 S 
BRANCH  19  23
ATOM     21  C   UNL     1      -0.775   2.101  -2.022  0.00  0.00    +0.250 C 
ATOM     22  O   UNL     1      -0.645   3.040  -2.783  0.00  0.00    -0.270 OA
ATOM     23  N   UNL     1      -1.901   1.976  -1.292  0.00  0.00    -0.264 N 
ATOM     24  H   UNL     1      -2.005   1.227  -0.685  0.00  0.00    +0.157 HD
BRANCH  21  29
ATOM     25  C   UNL     1       3.405  -1.826  -1.554  0.00  0.00    +0.044 C 
ATOM     26  C   UNL     1       2.311  -0.796  -1.675  0.00  0.00    -0.050 A 
ATOM     27  C   UNL     1       1.216  -0.852  -0.831  0.00  0.00    +0.004 A 
ATOM     28  C   UNL     1       0.211   0.087  -0.937  0.00  0.00    +0.013 A 
ATOM     29  C   UNL     1       0.301   1.095  -1.899  0.00  0.00    +0.040 A 
ATOM     30  C   UNL     1       1.409   1.146  -2.747  0.00  0.00    -0.038 A 
ATOM     31  C   UNL     1       2.407   0.201  -2.630  0.00  0.00    +0.007 A 
ATOM     32  C   UNL     1       1.514   2.231  -3.787  0.00  0.00    +0.044 C 
ENDBRANCH  21  29
ENDBRANCH  19  23
ENDBRANCH   1  19
TORSDOF 5
