REMARK  Name = ZINC00422155
REMARK  5 active torsions:
REMARK  status: ('A' for Active; 'I' for Inactive)
REMARK    1  A    between atoms: C_1  and  C_2
REMARK    2  A    between atoms: C_10  and  N_24
REMARK    3  A    between atoms: C_11  and  C_15
REMARK    4  A    between atoms: N_17  and  C_18
REMARK    5  A    between atoms: C_18  and  C_19
REMARK                            x       y       z     vdW  Elec       q    Type
REMARK                         _______ _______ _______ _____ _____    ______ ____
ROOT
ATOM      1  C   UNL     1      -0.018   1.503   0.010  0.00  0.00    +0.044 C 
ATOM      2  C   UNL     1       0.002  -0.004   0.002  0.00  0.00    -0.050 A 
ATOM      3  C   UNL     1       0.005  -0.684  -1.215  0.00  0.00    +0.005 A 
ATOM      4  C   UNL     1       0.024  -2.044  -1.258  0.00  0.00    +0.026 A 
ATOM      5  C   UNL     1       0.040  -2.780  -0.061  0.00  0.00    +0.047 A 
ATOM      6  C   UNL     1       0.036  -2.089   1.179  0.00  0.00    -0.001 A 
ATOM      7  C   UNL     1       0.022  -0.680   1.182  0.00  0.00    +0.013 A 
ATOM      8  C   UNL     1       0.051  -2.810   2.377  0.00  0.00    +0.022 A 
ATOM      9  C   UNL     1       0.069  -4.215   2.325  0.00  0.00    +0.028 A 
ATOM     10  C   UNL     1       0.086  -5.159   3.436  0.00  0.00    +0.053 A 
ATOM     11  C   UNL     1       0.103  -6.505   3.151  0.00  0.00    +0.097 A 
ATOM     12  S   UNL     1       0.096  -6.555   1.371  0.00  0.00    -0.064 S 
ATOM     13  C   UNL     1       0.071  -4.811   1.034  0.00  0.00    +0.088 A 
ATOM     14  N   UNL     1       0.057  -4.116  -0.076  0.00  0.00    -0.349 N 
ATOM     15  H   UNL     1       0.059  -4.581  -0.927  0.00  0.00    +0.166 HD
ENDROOT
BRANCH  11  16
ATOM     16  C   UNL     1       0.121  -7.592   4.059  0.00  0.00    +0.253 C 
ATOM     17  O   UNL     1       0.124  -7.384   5.259  0.00  0.00    -0.270 OA
ATOM     18  N   UNL     1       0.135  -8.857   3.595  0.00  0.00    -0.304 N 
ATOM     19  H   UNL     1       0.133  -9.023   2.639  0.00  0.00    +0.149 HD
BRANCH  18  20
ATOM     20  C   UNL     1       0.154  -9.982   4.533  0.00  0.00    +0.179 C 
BRANCH  20  21
ATOM     21  C   UNL     1       0.168 -11.278   3.764  0.00  0.00    +0.122 A 
ATOM     22  C   UNL     1       1.266 -11.943   3.362  0.00  0.00    +0.046 A 
ATOM     23  C   UNL     1       0.818 -13.098   2.680  0.00  0.00    +0.041 A 
ATOM     24  C   UNL     1      -0.526 -13.069   2.705  0.00  0.00    +0.195 A 
ATOM     25  O   UNL     1      -0.915 -11.968   3.369  0.00  0.00    -0.466 OA
ENDBRANCH  20  21
ENDBRANCH  18  20
ENDBRANCH  11  16
BRANCH  10  26
ATOM     26  N   UNL     1       0.087  -4.711   4.748  0.00  0.00    -0.356 N 
ATOM     27  H   UNL     1       0.076  -3.760   4.936  0.00  0.00    +0.142 HD
ATOM     28  H   UNL     1       0.098  -5.349   5.479  0.00  0.00    +0.142 HD
ENDBRANCH  10  26
TORSDOF 4
