REMARK  Name = ZINC05085903
REMARK  7 active torsions:
REMARK  status: ('A' for Active; 'I' for Inactive)
REMARK    1  A    between atoms: C_1  and  C_2
REMARK    2  A    between atoms: C_1  and  O_23
REMARK    3  A    between atoms: C_4  and  O_22
REMARK    4  A    between atoms: C_6  and  O_21
REMARK    5  A    between atoms: C_8  and  N_14
REMARK    6  A    between atoms: C_10  and  O_13
REMARK    7  A    between atoms: C_15  and  C_17
REMARK                            x       y       z     vdW  Elec       q    Type
REMARK                         _______ _______ _______ _____ _____    ______ ____
ROOT
ATOM      1  C   UNL     1       2.041   1.128  -1.261  0.00  0.00    +0.178 C 
ATOM      2  C   UNL     1       1.286   1.562  -0.002  0.00  0.00    +0.176 C 
ATOM      3  C   UNL     1       1.146   3.087  -0.000  0.00  0.00    +0.171 C 
ATOM      4  C   UNL     1       2.539   3.717  -0.089  0.00  0.00    +0.160 C 
ATOM      5  C   UNL     1       3.246   3.200  -1.345  0.00  0.00    +0.270 C 
ATOM      6  O   UNL     1       3.316   1.774  -1.297  0.00  0.00    -0.341 OA
ENDROOT
BRANCH   4   7
ATOM      7  N   UNL     1       2.414   5.175  -0.163  0.00  0.00    -0.298 N 
ATOM      8  C   UNL     1       3.431   5.960   0.243  0.00  0.00    +0.318 C 
ATOM      9  O   UNL     1       4.450   5.460   0.670  0.00  0.00    -0.266 OA
ATOM     10  H   UNL     1       1.599   5.575  -0.504  0.00  0.00    +0.150 HD
BRANCH   8  11
ATOM     11  C   UNL     1       3.302   7.460   0.167  0.00  0.00    +0.469 C 
ATOM     12  F   UNL     1       4.476   8.054   0.641  0.00  0.00    -0.162 F 
ATOM     13  F   UNL     1       3.089   7.843  -1.161  0.00  0.00    -0.162 F 
ATOM     14  F   UNL     1       2.220   7.875   0.951  0.00  0.00    -0.162 F 
ENDBRANCH   8  11
ENDBRANCH   4   7
BRANCH   5  15
ATOM     15  O   UNL     1       2.514   3.603  -2.504  0.00  0.00    -0.365 OA
ATOM     16  H   UNL     1       2.904   3.308  -3.338  0.00  0.00    +0.213 HD
ENDBRANCH   5  15
BRANCH   3  17
ATOM     17  O   UNL     1       0.364   3.496  -1.124  0.00  0.00    -0.387 OA
ATOM     18  H   UNL     1      -0.530   3.128  -1.136  0.00  0.00    +0.210 HD
ENDBRANCH   3  17
BRANCH   2  19
ATOM     19  O   UNL     1      -0.011   0.963   0.007  0.00  0.00    -0.387 OA
ATOM     20  H   UNL     1       0.002  -0.004   0.002  0.00  0.00    +0.210 HD
ENDBRANCH   2  19
BRANCH   1  21
ATOM     21  C   UNL     1       2.238  -0.389  -1.240  0.00  0.00    +0.190 C 
BRANCH  21  22
ATOM     22  O   UNL     1       2.838  -0.808  -2.468  0.00  0.00    -0.392 OA
ATOM     23  H   UNL     1       2.993  -1.761  -2.525  0.00  0.00    +0.210 HD
ENDBRANCH  21  22
ENDBRANCH   1  21
TORSDOF 7
