REMARK  Name = ZINC51995557
REMARK  4 active torsions:
REMARK  status: ('A' for Active; 'I' for Inactive)
REMARK    1  A    between atoms: C_4  and  O_24
REMARK    2  A    between atoms: C_6  and  N_9
REMARK    3  A    between atoms: C_10  and  C_12
REMARK    4  A    between atoms: C_19  and  C_21
REMARK                            x       y       z     vdW  Elec       q    Type
REMARK                         _______ _______ _______ _____ _____    ______ ____
ROOT
ATOM      1  N   UNL     1       0.010  -0.012  -2.444  0.00  0.00    -0.310 N 
ATOM      2  C   UNL     1      -1.042  -0.701  -2.929  0.00  0.00    +0.218 C 
ATOM      3  O   UNL     1      -1.403  -1.722  -2.383  0.00  0.00    -0.275 OA
ATOM      4  H   UNL     1       0.298   0.805  -2.880  0.00  0.00    +0.149 HD
ENDROOT
BRANCH   2   5
ATOM      5  C   UNL     1      -1.771  -0.201  -4.150  0.00  0.00    +0.092 C 
ATOM      6  C   UNL     1      -2.340   1.192  -3.871  0.00  0.00    +0.016 C 
ATOM      7  C   UNL     1      -3.052   1.713  -5.121  0.00  0.00    +0.020 C 
ATOM      8  C   UNL     1      -4.214   0.778  -5.470  0.00  0.00    +0.108 C 
ATOM      9  N   UNL     1      -3.697  -0.592  -5.597  0.00  0.00    -0.301 N 
ATOM     10  C   UNL     1      -2.918  -1.159  -4.488  0.00  0.00    +0.120 C 
ATOM     11  C   UNL     1      -3.932  -1.314  -6.710  0.00  0.00    +0.219 C 
ATOM     12  O   UNL     1      -3.499  -2.443  -6.803  0.00  0.00    -0.275 OA
BRANCH  11  13
ATOM     13  C   UNL     1      -4.732  -0.718  -7.840  0.00  0.00    +0.075 C 
ATOM     14  C   UNL     1      -3.993  -0.408  -9.143  0.00  0.00    +0.013 C 
ATOM     15  C   UNL     1      -4.965  -1.588  -9.077  0.00  0.00    +0.013 C 
ENDBRANCH  11  13
ENDBRANCH   2   5
BRANCH   1  20
ATOM     16  C   UNL     1      -0.019   1.526   0.010  0.00  0.00    +0.002 C 
ATOM     17  C   UNL     1       1.417   2.055  -0.000  0.00  0.00    +0.003 C 
ATOM     18  C   UNL     1       2.133   1.562  -1.259  0.00  0.00    +0.033 C 
ATOM     19  C   UNL     1       2.154   0.032  -1.268  0.00  0.00    +0.135 C 
ATOM     20  C   UNL     1       0.718  -0.497  -1.257  0.00  0.00    +0.101 C 
ATOM     21  C   UNL     1       0.002  -0.004   0.002  0.00  0.00    +0.025 C 
BRANCH  19  22
ATOM     22  O   UNL     1       2.822  -0.429  -2.443  0.00  0.00    -0.390 OA
ATOM     23  H   UNL     1       3.739  -0.131  -2.517  0.00  0.00    +0.210 HD
ENDBRANCH  19  22
ENDBRANCH   1  20
TORSDOF 4
