REMARK  Name = ZINC64538966
REMARK  13 active torsions:
REMARK  status: ('A' for Active; 'I' for Inactive)
REMARK    1  A    between atoms: C_1  and  C_2
REMARK    2  A    between atoms: C_8  and  C_11
REMARK    3  A    between atoms: C_11  and  C_12
REMARK    4  A    between atoms: C_12  and  N_13
REMARK    5  A    between atoms: C_14  and  C_16
REMARK    6  A    between atoms: C_23  and  C_25
REMARK    7  A    between atoms: C_27  and  C_39
REMARK    8  A    between atoms: C_29  and  C_33
REMARK    9  A    between atoms: C_30  and  C_32
REMARK   10  A    between atoms: C_33  and  O_35
REMARK   11  A    between atoms: O_35  and  C_36
REMARK   12  A    between atoms: C_36  and  C_37
REMARK   13  A    between atoms: C_36  and  C_38
REMARK                            x       y       z     vdW  Elec       q    Type
REMARK                         _______ _______ _______ _____ _____    ______ ____
ROOT
ATOM      1  C   UNL     1      -2.534  -2.338   7.783  0.00  0.00    +0.092 C 
ATOM      2  C   UNL     1      -1.943  -0.954   8.058  0.00  0.00    +0.016 C 
ATOM      3  C   UNL     1      -1.910  -0.701   9.567  0.00  0.00    +0.020 C 
ATOM      4  C   UNL     1      -3.339  -0.734  10.118  0.00  0.00    +0.108 C 
ATOM      5  N   UNL     1      -3.965  -2.007   9.732  0.00  0.00    -0.299 N 
ATOM      6  C   UNL     1      -3.970  -2.391   8.314  0.00  0.00    +0.120 C 
ATOM      7  C   UNL     1      -4.523  -2.807  10.662  0.00  0.00    +0.236 C 
ATOM      8  O   UNL     1      -5.036  -3.854  10.332  0.00  0.00    -0.274 OA
ENDROOT
BRANCH   7   9
ATOM      9  C   UNL     1      -4.509  -2.399  12.113  0.00  0.00    +0.164 C 
ATOM     10  C   UNL     1      -5.655  -1.413  12.407  0.00  0.00    +0.054 C 
ATOM     11  C   UNL     1      -6.497  -2.137  13.436  0.00  0.00    +0.058 C 
ATOM     12  C   UNL     1      -5.930  -3.329  13.685  0.00  0.00    +0.012 C 
ATOM     13  N   UNL     1      -4.794  -3.555  12.974  0.00  0.00    -0.336 N 
ATOM     14  C   UNL     1      -6.499  -4.322  14.665  0.00  0.00    +0.061 C 
ATOM     15  C   UNL     1      -5.106  -0.105  12.982  0.00  0.00    +0.015 C 
ATOM     16  H   UNL     1      -4.252  -4.358  13.026  0.00  0.00    +0.147 HD
BRANCH  11  17
ATOM     17  C   UNL     1      -7.678  -1.643  14.032  0.00  0.00    +0.337 C 
ATOM     18  O   UNL     1      -8.273  -2.318  14.851  0.00  0.00    -0.245 OA
BRANCH  17  19
ATOM     19  O   UNL     1      -8.145  -0.423  13.694  0.00  0.00    -0.459 OA
BRANCH  19  20
ATOM     20  C   UNL     1      -9.345   0.012  14.336  0.00  0.00    +0.171 C 
ATOM     21  C   UNL     1      -8.992   0.761  15.623  0.00  0.00    +0.052 C 
ATOM     22  C   UNL     1     -10.116   0.944  13.399  0.00  0.00    +0.052 C 
ENDBRANCH  19  20
ENDBRANCH  17  19
ENDBRANCH  11  17
ENDBRANCH   7   9
BRANCH   1  24
ATOM     23  N   UNL     1      -1.377  -2.600   5.613  0.00  0.00    -0.315 N 
ATOM     24  C   UNL     1      -2.537  -2.599   6.299  0.00  0.00    +0.218 C 
ATOM     25  O   UNL     1      -3.583  -2.808   5.722  0.00  0.00    -0.275 OA
ATOM     26  H   UNL     1      -0.540  -2.433   6.075  0.00  0.00    +0.149 HD
BRANCH  23  27
ATOM     27  C   UNL     1      -1.379  -2.854   4.170  0.00  0.00    +0.108 C 
BRANCH  27  28
ATOM     28  C   UNL     1       0.055  -2.799   3.641  0.00  0.00    +0.052 C 
BRANCH  28  36
ATOM     29  C   UNL     1      -0.018   1.503   0.010  0.00  0.00    +0.044 C 
ATOM     30  C   UNL     1       0.002  -0.004   0.002  0.00  0.00    -0.050 A 
ATOM     31  C   UNL     1       0.005  -0.680  -1.226  0.00  0.00    +0.005 A 
ATOM     32  C   UNL     1       0.023  -2.026  -1.317  0.00  0.00    +0.026 A 
ATOM     33  C   UNL     1       0.039  -2.826  -0.141  0.00  0.00    +0.043 A 
ATOM     34  N   UNL     1       0.057  -4.126   0.030  0.00  0.00    -0.380 N 
ATOM     35  C   UNL     1       0.067  -4.408   1.470  0.00  0.00    +0.144 C 
ATOM     36  C   UNL     1       0.052  -3.060   2.156  0.00  0.00    -0.040 C 
ATOM     37  C   UNL     1       0.036  -2.137   1.168  0.00  0.00    -0.001 A 
ATOM     38  C   UNL     1       0.022  -0.669   1.180  0.00  0.00    +0.013 A 
ATOM     39  H   UNL     1       0.062  -4.790  -0.677  0.00  0.00    +0.160 HD
ENDBRANCH  28  36
ENDBRANCH  27  28
ENDBRANCH  23  27
ENDBRANCH   1  24
TORSDOF 8
