REMARK  Name = ZINC39665355
REMARK  9 active torsions:
REMARK  status: ('A' for Active; 'I' for Inactive)
REMARK    1  A    between atoms: C_1  and  C_2
REMARK    2  A    between atoms: C_4  and  C_11
REMARK    3  A    between atoms: C_5  and  C_7
REMARK    4  A    between atoms: C_15  and  C_24
REMARK    5  A    between atoms: N_26  and  C_27
REMARK    6  A    between atoms: C_27  and  C_28
REMARK    7  A    between atoms: C_28  and  C_30
REMARK    8  A    between atoms: C_28  and  O_31
REMARK    9  A    between atoms: O_31  and  C_32
REMARK                            x       y       z     vdW  Elec       q    Type
REMARK                         _______ _______ _______ _____ _____    ______ ____
ROOT
ATOM      1  C   UNL     1      -1.325  -3.588  -0.128  0.00  0.00    +0.250 C 
ATOM      2  O   UNL     1      -0.780  -4.665  -0.278  0.00  0.00    -0.270 OA
ATOM      3  N   UNL     1      -2.666  -3.523  -0.003  0.00  0.00    -0.296 N 
ATOM      4  C   UNL     1      -3.514  -2.310   0.064  0.00  0.00    +0.121 C 
ATOM      5  C   UNL     1      -4.769  -2.665  -0.765  0.00  0.00    +0.100 C 
ATOM      6  C   UNL     1      -4.837  -4.201  -0.735  0.00  0.00    -0.004 C 
ATOM      7  C   UNL     1      -3.625  -4.649   0.095  0.00  0.00    +0.115 C 
ATOM      8  C   UNL     1      -4.736  -4.762  -2.151  0.00  0.00    -0.010 C 
ATOM      9  C   UNL     1      -4.863  -6.287  -2.100  0.00  0.00    -0.082 C 
ATOM     10  N   UNL     1      -6.151  -6.653  -1.498  0.00  0.00    +0.379 N 
ATOM     11  C   UNL     1      -6.202  -6.190  -0.106  0.00  0.00    -0.082 C 
ATOM     12  C   UNL     1      -6.131  -4.661  -0.072  0.00  0.00    -0.010 C 
ATOM     13  H   UNL     1      -6.899  -6.224  -2.022  0.00  0.00    -0.086 HD
ATOM     14  H   UNL     1      -6.259  -7.656  -1.522  0.00  0.00    -0.086 HD
ENDROOT
BRANCH   1  18
ATOM     15  C   UNL     1       0.255   1.168   0.828  0.00  0.00    +0.086 C 
ATOM     16  C   UNL     1       0.159  -0.257   0.346  0.00  0.00    +0.103 A 
ATOM     17  C   UNL     1      -0.872  -1.087   0.571  0.00  0.00    +0.058 A 
ATOM     18  C   UNL     1      -0.520  -2.354  -0.085  0.00  0.00    +0.087 A 
ATOM     19  C   UNL     1       0.706  -2.150  -0.647  0.00  0.00    +0.220 A 
ATOM     20  O   UNL     1       1.087  -0.896  -0.382  0.00  0.00    -0.455 OA
BRANCH  19  21
ATOM     21  C   UNL     1       1.494  -3.163  -1.436  0.00  0.00    +0.451 C 
ATOM     22  F   UNL     1       1.161  -3.061  -2.791  0.00  0.00    -0.163 F 
ATOM     23  F   UNL     1       2.862  -2.919  -1.273  0.00  0.00    -0.163 F 
ATOM     24  F   UNL     1       1.192  -4.449  -0.976  0.00  0.00    -0.163 F 
ENDBRANCH  19  21
ENDBRANCH   1  18
BRANCH   5  25
ATOM     25  C   UNL     1      -4.620  -2.171  -2.181  0.00  0.00    +0.218 C 
ATOM     26  O   UNL     1      -3.530  -2.177  -2.713  0.00  0.00    -0.275 OA
ATOM     27  N   UNL     1      -5.697  -1.724  -2.856  0.00  0.00    -0.312 N 
ATOM     28  H   UNL     1      -6.569  -1.720  -2.430  0.00  0.00    +0.149 HD
BRANCH  27  29
ATOM     29  C   UNL     1      -5.552  -1.244  -4.232  0.00  0.00    +0.148 C 
BRANCH  29  30
ATOM     30  C   UNL     1      -6.915  -0.797  -4.763  0.00  0.00    +0.187 C 
ATOM     31  C   UNL     1      -6.764  -0.296  -6.200  0.00  0.00    +0.053 C 
BRANCH  30  32
ATOM     32  O   UNL     1      -7.822  -1.901  -4.736  0.00  0.00    -0.488 OA
BRANCH  32  33
ATOM     33  C   UNL     1      -9.126  -1.622  -4.474  0.00  0.00    +0.121 A 
ATOM     34  C   UNL     1     -10.037  -2.655  -4.304  0.00  0.00    +0.045 A 
ATOM     35  C   UNL     1     -11.362  -2.369  -4.037  0.00  0.00    +0.004 A 
ATOM     36  C   UNL     1     -11.780  -1.055  -3.938  0.00  0.00    +0.000 A 
ATOM     37  C   UNL     1     -10.875  -0.024  -4.107  0.00  0.00    +0.004 A 
ATOM     38  C   UNL     1      -9.547  -0.305  -4.368  0.00  0.00    +0.045 A 
ENDBRANCH  32  33
ENDBRANCH  30  32
ENDBRANCH  29  30
ENDBRANCH  27  29
ENDBRANCH   5  25
TORSDOF 7
