REMARK  Name = ZINC44784819
REMARK  8 active torsions:
REMARK  status: ('A' for Active; 'I' for Inactive)
REMARK    1  A    between atoms: C_1  and  C_2
REMARK    2  A    between atoms: C_2  and  C_3
REMARK    3  A    between atoms: C_3  and  C_4
REMARK    4  A    between atoms: C_3  and  C_6
REMARK    5  A    between atoms: C_3  and  C_10
REMARK    6  A    between atoms: C_4  and  C_5
REMARK    7  A    between atoms: N_7  and  O_8
REMARK    8  A    between atoms: N_12  and  C_13
REMARK                            x       y       z     vdW  Elec       q    Type
REMARK                         _______ _______ _______ _____ _____    ______ ____
ROOT
ATOM      1  C   UNL     1       0.919  -0.083  -1.350  0.00  0.00    +0.105 C 
ENDROOT
BRANCH   1   2
ATOM      2  C   UNL     1       0.064   0.623  -2.371  0.00  0.00    +0.147 C 
ATOM      3  N   UNL     1      -0.852   1.449  -1.986  0.00  0.00    -0.076 NA
ATOM      4  N   UNL     1       0.259   0.388  -3.714  0.00  0.00    -0.343 N 
ATOM      5  H   UNL     1       0.984  -0.186  -4.005  0.00  0.00    +0.144 HD
ATOM      6  H   UNL     1      -0.329   0.797  -4.368  0.00  0.00    +0.144 HD
BRANCH   3   7
ATOM      7  O   UNL     1      -1.656   2.112  -2.945  0.00  0.00    -0.408 OA
ATOM      8  H   UNL     1      -2.313   2.709  -2.562  0.00  0.00    +0.328 HD
ENDBRANCH   3   7
ENDBRANCH   1   2
BRANCH   1   9
ATOM      9  C   UNL     1       2.374   0.150  -1.667  0.00  0.00    +0.231 C 
ATOM     10  O   UNL     1       2.686   0.823  -2.626  0.00  0.00    -0.274 OA
ATOM     11  N   UNL     1       3.328  -0.390  -0.883  0.00  0.00    -0.283 N 
ATOM     12  H   UNL     1       3.083  -1.000  -0.170  0.00  0.00    +0.155 HD
BRANCH  11  13
ATOM     13  C   UNL     1       4.674  -0.070  -1.098  0.00  0.00    +0.052 A 
ATOM     14  C   UNL     1       5.013   1.081  -1.798  0.00  0.00    +0.026 A 
ATOM     15  C   UNL     1       6.341   1.394  -2.010  0.00  0.00    +0.017 A 
ATOM     16  C   UNL     1       7.335   0.562  -1.525  0.00  0.00    +0.019 A 
ATOM     17  C   UNL     1       7.002  -0.585  -0.828  0.00  0.00    +0.037 A 
ATOM     18  C   UNL     1       5.674  -0.900  -0.607  0.00  0.00    +0.063 A 
ATOM     19 CL   UNL     1       5.256  -2.336   0.275  0.00  0.00    -0.082 Cl
ATOM     20 BR   UNL     1       9.153   0.994  -1.817  0.00  0.00    -0.050 Br
ENDBRANCH  11  13
ENDBRANCH   1   9
BRANCH   1  22
ATOM     21  C   UNL     1       0.902   1.965   0.081  0.00  0.00    +0.005 C 
ATOM     22  C   UNL     1       0.606   0.464   0.044  0.00  0.00    +0.020 C 
ENDBRANCH   1  22
BRANCH   1  23
ATOM     23  C   UNL     1       0.623  -1.583  -1.387  0.00  0.00    +0.020 C 
ATOM     24  C   UNL     1      -0.875  -1.813  -1.179  0.00  0.00    +0.005 C 
ENDBRANCH   1  23
TORSDOF 6
