REMARK  Name = ZINC42576353
REMARK  8 active torsions:
REMARK  status: ('A' for Active; 'I' for Inactive)
REMARK    1  A    between atoms: C_1  and  C_2
REMARK    2  A    between atoms: C_2  and  C_4
REMARK    3  A    between atoms: C_2  and  N_8
REMARK    4  A    between atoms: N_6  and  C_7
REMARK    5  A    between atoms: C_9  and  C_11
REMARK    6  A    between atoms: C_11  and  C_12
REMARK    7  A    between atoms: C_12  and  C_13
REMARK    8  A    between atoms: C_17  and  N_19
REMARK                            x       y       z     vdW  Elec       q    Type
REMARK                         _______ _______ _______ _____ _____    ______ ____
ROOT
ATOM      1  N   UNL     1       0.688  -0.476  -1.203  0.00  0.00    -0.304 N 
ATOM      2  C   UNL     1       0.006  -0.608  -2.358  0.00  0.00    +0.214 C 
ATOM      3  O   UNL     1      -1.175  -0.336  -2.400  0.00  0.00    -0.276 OA
ATOM      4  H   UNL     1       1.632  -0.695  -1.170  0.00  0.00    +0.149 HD
ENDROOT
BRANCH   1   6
ATOM      5  C   UNL     1      -0.019   1.526   0.010  0.00  0.00    +0.038 C 
ATOM      6  C   UNL     1       0.002  -0.004   0.002  0.00  0.00    +0.156 C 
BRANCH   6   7
ATOM      7  C   UNL     1       0.731  -0.503   1.223  0.00  0.00    +0.233 C 
ATOM      8  O   UNL     1       1.725  -1.187   1.099  0.00  0.00    -0.274 OA
ATOM      9  N   UNL     1       0.278  -0.191   2.453  0.00  0.00    -0.317 N 
ATOM     10  C   UNL     1       0.986  -0.676   3.640  0.00  0.00    +0.128 C 
ATOM     11  H   UNL     1      -0.517   0.356   2.553  0.00  0.00    +0.148 HD
ENDBRANCH   6   7
ENDBRANCH   1   6
BRANCH   2  12
ATOM     12  C   UNL     1       0.712  -1.094  -3.598  0.00  0.00    +0.100 C 
BRANCH  12  13
ATOM     13  C   UNL     1      -0.282  -1.153  -4.761  0.00  0.00    +0.044 C 
BRANCH  13  14
ATOM     14  C   UNL     1       0.423  -1.639  -6.000  0.00  0.00    -0.045 A 
ATOM     15  C   UNL     1       1.023  -0.731  -6.855  0.00  0.00    +0.004 A 
ATOM     16  C   UNL     1       1.671  -1.173  -7.994  0.00  0.00    +0.002 A 
ATOM     17  C   UNL     1       1.722  -2.523  -8.281  0.00  0.00    +0.023 A 
ATOM     18  C   UNL     1       1.121  -3.437  -7.426  0.00  0.00    +0.025 A 
ATOM     19  C   UNL     1       0.475  -2.990  -6.279  0.00  0.00    +0.026 A 
BRANCH  18  20
ATOM     20  N   UNL     1       1.171  -4.803  -7.714  0.00  0.00    -0.358 N 
ATOM     21  H   UNL     1       1.625  -5.114  -8.512  0.00  0.00    +0.142 HD
ATOM     22  H   UNL     1       0.751  -5.440  -7.115  0.00  0.00    +0.142 HD
ENDBRANCH  18  20
ENDBRANCH  13  14
ENDBRANCH  12  13
ENDBRANCH   2  12
TORSDOF 6
