REMARK  Name = ZINC08597911
REMARK  8 active torsions:
REMARK  status: ('A' for Active; 'I' for Inactive)
REMARK    1  A    between atoms: C_1  and  C_2
REMARK    2  A    between atoms: C_6  and  N_9
REMARK    3  A    between atoms: C_7  and  C_8
REMARK    4  A    between atoms: N_12  and  S_15
REMARK    5  A    between atoms: S_15  and  C_18
REMARK    6  A    between atoms: C_24  and  C_29
REMARK    7  A    between atoms: C_29  and  C_30
REMARK    8  A    between atoms: C_29  and  C_31
REMARK                            x       y       z     vdW  Elec       q    Type
REMARK                         _______ _______ _______ _____ _____    ______ ____
ROOT
ATOM      1  S   UNL     1       0.113  -5.910   5.333  0.00  0.00    +0.061 S 
ATOM      2  O   UNL     1       1.355  -5.619   5.959  0.00  0.00    -0.153 OA
ATOM      3  O   UNL     1      -1.136  -5.662   5.965  0.00  0.00    -0.153 OA
ENDROOT
BRANCH   1   4
ATOM      4  C   UNL     1       0.141  -7.625   4.930  0.00  0.00    +0.106 A 
ATOM      5  C   UNL     1      -1.045  -8.319   4.768  0.00  0.00    +0.030 A 
ATOM      6  C   UNL     1      -1.029  -9.662   4.453  0.00  0.00    +0.025 A 
ATOM      7  C   UNL     1       0.184 -10.329   4.293  0.00  0.00    +0.037 A 
ATOM      8  C   UNL     1       1.367  -9.621   4.457  0.00  0.00    -0.012 A 
ATOM      9  C   UNL     1       1.349  -8.280   4.768  0.00  0.00    +0.034 A 
ATOM     10  C   UNL     1       2.489 -10.607   4.223  0.00  0.00    +0.110 C 
ATOM     11  C   UNL     1       1.777 -11.908   3.919  0.00  0.00    +0.225 C 
ATOM     12  O   UNL     1       2.300 -12.973   3.667  0.00  0.00    -0.275 OA
ATOM     13  N   UNL     1       0.458 -11.661   3.979  0.00  0.00    -0.285 N 
ATOM     14  H   UNL     1      -0.226 -12.331   3.823  0.00  0.00    +0.155 HD
BRANCH  10  15
ATOM     15  C   UNL     1       3.346 -10.170   3.034  0.00  0.00    -0.001 C 
ATOM     16  C   UNL     1       3.947  -8.792   3.317  0.00  0.00    +0.008 C 
ATOM     17  C   UNL     1       4.473 -11.183   2.818  0.00  0.00    +0.008 C 
ENDBRANCH  10  15
ENDBRANCH   1   4
BRANCH   1  21
ATOM     18  N   UNL     1       0.051  -2.796   2.390  0.00  0.00    -0.327 N 
ATOM     19  C   UNL     1      -1.205  -3.197   3.038  0.00  0.00    +0.122 C 
ATOM     20  C   UNL     1      -1.179  -4.714   3.263  0.00  0.00    +0.128 C 
ATOM     21  N   UNL     1       0.094  -5.071   3.905  0.00  0.00    -0.174 NA
ATOM     22  C   UNL     1       1.351  -4.670   3.257  0.00  0.00    +0.128 C 
ATOM     23  C   UNL     1       1.324  -3.159   3.029  0.00  0.00    +0.122 C 
BRANCH  18  29
ATOM     24  C   UNL     1      -0.018   1.503   0.010  0.00  0.00    +0.044 C 
ATOM     25  C   UNL     1       0.002  -0.004   0.002  0.00  0.00    -0.046 A 
ATOM     26  C   UNL     1       0.006  -0.688  -1.200  0.00  0.00    +0.004 A 
ATOM     27  C   UNL     1       0.024  -2.071  -1.212  0.00  0.00    +0.002 A 
ATOM     28  C   UNL     1       0.039  -2.773  -0.023  0.00  0.00    +0.023 A 
ATOM     29  C   UNL     1       0.036  -2.089   1.186  0.00  0.00    +0.033 A 
ATOM     30  C   UNL     1       0.023  -0.700   1.194  0.00  0.00    -0.027 A 
ATOM     31  C   UNL     1       0.025   0.046   2.504  0.00  0.00    +0.046 C 
ENDBRANCH  18  29
ENDBRANCH   1  21
TORSDOF 4
