REMARK  Name = ZINC39098248
REMARK  5 active torsions:
REMARK  status: ('A' for Active; 'I' for Inactive)
REMARK    1  A    between atoms: C_1  and  C_2
REMARK    2  A    between atoms: C_7  and  C_9
REMARK    3  A    between atoms: C_12  and  O_17
REMARK    4  A    between atoms: C_13  and  O_16
REMARK    5  A    between atoms: C_14  and  O_15
REMARK                            x       y       z     vdW  Elec       q    Type
REMARK                         _______ _______ _______ _____ _____    ______ ____
ROOT
ATOM      1  C   UNL     1       0.260   0.233   2.459  0.00  0.00    +0.023 A 
ATOM      2  C   UNL     1       0.950   1.346   2.904  0.00  0.00    +0.013 A 
ATOM      3  C   UNL     1       0.512   2.034   4.019  0.00  0.00    +0.050 A 
ATOM      4  C   UNL     1      -0.622   1.612   4.696  0.00  0.00    +0.162 A 
ATOM      5  C   UNL     1      -1.319   0.494   4.252  0.00  0.00    +0.201 A 
ATOM      6  C   UNL     1      -0.878  -0.192   3.127  0.00  0.00    +0.167 A 
ENDROOT
BRANCH   1  13
ATOM      7  C   UNL     1      -0.019   1.526   0.010  0.00  0.00    +0.016 C 
ATOM      8  C   UNL     1       0.002  -0.004   0.002  0.00  0.00    +0.054 C 
ATOM      9  C   UNL     1       0.721  -0.493  -1.231  0.00  0.00    +0.062 C 
ATOM     10  N   UNL     1       2.005  -0.642  -1.210  0.00  0.00    -0.356 N 
ATOM     11  C   UNL     1       2.727  -0.363  -0.096  0.00  0.00    +0.191 C 
ATOM     12  N   UNL     1       2.179  -0.293   1.070  0.00  0.00    -0.266 NA
ATOM     13  C   UNL     1       0.742  -0.514   1.242  0.00  0.00    +0.148 C 
ATOM     14  H   UNL     1       2.461  -0.958  -2.006  0.00  0.00    +0.166 HD
ENDBRANCH   1  13
BRANCH   6  15
ATOM     15  O   UNL     1      -1.559  -1.284   2.685  0.00  0.00    -0.503 OA
ATOM     16  H   UNL     1      -1.259  -2.117   3.072  0.00  0.00    +0.292 HD
ENDBRANCH   6  15
BRANCH   5  17
ATOM     17  O   UNL     1      -2.432   0.076   4.914  0.00  0.00    -0.501 OA
ATOM     18  H   UNL     1      -3.253   0.471   4.591  0.00  0.00    +0.292 HD
ENDBRANCH   5  17
BRANCH   4  19
ATOM     19  O   UNL     1      -1.052   2.289   5.794  0.00  0.00    -0.503 OA
ATOM     20  H   UNL     1      -1.676   3.002   5.598  0.00  0.00    +0.292 HD
ENDBRANCH   4  19
TORSDOF 4
