REMARK  Name = ZINC31635073
REMARK  7 active torsions:
REMARK  status: ('A' for Active; 'I' for Inactive)
REMARK    1  A    between atoms: C_1  and  C_2
REMARK    2  A    between atoms: C_2  and  C_3
REMARK    3  A    between atoms: C_3  and  C_26
REMARK    4  A    between atoms: N_6  and  C_10
REMARK    5  A    between atoms: C_10  and  C_11
REMARK    6  A    between atoms: N_13  and  C_14
REMARK    7  A    between atoms: C_15  and  C_23
REMARK                            x       y       z     vdW  Elec       q    Type
REMARK                         _______ _______ _______ _____ _____    ______ ____
ROOT
ATOM      1  C   UNL     1       1.502   7.948   2.775  0.00  0.00    +0.214 C 
ENDROOT
BRANCH   1   5
ATOM      2  C   UNL     1      -0.079   6.003   0.034  0.00  0.00    +0.138 C 
ATOM      3  C   UNL     1      -0.056   6.530   1.456  0.00  0.00    +0.251 C 
ATOM      4  O   UNL     1      -0.884   6.339   2.321  0.00  0.00    -0.272 OA
ATOM      5  N   UNL     1       1.077   7.253   1.558  0.00  0.00    -0.215 N 
ATOM      6  C   UNL     1       1.765   7.256   0.410  0.00  0.00    +0.310 C 
ATOM      7  O   UNL     1       2.820   7.841   0.257  0.00  0.00    -0.252 OA
ATOM      8  N   UNL     1       1.159   6.542  -0.555  0.00  0.00    -0.281 N 
ATOM      9  H   UNL     1       1.413   6.318  -1.601  0.00  0.00    +0.152 HD
BRANCH   2  10
ATOM     10  C   UNL     1      -0.059   4.497   0.026  0.00  0.00    -0.015 A 
ATOM     11  C   UNL     1       1.148   3.822   0.012  0.00  0.00    +0.007 A 
ATOM     12  C   UNL     1       1.167   2.440   0.004  0.00  0.00    +0.020 A 
ATOM     13  C   UNL     1      -0.021   1.732   0.012  0.00  0.00    +0.041 A 
ATOM     14  C   UNL     1      -1.229   2.407   0.021  0.00  0.00    +0.020 A 
ATOM     15  C   UNL     1      -1.247   3.789   0.034  0.00  0.00    +0.007 A 
ATOM     16 CL   UNL     1       0.002  -0.004   0.002  0.00  0.00    -0.084 Cl
ENDBRANCH   2  10
BRANCH   2  18
ATOM     17  C   UNL     1      -1.239   8.053  -0.799  0.00  0.00    +0.007 C 
ATOM     18  C   UNL     1      -1.307   6.527  -0.714  0.00  0.00    +0.037 C 
ENDBRANCH   2  18
ENDBRANCH   1   5
BRANCH   1  19
ATOM     19  C   UNL     1       2.352   7.025   3.610  0.00  0.00    +0.236 C 
ATOM     20  O   UNL     1       2.580   5.898   3.226  0.00  0.00    -0.274 OA
ATOM     21  N   UNL     1       2.859   7.453   4.783  0.00  0.00    -0.278 N 
ATOM     22  H   UNL     1       2.652   8.476   5.131  0.00  0.00    +0.155 HD
BRANCH  21  23
ATOM     23  C   UNL     1       3.640   6.604   5.551  0.00  0.00    +0.084 A 
ATOM     24  C   UNL     1       4.250   6.860   6.772  0.00  0.00    +0.068 A 
ATOM     25  C   UNL     1       5.020   5.787   7.377  0.00  0.00    -0.023 A 
ATOM     26  C   UNL     1       5.067   4.640   6.664  0.00  0.00    -0.004 A 
ATOM     27  S   UNL     1       4.101   4.967   5.217  0.00  0.00    -0.077 S 
ATOM     28  C   UNL     1       5.784   3.378   7.031  0.00  0.00    +0.043 C 
ATOM     29  C   UNL     1       6.775   3.696   8.161  0.00  0.00    +0.005 C 
ATOM     30  C   UNL     1       6.050   4.508   9.238  0.00  0.00    +0.005 C 
ATOM     31  C   UNL     1       5.742   5.911   8.712  0.00  0.00    +0.037 C 
BRANCH  24  32
ATOM     32  C   UNL     1       4.117   8.165   7.428  0.00  0.00    +0.244 C 
ATOM     33  O   UNL     1       3.200   8.366   8.203  0.00  0.00    -0.270 OA
ATOM     34  N   UNL     1       5.011   9.141   7.173  0.00  0.00    -0.325 N 
ATOM     35  H   UNL     1       4.912  10.119   7.666  0.00  0.00    +0.145 HD
ATOM     36  H   UNL     1       5.840   8.959   6.473  0.00  0.00    +0.145 HD
ENDBRANCH  24  32
ENDBRANCH  21  23
ENDBRANCH   1  19
TORSDOF 6
