REMARK  Name = ZINC64612986
REMARK  6 active torsions:
REMARK  status: ('A' for Active; 'I' for Inactive)
REMARK    1  A    between atoms: C_5  and  C_7
REMARK    2  A    between atoms: C_7  and  N_8
REMARK    3  A    between atoms: N_8  and  S_9
REMARK    4  A    between atoms: S_9  and  C_12
REMARK    5  A    between atoms: C_15  and  C_17
REMARK    6  A    between atoms: C_21  and  C_24
REMARK                            x       y       z     vdW  Elec       q    Type
REMARK                         _______ _______ _______ _____ _____    ______ ____
ROOT
ATOM      1  C   UNL     1       2.327  -5.235   0.753  0.00  0.00    +0.106 C 
ATOM      2  C   UNL     1       2.055  -5.955  -0.329  0.00  0.00    +0.135 C 
ATOM      3  N   UNL     1       3.151  -6.581  -0.819  0.00  0.00    -0.258 NA
ATOM      4  C   UNL     1       4.222  -6.349  -0.138  0.00  0.00    +0.069 C 
ATOM      5  C   UNL     1       3.814  -5.420   0.989  0.00  0.00    +0.112 C 
ENDROOT
BRANCH   4   6
ATOM      6  C   UNL     1       5.602  -6.888  -0.412  0.00  0.00    +0.248 C 
ATOM      7  N   UNL     1       5.507  -8.162  -1.161  0.00  0.00    -0.222 NA
ATOM      8  N   UNL     1       6.587  -8.983  -0.588  0.00  0.00    -0.223 NA
ATOM      9  C   UNL     1       6.562  -8.586   0.844  0.00  0.00    +0.233 C 
ATOM     10  O   UNL     1       6.271  -7.172   0.826  0.00  0.00    -0.332 OA
ATOM     11  H   UNL     1       4.608  -8.598  -1.020  0.00  0.00    +0.144 HD
ATOM     12  H   UNL     1       7.476  -8.758  -1.010  0.00  0.00    +0.144 HD
BRANCH   9  13
ATOM     13  C   UNL     1       7.903  -8.838   1.483  0.00  0.00    -0.003 A 
ATOM     14  C   UNL     1       9.056  -8.756   0.725  0.00  0.00    +0.010 A 
ATOM     15  C   UNL     1      10.286  -8.986   1.310  0.00  0.00    +0.039 A 
ATOM     16  C   UNL     1      10.364  -9.299   2.656  0.00  0.00    +0.123 A 
ATOM     17  C   UNL     1       9.209  -9.381   3.415  0.00  0.00    +0.039 A 
ATOM     18  C   UNL     1       7.980  -9.145   2.829  0.00  0.00    +0.010 A 
ATOM     19  F   UNL     1      11.567  -9.525   3.229  0.00  0.00    -0.205 F 
ENDBRANCH   9  13
ENDBRANCH   4   6
BRANCH   1  20
ATOM     20  S   UNL     1       1.204  -4.267   1.706  0.00  0.00    +0.057 S 
ATOM     21  O   UNL     1       1.573  -4.438   3.067  0.00  0.00    -0.153 OA
ATOM     22  O   UNL     1      -0.100  -4.569   1.227  0.00  0.00    -0.153 OA
BRANCH  20  23
ATOM     23  N   UNL     1       1.489  -2.679   1.333  0.00  0.00    -0.186 NA
ATOM     24  H   UNL     1       1.828  -2.075   2.012  0.00  0.00    +0.148 HD
BRANCH  23  25
ATOM     25  C   UNL     1       1.229  -2.186  -0.022  0.00  0.00    +0.142 C 
BRANCH  25  30
ATOM     26  C   UNL     1      -0.017   1.378   0.010  0.00  0.00    +0.000 A 
ATOM     27  C   UNL     1       1.171   2.086   0.002  0.00  0.00    +0.001 A 
ATOM     28  C   UNL     1       2.377   1.412  -0.013  0.00  0.00    +0.020 A 
ATOM     29  C   UNL     1       2.397   0.029  -0.021  0.00  0.00    +0.045 A 
ATOM     30  C   UNL     1       1.208  -0.679  -0.013  0.00  0.00    -0.014 A 
ATOM     31  C   UNL     1       0.002  -0.004   0.002  0.00  0.00    +0.006 A 
ATOM     32 CL   UNL     1       3.912  -0.818  -0.041  0.00  0.00    -0.083 Cl
ENDBRANCH  25  30
ENDBRANCH  23  25
ENDBRANCH  20  23
ENDBRANCH   1  20
TORSDOF 6
