REMARK  Name = ZINC17211620
REMARK  7 active torsions:
REMARK  status: ('A' for Active; 'I' for Inactive)
REMARK    1  A    between atoms: C_10  and  C_14
REMARK    2  A    between atoms: C_14  and  C_21
REMARK    3  A    between atoms: N_15  and  N_16
REMARK    4  A    between atoms: N_16  and  C_17
REMARK    5  A    between atoms: C_17  and  N_19
REMARK    6  A    between atoms: N_19  and  N_20
REMARK    7  A    between atoms: N_23  and  C_24
REMARK                            x       y       z     vdW  Elec       q    Type
REMARK                         _______ _______ _______ _____ _____    ______ ____
ROOT
ATOM      1  C   UNL     1      -2.386   4.481  -0.141  0.00  0.00    +0.145 C 
ATOM      2  N   UNL     1      -1.270   3.942   0.257  0.00  0.00    -0.179 NA
ENDROOT
BRANCH   1  12
ATOM      3  C   UNL     1      -8.712   2.373  -0.353  0.00  0.00    +0.002 A 
ATOM      4  C   UNL     1      -8.510   2.621   0.992  0.00  0.00    +0.001 A 
ATOM      5  C   UNL     1      -7.323   3.191   1.416  0.00  0.00    +0.019 A 
ATOM      6  C   UNL     1      -6.345   3.510   0.497  0.00  0.00    +0.061 A 
ATOM      7  C   UNL     1      -6.534   3.260  -0.855  0.00  0.00    +0.049 A 
ATOM      8  C   UNL     1      -7.734   2.689  -1.274  0.00  0.00    +0.024 A 
ATOM      9  N   UNL     1      -5.558   3.550  -1.801  0.00  0.00    -0.283 N 
ATOM     10  C   UNL     1      -4.271   3.787  -1.568  0.00  0.00    +0.239 C 
ATOM     11  O   UNL     1      -3.569   4.128  -2.497  0.00  0.00    -0.274 OA
ATOM     12  C   UNL     1      -3.642   3.652  -0.205  0.00  0.00    +0.224 C 
ATOM     13  S   UNL     1      -4.832   4.245   1.037  0.00  0.00    +0.074 S 
ATOM     14  O   UNL     1      -5.045   5.639   0.860  0.00  0.00    -0.251 OA
ATOM     15  H   UNL     1      -5.823   3.601  -2.867  0.00  0.00    +0.155 HD
ENDBRANCH   1  12
BRANCH   1  16
ATOM     16  C   UNL     1      -2.420   5.894  -0.528  0.00  0.00    +0.266 C 
ATOM     17  O   UNL     1      -3.463   6.398  -0.901  0.00  0.00    -0.268 OA
ATOM     18  N   UNL     1      -1.296   6.636  -0.471  0.00  0.00    -0.279 N 
ATOM     19  H   UNL     1      -0.375   6.207  -0.051  0.00  0.00    +0.155 HD
BRANCH  18  20
ATOM     20  C   UNL     1      -1.302   7.952  -0.946  0.00  0.00    +0.054 A 
ATOM     21  C   UNL     1      -2.272   8.361  -1.851  0.00  0.00    +0.044 A 
ATOM     22  C   UNL     1      -2.275   9.662  -2.318  0.00  0.00    +0.043 A 
ATOM     23  C   UNL     1      -1.312  10.556  -1.884  0.00  0.00    +0.021 A 
ATOM     24  C   UNL     1      -0.345  10.152  -0.983  0.00  0.00    +0.023 A 
ATOM     25  C   UNL     1      -0.340   8.854  -0.508  0.00  0.00    +0.062 A 
ATOM     26 CL   UNL     1       0.871   8.350   0.629  0.00  0.00    -0.082 Cl
ATOM     27 CL   UNL     1      -3.488  10.174  -3.449  0.00  0.00    -0.083 Cl
ENDBRANCH  18  20
ENDBRANCH   1  16
BRANCH   2  28
ATOM     28  N   UNL     1      -1.217   2.572   0.545  0.00  0.00    -0.217 N 
ATOM     29  H   UNL     1      -2.138   1.970   0.526  0.00  0.00    +0.176 HD
BRANCH  28  30
ATOM     30  C   UNL     1      -0.039   1.992   0.845  0.00  0.00    +0.164 C 
ATOM     31  S   UNL     1       0.026   0.318   1.197  0.00  0.00    -0.016 S 
BRANCH  30  32
ATOM     32  N   UNL     1       1.090   2.728   0.863  0.00  0.00    -0.264 N 
ATOM     33  H   UNL     1       2.053   2.253   1.104  0.00  0.00    +0.168 HD
BRANCH  32  34
ATOM     34  N   UNL     1       1.039   4.064   0.582  0.00  0.00    -0.255 NA
ATOM     35  H   UNL     1       2.050   4.491   0.646  0.00  0.00    +0.140 HD
ATOM     36  H   UNL     1       0.642   4.210  -0.433  0.00  0.00    +0.140 HD
ENDBRANCH  32  34
ENDBRANCH  30  32
ENDBRANCH  28  30
ENDBRANCH   2  28
TORSDOF 7
