REMARK  Name = ZINC23199094
REMARK  9 active torsions:
REMARK  status: ('A' for Active; 'I' for Inactive)
REMARK    1  A    between atoms: C_1  and  C_2
REMARK    2  A    between atoms: C_5  and  C_8
REMARK    3  A    between atoms: N_10  and  C_11
REMARK    4  A    between atoms: C_11  and  C_13
REMARK    5  A    between atoms: C_11  and  C_16
REMARK    6  A    between atoms: C_13  and  C_14
REMARK    7  A    between atoms: C_13  and  C_15
REMARK    8  A    between atoms: N_18  and  N_19
REMARK    9  A    between atoms: C_20  and  C_22
REMARK                            x       y       z     vdW  Elec       q    Type
REMARK                         _______ _______ _______ _____ _____    ______ ____
ROOT
ATOM      1  C   UNL     1       0.097  -6.377   1.135  0.00  0.00    +0.163 C 
ENDROOT
BRANCH   1   4
ATOM      2  C   UNL     1      -0.574  -4.623  -0.417  0.00  0.00    +0.245 C 
ATOM      3  O   UNL     1      -0.162  -5.313  -1.329  0.00  0.00    -0.270 OA
ATOM      4  N   UNL     1      -0.490  -5.065   0.854  0.00  0.00    -0.300 N 
ATOM      5  H   UNL     1      -0.819  -4.515   1.581  0.00  0.00    +0.150 HD
BRANCH   2  10
ATOM      6  C   UNL     1      -2.883   0.530  -1.523  0.00  0.00    +0.044 C 
ATOM      7  C   UNL     1      -2.279  -0.819  -1.234  0.00  0.00    -0.050 A 
ATOM      8  C   UNL     1      -1.810  -1.601  -2.274  0.00  0.00    +0.004 A 
ATOM      9  C   UNL     1      -1.255  -2.838  -2.015  0.00  0.00    +0.013 A 
ATOM     10  C   UNL     1      -1.167  -3.299  -0.701  0.00  0.00    +0.037 A 
ATOM     11  C   UNL     1      -1.642  -2.505   0.344  0.00  0.00    +0.013 A 
ATOM     12  C   UNL     1      -2.189  -1.268   0.072  0.00  0.00    +0.004 A 
ENDBRANCH   2  10
ENDBRANCH   1   4
BRANCH   1  13
ATOM     13  C   UNL     1      -0.449  -6.903   2.438  0.00  0.00    +0.250 C 
ATOM     14  O   UNL     1      -0.946  -6.141   3.239  0.00  0.00    -0.272 OA
ATOM     15  N   UNL     1      -0.385  -8.221   2.712  0.00  0.00    -0.233 N 
ATOM     16  H   UNL     1      -0.054  -8.840   2.043  0.00  0.00    +0.173 HD
BRANCH  15  17
ATOM     17  N   UNL     1      -0.796  -8.697   3.964  0.00  0.00    -0.235 N 
ATOM     18  C   UNL     1      -0.732 -10.015   4.239  0.00  0.00    +0.226 C 
ATOM     19  O   UNL     1      -0.318 -10.789   3.402  0.00  0.00    -0.275 OA
ATOM     20  C   UNL     1      -1.175 -10.527   5.585  0.00  0.00    +0.110 C 
ATOM     21  H   UNL     1      -1.128  -8.078   4.633  0.00  0.00    +0.173 HD
ENDBRANCH  15  17
ENDBRANCH   1  13
BRANCH   1  22
ATOM     22  C   UNL     1       1.618  -6.244   1.237  0.00  0.00    +0.012 C 
ATOM     23  C   UNL     1       2.185  -5.822  -0.120  0.00  0.00    +0.009 C 
ATOM     24  C   UNL     1       1.968  -5.188   2.287  0.00  0.00    +0.009 C 
ENDBRANCH   1  22
TORSDOF 5
