REMARK  Name = ZINC03072038
REMARK  10 active torsions:
REMARK  status: ('A' for Active; 'I' for Inactive)
REMARK    1  A    between atoms: CB_1  and  CA_2
REMARK    2  A    between atoms: CA_2  and  C_4
REMARK    3  A    between atoms: CA_2  and  N_6
REMARK    4  A    between atoms: C_7  and  C_9
REMARK    5  A    between atoms: C_9  and  N_10
REMARK    6  A    between atoms: C_14  and  C_15
REMARK    7  A    between atoms: C_18  and  O_23
REMARK    8  A    between atoms: C_19  and  O_21
REMARK    9  A    between atoms: O_21  and  C_22
REMARK   10  A    between atoms: O_23  and  C_24
REMARK                            x       y       z     vdW  Elec       q    Type
REMARK                         _______ _______ _______ _____ _____    ______ ____
ROOT
ATOM      1  N   UNK A   0      -8.388  -1.852  -0.296  0.00  0.00    -0.246 N 
ATOM      2  C   UNK A   0      -8.046  -1.179   0.789  0.00  0.00    +0.259 C 
ATOM      3  O   UNK A   0      -8.851  -0.930   1.667  0.00  0.00    -0.269 OA
ATOM      4  C   UNK A   0      -6.639  -0.739   0.879  0.00  0.00    +0.077 C 
ATOM      5  C   UNK A   0      -6.012  -0.038   1.858  0.00  0.00    +0.028 C 
ATOM      6  S   UNK A   0      -5.986  -1.389  -0.653  0.00  0.00    -0.061 S 
ATOM      7  C   UNK A   0      -7.491  -2.131  -1.264  0.00  0.00    +0.121 C 
ATOM      8  S   UNK A   0      -7.736  -2.990  -2.725  0.00  0.00    -0.027 S 
ENDROOT
BRANCH   5   9
ATOM      9  C   UNK A   0      -4.635   0.430   1.659  0.00  0.00    -0.020 A 
ATOM     10  C   UNK A   0      -4.028   0.313   0.403  0.00  0.00    +0.012 A 
ATOM     11  C   UNK A   0      -2.735   0.753   0.219  0.00  0.00    +0.050 A 
ATOM     12  C   UNK A   0      -2.031   1.312   1.278  0.00  0.00    +0.162 A 
ATOM     13  C   UNK A   0      -2.627   1.427   2.533  0.00  0.00    +0.162 A 
ATOM     14  C   UNK A   0      -3.924   0.995   2.725  0.00  0.00    +0.057 A 
BRANCH  13  15
ATOM     15  O   UNK A   0      -1.931   1.970   3.568  0.00  0.00    -0.491 OA
ATOM     16  C   UNK A   0      -2.603   2.057   4.827  0.00  0.00    +0.277 C 
ENDBRANCH  13  15
BRANCH  12  17
ATOM     17  O   UNK A   0      -0.757   1.744   1.091  0.00  0.00    -0.491 OA
ATOM     18  C   UNK A   0      -0.206   1.591  -0.219  0.00  0.00    +0.277 C 
ENDBRANCH  12  17
ENDBRANCH   5   9
BRANCH   1  19
ATOM     19  C   UNK A   0      -9.771  -2.312  -0.448  0.00  0.00    +0.210 C 
BRANCH  19  21
ATOM     20  N   ALA A   1     -11.107  -4.310   0.135  0.00  0.00    -0.301 N 
ATOM     21  C   UNK A   0      -9.913  -3.684   0.158  0.00  0.00    +0.231 C 
ATOM     22  O   UNK A   0      -8.954  -4.225   0.666  0.00  0.00    -0.274 OA
ATOM     23  H   ALA A   1     -11.874  -3.877  -0.271  0.00  0.00    +0.150 HD
BRANCH  20  25
ATOM     24  CB  ALA A   1     -10.837  -6.701  -0.304  0.00  0.00    +0.040 C 
ATOM     25  CA  ALA A   1     -11.245  -5.644   0.725  0.00  0.00    +0.183 C 
BRANCH  25  26
ATOM     26  C   ALA A   1     -12.680  -5.867   1.131  0.00  0.00    +0.376 C 
ATOM     27  O   ALA A   1     -13.501  -5.000   0.947  0.00  0.00    -0.244 OA
ATOM     28  OXT ALA A   1     -13.044  -7.028   1.697  0.00  0.00    -0.244 OA
ENDBRANCH  25  26
ENDBRANCH  20  25
ENDBRANCH  19  21
ENDBRANCH   1  19
TORSDOF 7
