REMARK  Name = ZINC36266771
REMARK  7 active torsions:
REMARK  status: ('A' for Active; 'I' for Inactive)
REMARK    1  A    between atoms: C_1  and  C_2
REMARK    2  A    between atoms: C_2  and  C_3
REMARK    3  A    between atoms: C_6  and  S_9
REMARK    4  A    between atoms: S_9  and  N_12
REMARK    5  A    between atoms: N_12  and  C_13
REMARK    6  A    between atoms: C_13  and  C_14
REMARK    7  A    between atoms: C_14  and  N_21
REMARK                            x       y       z     vdW  Elec       q    Type
REMARK                         _______ _______ _______ _____ _____    ______ ____
ROOT
ATOM      1  N   UNL     1      -6.619  -0.717   0.100  0.00  0.00    -0.191 NA
ATOM      2  H   UNL     1      -7.161  -0.511   0.877  0.00  0.00    +0.148 HD
ENDROOT
BRANCH   1   3
ATOM      3  S   UNL     1      -5.606  -2.027   0.121  0.00  0.00    +0.058 S 
ATOM      4  O   UNL     1      -5.850  -2.748  -1.079  0.00  0.00    -0.153 OA
ATOM      5  O   UNL     1      -5.736  -2.620   1.405  0.00  0.00    -0.153 OA
BRANCH   3   9
ATOM      6  C   UNL     1      -1.371  -0.452  -0.155  0.00  0.00    -0.048 A 
ATOM      7  C   UNL     1      -1.963  -0.630   1.081  0.00  0.00    +0.005 A 
ATOM      8  C   UNL     1      -3.256  -1.111   1.165  0.00  0.00    +0.029 A 
ATOM      9  C   UNL     1      -3.958  -1.413   0.013  0.00  0.00    +0.105 A 
ATOM     10  C   UNL     1      -3.366  -1.234  -1.223  0.00  0.00    +0.029 A 
ATOM     11  C   UNL     1      -2.074  -0.750  -1.308  0.00  0.00    +0.005 A 
BRANCH   6  13
ATOM     12  C   UNL     1       0.012   1.600  -0.319  0.00  0.00    +0.009 C 
ATOM     13  C   UNL     1       0.039   0.072  -0.247  0.00  0.00    +0.032 C 
ENDBRANCH   6  13
ENDBRANCH   3   9
ENDBRANCH   1   3
BRANCH   1  14
ATOM     14  C   UNL     1      -6.696   0.130  -1.093  0.00  0.00    +0.093 C 
BRANCH  14  15
ATOM     15  C   UNL     1      -7.939   1.018  -1.008  0.00  0.00    -0.057 C 
ATOM     16  C   UNL     1      -7.855   2.099  -2.103  0.00  0.00    -0.012 C 
ATOM     17  C   UNL     1      -8.252   1.571  -3.495  0.00  0.00    -0.001 C 
ATOM     18  C   UNL     1      -7.693   0.201  -3.772  0.00  0.00    -0.000 C 
ATOM     19  C   UNL     1      -8.755  -0.848  -3.387  0.00  0.00    -0.000 C 
ATOM     20  C   UNL     1      -8.790  -1.102  -1.954  0.00  0.00    -0.001 C 
ATOM     21  C   UNL     1      -9.164   0.155  -1.143  0.00  0.00    -0.012 C 
BRANCH  15  22
ATOM     22  N   UNL     1      -7.963   1.676   0.305  0.00  0.00    +0.383 N 
ATOM     23  H   UNL     1      -7.133   2.239   0.415  0.00  0.00    -0.089 HD
ATOM     24  H   UNL     1      -8.780   2.265   0.371  0.00  0.00    -0.089 HD
ATOM     25  H   UNL     1      -7.993   0.977   1.031  0.00  0.00    -0.089 HD
ENDBRANCH  15  22
ENDBRANCH  14  15
ENDBRANCH   1  14
TORSDOF 6
