REMARK  Name = ZINC09407966
REMARK  4 active torsions:
REMARK  status: ('A' for Active; 'I' for Inactive)
REMARK    1  A    between atoms: C_1  and  C_2
REMARK    2  A    between atoms: C_6  and  N_8
REMARK    3  A    between atoms: C_11  and  C_22
REMARK    4  A    between atoms: C_13  and  C_15
REMARK                            x       y       z     vdW  Elec       q    Type
REMARK                         _______ _______ _______ _____ _____    ______ ____
ROOT
ATOM      1  N   UNL     1       2.103   0.661  -0.015  0.00  0.00    -0.245 N 
ATOM      2  C   UNL     1       1.324   1.805  -0.001  0.00  0.00    +0.170 A 
ATOM      3  C   UNL     1      -0.017   1.379   0.010  0.00  0.00    +0.117 A 
ATOM      4  C   UNL     1      -1.024   2.344   0.029  0.00  0.00    +0.154 A 
ATOM      5  N   UNL     1      -0.673   3.631   0.027  0.00  0.00    -0.220 NA
ATOM      6  C   UNL     1       0.600   3.990   0.017  0.00  0.00    +0.163 A 
ATOM      7  N   UNL     1       1.586   3.100   0.003  0.00  0.00    -0.208 NA
ATOM      8  N   UNL     1       0.002  -0.004   0.002  0.00  0.00    -0.303 N 
ATOM      9  H   UNL     1      -0.776  -0.583   0.007  0.00  0.00    +0.171 HD
ATOM     10  C   UNL     1       1.287  -0.410  -0.012  0.00  0.00    +0.333 A 
ATOM     11  O   UNL     1       1.654  -1.570  -0.022  0.00  0.00    -0.246 OA
ENDROOT
BRANCH   1  17
ATOM     12  C   UNL     1       6.268  -1.954  -0.065  0.00  0.00    +0.044 C 
ATOM     13  C   UNL     1       5.548  -0.630  -0.053  0.00  0.00    -0.048 A 
ATOM     14  C   UNL     1       6.269   0.549  -0.054  0.00  0.00    +0.003 A 
ATOM     15  C   UNL     1       5.612   1.766  -0.043  0.00  0.00    +0.002 A 
ATOM     16  C   UNL     1       4.231   1.806  -0.029  0.00  0.00    +0.026 A 
ATOM     17  C   UNL     1       3.504   0.624  -0.028  0.00  0.00    +0.053 A 
ATOM     18  C   UNL     1       4.167  -0.596  -0.035  0.00  0.00    +0.029 A 
ENDBRANCH   1  17
BRANCH   6  19
ATOM     19  C   UNL     1       0.938   5.434   0.021  0.00  0.00    +0.020 A 
ATOM     20  C   UNL     1       2.271   5.841   0.015  0.00  0.00    +0.011 A 
ATOM     21  C   UNL     1       2.580   7.186   0.014  0.00  0.00    +0.002 A 
ATOM     22  C   UNL     1       1.570   8.130   0.029  0.00  0.00    +0.015 A 
ATOM     23  C   UNL     1       0.244   7.733   0.039  0.00  0.00    +0.019 A 
ATOM     24  C   UNL     1      -0.076   6.389   0.035  0.00  0.00    +0.027 A 
ATOM     25 BR   UNL     1      -1.130   9.031   0.058  0.00  0.00    -0.050 Br
ENDBRANCH   6  19
BRANCH   4  26
ATOM     26  C   UNL     1      -2.451   1.949   0.047  0.00  0.00    +0.262 C 
ATOM     27  O   UNL     1      -2.755   0.772   0.045  0.00  0.00    -0.269 OA
ATOM     28  N   UNL     1      -3.412   2.893   0.066  0.00  0.00    -0.324 N 
ATOM     29  H   UNL     1      -3.169   3.833   0.069  0.00  0.00    +0.145 HD
ATOM     30  H   UNL     1      -4.346   2.634   0.078  0.00  0.00    +0.145 HD
ENDBRANCH   4  26
TORSDOF 3
