REMARK  Name = ZINC48962046
REMARK  6 active torsions:
REMARK  status: ('A' for Active; 'I' for Inactive)
REMARK    1  A    between atoms: C_1  and  N_2
REMARK    2  A    between atoms: N_5  and  N_6
REMARK    3  A    between atoms: N_6  and  S_7
REMARK    4  A    between atoms: S_7  and  C_10
REMARK    5  A    between atoms: C_13  and  O_17
REMARK    6  A    between atoms: O_17  and  C_18
REMARK                            x       y       z     vdW  Elec       q    Type
REMARK                         _______ _______ _______ _____ _____    ______ ____
ROOT
ATOM      1  S   UNL     1      -1.142  -3.867  -0.290  0.00  0.00    +0.074 S 
ATOM      2  O   UNL     1      -1.431  -4.507   0.945  0.00  0.00    -0.152 OA
ATOM      3  O   UNL     1      -2.142  -3.224  -1.068  0.00  0.00    -0.152 OA
ENDROOT
BRANCH   1   4
ATOM      4  C   UNL     1      -0.403  -5.084  -1.328  0.00  0.00    +0.108 A 
ATOM      5  C   UNL     1      -0.451  -4.941  -2.703  0.00  0.00    +0.032 A 
ATOM      6  C   UNL     1       0.127  -5.894  -3.519  0.00  0.00    +0.048 A 
ATOM      7  C   UNL     1       0.756  -6.996  -2.958  0.00  0.00    +0.134 A 
ATOM      8  C   UNL     1       0.804  -7.138  -1.579  0.00  0.00    +0.061 A 
ATOM      9  C   UNL     1       0.229  -6.178  -0.766  0.00  0.00    +0.047 A 
ATOM     10 BR   UNL     1       1.661  -8.638  -0.810  0.00  0.00    -0.046 Br
BRANCH   7  11
ATOM     11  O   UNL     1       1.325  -7.935  -3.760  0.00  0.00    -0.494 OA
ATOM     12  C   UNL     1       1.238  -7.724  -5.170  0.00  0.00    +0.277 C 
ENDBRANCH   7  11
ENDBRANCH   1   4
BRANCH   1  13
ATOM     13  N   UNL     1       0.016  -2.726   0.027  0.00  0.00    -0.107 NA
ATOM     14  H   UNL     1       0.288  -2.553   0.942  0.00  0.00    +0.172 HD
BRANCH  13  19
ATOM     15  C   UNL     1      -0.018   1.461   0.010  0.00  0.00    +0.129 C 
ATOM     16  N   UNL     1       0.002  -0.004   0.002  0.00  0.00    -0.301 N 
ATOM     17  C   UNL     1       0.585  -0.664  -1.018  0.00  0.00    +0.314 C 
ATOM     18  O   UNL     1       1.095  -0.045  -1.931  0.00  0.00    -0.251 OA
ATOM     19  N   UNL     1       0.603  -2.012  -1.025  0.00  0.00    -0.216 N 
ATOM     20  H   UNL     1      -0.404  -0.499   0.731  0.00  0.00    +0.150 HD
ATOM     21  H   UNL     1       1.023  -2.487  -1.760  0.00  0.00    +0.172 HD
ENDBRANCH  13  19
ENDBRANCH   1  13
TORSDOF 4
