REMARK  Name = ZINC49060782
REMARK  6 active torsions:
REMARK  status: ('A' for Active; 'I' for Inactive)
REMARK    1  A    between atoms: C_3  and  O_19
REMARK    2  A    between atoms: C_4  and  C_8
REMARK    3  A    between atoms: C_6  and  N_7
REMARK    4  A    between atoms: C_8  and  N_9
REMARK    5  A    between atoms: N_9  and  S_10
REMARK    6  A    between atoms: S_10  and  C_13
REMARK                            x       y       z     vdW  Elec       q    Type
REMARK                         _______ _______ _______ _____ _____    ______ ____
ROOT
ATOM      1  C   UNL     1       3.716  -0.708  -0.038  0.00  0.00    +0.144 C 
ENDROOT
BRANCH   1   5
ATOM      2  C   UNL     1      -0.017   1.384   0.010  0.00  0.00    +0.026 A 
ATOM      3  C   UNL     1       1.170   2.091   0.002  0.00  0.00    +0.047 A 
ATOM      4  C   UNL     1       2.380   1.414  -0.013  0.00  0.00    +0.121 A 
ATOM      5  C   UNL     1       2.400   0.027  -0.021  0.00  0.00    +0.011 A 
ATOM      6  C   UNL     1       1.214  -0.681  -0.013  0.00  0.00    +0.031 A 
ATOM      7  C   UNL     1       0.002  -0.004   0.002  0.00  0.00    +0.025 A 
BRANCH   7   8
ATOM      8  N   UNL     1      -1.200  -0.721   0.010  0.00  0.00    -0.358 N 
ATOM      9  H   UNL     1      -2.047  -0.247   0.021  0.00  0.00    +0.142 HD
ATOM     10  H   UNL     1      -1.186  -1.690   0.005  0.00  0.00    +0.142 HD
ENDBRANCH   7   8
BRANCH   4  11
ATOM     11  O   UNL     1       3.549   2.110  -0.021  0.00  0.00    -0.506 OA
ATOM     12  H   UNL     1       3.895   2.307   0.860  0.00  0.00    +0.292 HD
ENDBRANCH   4  11
ENDBRANCH   1   5
BRANCH   1  13
ATOM     13  N   UNL     1       4.303  -0.627  -1.377  0.00  0.00    -0.185 NA
ATOM     14  H   UNL     1       3.758  -0.347  -2.130  0.00  0.00    +0.148 HD
BRANCH  13  15
ATOM     15  S   UNL     1       5.897  -1.012  -1.607  0.00  0.00    +0.066 S 
ATOM     16  O   UNL     1       6.155  -0.862  -2.997  0.00  0.00    -0.153 OA
ATOM     17  O   UNL     1       6.632  -0.307  -0.616  0.00  0.00    -0.153 OA
BRANCH  15  18
ATOM     18  C   UNL     1       6.077  -2.726  -1.244  0.00  0.00    +0.156 A 
ATOM     19  C   UNL     1       7.193  -3.495  -1.282  0.00  0.00    +0.051 A 
ATOM     20  C   UNL     1       7.097  -4.834  -0.952  0.00  0.00    +0.025 A 
ATOM     21  C   UNL     1       5.889  -5.338  -0.599  0.00  0.00    +0.048 A 
ATOM     22  S   UNL     1       4.838  -3.900  -0.721  0.00  0.00    -0.076 S 
ATOM     23 BR   UNL     1       8.857  -2.747  -1.782  0.00  0.00    -0.048 Br
ENDBRANCH  15  18
ENDBRANCH  13  15
ENDBRANCH   1  13
TORSDOF 6
