REMARK  Name = ZINC30261315
REMARK  9 active torsions:
REMARK  status: ('A' for Active; 'I' for Inactive)
REMARK    1  A    between atoms: C_1  and  C_2
REMARK    2  A    between atoms: C_4  and  C_33
REMARK    3  A    between atoms: C_5  and  N_9
REMARK    4  A    between atoms: C_6  and  C_8
REMARK    5  A    between atoms: C_10  and  C_12
REMARK    6  A    between atoms: C_12  and  N_13
REMARK    7  A    between atoms: C_14  and  C_16
REMARK    8  A    between atoms: C_16  and  N_17
REMARK    9  A    between atoms: C_23  and  C_25
REMARK                            x       y       z     vdW  Elec       q    Type
REMARK                         _______ _______ _______ _____ _____    ______ ____
ROOT
ATOM      1  N   UNL     1      -5.562   5.149  -1.756  0.00  0.00    -0.308 N 
ATOM      2  C   UNL     1      -6.824   5.599  -1.897  0.00  0.00    +0.197 C 
ATOM      3  O   UNL     1      -7.056   6.788  -1.831  0.00  0.00    -0.278 OA
ATOM      4  H   UNL     1      -5.352   4.071  -1.817  0.00  0.00    +0.149 HD
ENDROOT
BRANCH   1   5
ATOM      5  C   UNL     1      -4.469   6.096  -1.522  0.00  0.00    +0.200 C 
BRANCH   5   7
ATOM      6  N   UNL     1      -2.020   6.013  -1.182  0.00  0.00    -0.284 N 
ATOM      7  C   UNL     1      -3.169   5.343  -1.401  0.00  0.00    +0.234 C 
ATOM      8  O   UNL     1      -3.157   4.134  -1.500  0.00  0.00    -0.274 OA
ATOM      9  H   UNL     1      -2.039   7.101  -1.024  0.00  0.00    +0.155 HD
BRANCH   6  14
ATOM     10  C   UNL     1       2.916   3.218  -1.075  0.00  0.00    +0.044 C 
ATOM     11  C   UNL     1       1.605   3.960  -1.104  0.00  0.00    -0.050 A 
ATOM     12  C   UNL     1       0.759   3.827  -2.190  0.00  0.00    +0.008 A 
ATOM     13  C   UNL     1      -0.441   4.510  -2.221  0.00  0.00    -0.029 A 
ATOM     14  C   UNL     1      -0.802   5.323  -1.155  0.00  0.00    +0.039 A 
ATOM     15  C   UNL     1       0.048   5.455  -0.066  0.00  0.00    -0.029 A 
ATOM     16  C   UNL     1       1.249   4.773  -0.043  0.00  0.00    +0.008 A 
ATOM     17  C   UNL     1      -0.338   6.341   1.090  0.00  0.00    +0.045 C 
ATOM     18  C   UNL     1      -1.358   4.369  -3.408  0.00  0.00    +0.045 C 
ENDBRANCH   6  14
ENDBRANCH   5   7
ENDBRANCH   1   5
BRANCH   2  19
ATOM     19  C   UNL     1      -7.949   4.625  -2.139  0.00  0.00    +0.019 C 
BRANCH  19  20
ATOM     20  N   UNL     1      -9.216   5.359  -2.257  0.00  0.00    +0.387 N 
ATOM     21  C   UNL     1      -9.570   6.005  -0.986  0.00  0.00    -0.059 C 
ATOM     22  C   UNL     1     -10.793   6.904  -1.198  0.00  0.00    +0.089 C 
ATOM     23  N   UNL     1     -11.864   6.100  -1.806  0.00  0.00    -0.301 N 
ATOM     24  C   UNL     1     -11.546   5.313  -3.007  0.00  0.00    +0.089 C 
ATOM     25  C   UNL     1     -10.293   4.477  -2.725  0.00  0.00    -0.059 C 
ATOM     26  C   UNL     1     -13.103   6.084  -1.277  0.00  0.00    +0.248 C 
ATOM     27  O   UNL     1     -13.995   5.476  -1.835  0.00  0.00    -0.270 OA
ATOM     28  H   UNL     1      -9.081   6.151  -3.009  0.00  0.00    -0.081 HD
BRANCH  26  29
ATOM     29  C   UNL     1     -13.377   6.806  -0.018  0.00  0.00    +0.055 A 
ATOM     30  C   UNL     1     -13.053   8.159   0.100  0.00  0.00    +0.016 A 
ATOM     31  C   UNL     1     -13.312   8.827   1.278  0.00  0.00    +0.021 A 
ATOM     32  C   UNL     1     -13.893   8.160   2.344  0.00  0.00    +0.042 A 
ATOM     33  C   UNL     1     -14.217   6.819   2.235  0.00  0.00    +0.040 A 
ATOM     34  C   UNL     1     -13.968   6.139   1.059  0.00  0.00    +0.054 A 
ATOM     35 CL   UNL     1     -14.382   4.458   0.921  0.00  0.00    -0.083 Cl
ATOM     36 CL   UNL     1     -14.215   9.009   3.823  0.00  0.00    -0.083 Cl
ENDBRANCH  26  29
ENDBRANCH  19  20
ENDBRANCH   2  19
TORSDOF 6
