REMARK  Name = ZINC40365521
REMARK  3 active torsions:
REMARK  status: ('A' for Active; 'I' for Inactive)
REMARK    1  A    between atoms: C_5  and  C_8
REMARK    2  A    between atoms: C_5  and  N_11
REMARK    3  A    between atoms: C_8  and  N_10
REMARK                            x       y       z     vdW  Elec       q    Type
REMARK                         _______ _______ _______ _____ _____    ______ ____
ROOT
ATOM      1  C   UNL     1      -0.425   0.815  -0.059  0.00  0.00    +0.000 C 
ATOM      2  C   UNL     1       0.806   1.743  -0.112  0.00  0.00    +0.000 C 
ATOM      3  C   UNL     1       1.350   1.896   1.282  0.00  0.00    +0.002 C 
ATOM      4  C   UNL     1       2.478   0.892   1.589  0.00  0.00    +0.033 C 
ATOM      5  C   UNL     1       2.183  -0.521   1.050  0.00  0.00    +0.089 C 
ATOM      6  C   UNL     1       0.752  -0.934   1.269  0.00  0.00    +0.033 C 
ATOM      7  C   UNL     1      -0.057  -0.592   0.002  0.00  0.00    +0.002 C 
ENDROOT
BRANCH   5   8
ATOM      8  N   UNL     1       2.469  -0.548  -0.387  0.00  0.00    -0.230 N 
ATOM      9  C   UNL     1       3.083   0.457  -1.024  0.00  0.00    +0.224 C 
ATOM     10  O   UNL     1       3.468   1.485  -0.509  0.00  0.00    -0.275 OA
ATOM     11  C   UNL     1       3.222   0.105  -2.492  0.00  0.00    +0.112 C 
ATOM     12  C   UNL     1       2.576  -1.283  -2.581  0.00  0.00    +0.056 C 
ATOM     13  C   UNL     1       2.142  -1.586  -1.173  0.00  0.00    +0.229 C 
ATOM     14  O   UNL     1       1.586  -2.600  -0.809  0.00  0.00    -0.275 OA
ATOM     15  C   UNL     1       3.583  -2.325  -3.086  0.00  0.00    +0.016 C 
ATOM     16  C   UNL     1       2.725  -3.287  -3.949  0.00  0.00    +0.001 C 
ATOM     17  C   UNL     1       1.719  -2.330  -4.636  0.00  0.00    +0.001 C 
ATOM     18  C   UNL     1       1.392  -1.280  -3.550  0.00  0.00    +0.016 C 
ENDBRANCH   5   8
BRANCH   5  19
ATOM     19  C   UNL     1       3.087  -1.506   1.743  0.00  0.00    +0.071 C 
ATOM     20  S   UNL     1       4.110  -2.390   0.890  0.00  0.00    -0.038 S 
BRANCH  19  21
ATOM     21  N   UNL     1       3.034  -1.642   3.083  0.00  0.00    -0.354 N 
ATOM     22  H   UNL     1       2.413  -1.106   3.601  0.00  0.00    +0.143 HD
ATOM     23  H   UNL     1       3.616  -2.277   3.530  0.00  0.00    +0.143 HD
ENDBRANCH  19  21
ENDBRANCH   5  19
TORSDOF 3
