REMARK  Name = ZINC66623343
REMARK  2 active torsions:
REMARK  status: ('A' for Active; 'I' for Inactive)
REMARK    1  A    between atoms: C_4  and  C_7
REMARK    2  A    between atoms: C_13  and  C_16
REMARK                            x       y       z     vdW  Elec       q    Type
REMARK                         _______ _______ _______ _____ _____    ______ ____
ROOT
ATOM      1  C   UNL     1       6.290  -4.655  -0.767  0.00  0.00    +0.224 C 
ATOM      2  O   UNL     1       6.197  -5.849  -0.577  0.00  0.00    -0.275 OA
ATOM      3  N   UNL     1       7.506  -4.075  -0.826  0.00  0.00    -0.253 N 
ATOM      4  C   UNL     1       8.659  -4.851  -0.669  0.00  0.00    +0.242 A 
ATOM      5  N   UNL     1       9.915  -4.392  -0.708  0.00  0.00    -0.180 NA
ATOM      6  H   UNL     1      10.380  -7.410  -0.208  0.00  0.00    +0.192 HD
ATOM      7  C   UNL     1      10.755  -5.388  -0.523  0.00  0.00    +0.215 A 
ATOM      8  N   UNL     1      10.034  -6.517  -0.362  0.00  0.00    -0.245 N 
ATOM      9  N   UNL     1       8.683  -6.143  -0.454  0.00  0.00    -0.135 NA
ATOM     10  N   UNL     1      12.134  -5.294  -0.500  0.00  0.00    -0.300 N 
ATOM     11  C   UNL     1      12.963  -6.489  -0.291  0.00  0.00    +0.108 C 
ATOM     12  C   UNL     1      13.983  -6.588  -1.429  0.00  0.00    +0.019 C 
ATOM     13  C   UNL     1      14.775  -5.281  -1.514  0.00  0.00    +0.003 C 
ATOM     14  C   UNL     1      13.822  -4.124  -1.818  0.00  0.00    +0.019 C 
ATOM     15  C   UNL     1      12.800  -3.998  -0.690  0.00  0.00    +0.108 C 
ATOM     16  H   UNL     1       7.581  -3.120  -0.978  0.00  0.00    +0.158 HD
ENDROOT
BRANCH   1  23
ATOM     17  C   UNL     1       3.696  -0.685  -0.037  0.00  0.00    +0.247 C 
ATOM     18  O   UNL     1       4.734  -0.064  -0.151  0.00  0.00    -0.270 OA
ATOM     19  N   UNL     1       3.720  -2.029   0.057  0.00  0.00    -0.297 N 
ATOM     20  C   UNL     1       2.471  -2.802   0.061  0.00  0.00    +0.108 C 
ATOM     21  C   UNL     1       2.550  -3.872  -1.033  0.00  0.00    +0.020 C 
ATOM     22  C   UNL     1       3.811  -4.714  -0.827  0.00  0.00    +0.016 C 
ATOM     23  C   UNL     1       5.048  -3.819  -0.937  0.00  0.00    +0.093 C 
ATOM     24  C   UNL     1       4.997  -2.749   0.152  0.00  0.00    +0.120 C 
BRANCH  17  28
ATOM     25  C   UNL     1      -0.013   1.384   0.065  0.00  0.00    +0.000 A 
ATOM     26  C   UNL     1       0.204   0.316   0.918  0.00  0.00    +0.001 A 
ATOM     27  C   UNL     1       1.406  -0.360   0.889  0.00  0.00    +0.013 A 
ATOM     28  C   UNL     1       2.405   0.035  -0.002  0.00  0.00    +0.037 A 
ATOM     29  C   UNL     1       2.179   1.113  -0.860  0.00  0.00    +0.013 A 
ATOM     30  C   UNL     1       0.973   1.780  -0.822  0.00  0.00    +0.001 A 
ENDBRANCH  17  28
ENDBRANCH   1  23
TORSDOF 2
