REMARK  Name = ZINC08624469
REMARK  12 active torsions:
REMARK  status: ('A' for Active; 'I' for Inactive)
REMARK    1  A    between atoms: C_1  and  N_74
REMARK    2  A    between atoms: C_2  and  C_3
REMARK    3  A    between atoms: C_2  and  N_74
REMARK    4  A    between atoms: C_9  and  C_10
REMARK    5  A    between atoms: C_9  and  N_74
REMARK    6  A    between atoms: N_12  and  C_15
REMARK    7  A    between atoms: C_15  and  C_16
REMARK    8  A    between atoms: C_18  and  O_41
REMARK    9  A    between atoms: C_20  and  O_40
REMARK   10  A    between atoms: C_22  and  C_25
REMARK   11  A    between atoms: C_25  and  C_26
REMARK   12  A    between atoms: N_31  and  C_34
REMARK                            x       y       z     vdW  Elec       q    Type
REMARK                         _______ _______ _______ _____ _____    ______ ____
ROOT
ATOM      1  C   UNL     1      -1.407   3.135  -5.342  0.00  0.00    +0.171 C 
ATOM      2  C   UNL     1      -1.371   4.216  -6.444  0.00  0.00    +0.176 C 
ATOM      3  C   UNL     1      -2.239   3.626  -7.578  0.00  0.00    +0.175 C 
ATOM      4  C   UNL     1      -2.696   2.257  -7.026  0.00  0.00    +0.159 C 
ATOM      5  O   UNL     1      -2.622   2.394  -5.591  0.00  0.00    -0.366 OA
ENDROOT
BRANCH   3   6
ATOM      6  O   UNL     1      -1.462   3.453  -8.765  0.00  0.00    -0.387 OA
ATOM      7  H   UNL     1      -1.099   4.276  -9.120  0.00  0.00    +0.210 HD
ENDBRANCH   3   6
BRANCH   2   8
ATOM      8  O   UNL     1      -0.032   4.426  -6.896  0.00  0.00    -0.387 OA
ATOM      9  H   UNL     1       0.049   5.096  -7.589  0.00  0.00    +0.210 HD
ENDBRANCH   2   8
BRANCH   1  10
ATOM     10  C   UNL     1      -1.454   3.786  -3.958  0.00  0.00    +0.179 C 
BRANCH  10  13
ATOM     11  C   UNL     1      -0.742   1.585  -1.213  0.00  0.00    +0.066 A 
ATOM     12  C   UNL     1      -0.459   2.700  -1.925  0.00  0.00    +0.131 A 
ATOM     13  N   UNL     1      -1.367   2.749  -2.927  0.00  0.00    -0.249 N 
ATOM     14  N   UNL     1      -2.142   1.727  -2.818  0.00  0.00    -0.065 NA
ATOM     15  N   UNL     1      -1.792   1.010  -1.809  0.00  0.00    -0.136 NA
BRANCH  11  16
ATOM     16  C   UNL     1      -0.013   1.086   0.008  0.00  0.00    -0.019 C 
BRANCH  16  18
ATOM     17  C   UNL     1      -2.034   0.955   1.335  0.00  0.00    -0.095 C 
ATOM     18  N   UNL     1      -0.704   1.588   1.214  0.00  0.00    +0.384 N 
ATOM     19  H   UNL     1      -0.824   2.604   1.131  0.00  0.00    -0.081 HD
BRANCH  18  20
ATOM     20  C   UNL     1       0.104   1.297   2.417  0.00  0.00    -0.043 C 
BRANCH  20  21
ATOM     21  C   UNL     1      -0.508   2.007   3.597  0.00  0.00    -0.064 A 
ATOM     22  C   UNL     1      -0.118   3.297   3.906  0.00  0.00    +0.002 A 
ATOM     23  C   UNL     1      -0.682   3.949   4.986  0.00  0.00    +0.000 A 
ATOM     24  C   UNL     1      -1.630   3.309   5.763  0.00  0.00    +0.000 A 
ATOM     25  C   UNL     1      -2.016   2.017   5.457  0.00  0.00    +0.000 A 
ATOM     26  C   UNL     1      -1.455   1.366   4.374  0.00  0.00    +0.002 A 
ENDBRANCH  20  21
ENDBRANCH  18  20
ENDBRANCH  16  18
ENDBRANCH  11  16
ENDBRANCH  10  13
ENDBRANCH   1  10
BRANCH   4  27
ATOM     27  C   UNL     1      -4.133   1.961  -7.462  0.00  0.00    +0.130 C 
BRANCH  27  28
ATOM     28  C   UNL     1      -4.516   0.572  -7.018  0.00  0.00    +0.218 C 
ATOM     29  O   UNL     1      -3.718  -0.113  -6.414  0.00  0.00    -0.276 OA
ATOM     30  N   UNL     1      -5.744   0.092  -7.294  0.00  0.00    -0.298 N 
ATOM     31  C   UNL     1      -6.729   0.908  -8.020  0.00  0.00    +0.126 C 
ATOM     32  C   UNL     1      -7.272   0.077  -9.193  0.00  0.00    +0.124 C 
ATOM     33  N   UNL     1      -7.782  -1.203  -8.685  0.00  0.00    -0.327 N 
ATOM     34  C   UNL     1      -6.707  -2.004  -8.083  0.00  0.00    +0.124 C 
ATOM     35  C   UNL     1      -6.138  -1.260  -6.870  0.00  0.00    +0.126 C 
BRANCH  33  36
ATOM     36  C   UNL     1      -8.435  -1.918  -9.692  0.00  0.00    +0.030 A 
ATOM     37  C   UNL     1      -8.030  -3.209 -10.003  0.00  0.00    +0.023 A 
ATOM     38  C   UNL     1      -8.681  -3.915 -10.996  0.00  0.00    +0.002 A 
ATOM     39  C   UNL     1      -9.728  -3.333 -11.688  0.00  0.00    +0.000 A 
ATOM     40  C   UNL     1     -10.130  -2.045 -11.383  0.00  0.00    +0.002 A 
ATOM     41  C   UNL     1      -9.487  -1.336 -10.388  0.00  0.00    +0.023 A 
ENDBRANCH  33  36
ENDBRANCH  27  28
ENDBRANCH   4  27
TORSDOF 11
