REMARK  Name = ZINC66286437
REMARK  6 active torsions:
REMARK  status: ('A' for Active; 'I' for Inactive)
REMARK    1  A    between atoms: C_1  and  C_2
REMARK    2  A    between atoms: C_3  and  C_23
REMARK    3  A    between atoms: C_6  and  C_8
REMARK    4  A    between atoms: N_10  and  C_11
REMARK    5  A    between atoms: C_13  and  N_19
REMARK    6  A    between atoms: C_20  and  C_22
REMARK                            x       y       z     vdW  Elec       q    Type
REMARK                         _______ _______ _______ _____ _____    ______ ____
ROOT
ATOM      1  C   UNL     1      -0.541  -2.574   2.550  0.00  0.00    +0.267 C 
ATOM      2  O   UNL     1      -1.043  -3.674   2.671  0.00  0.00    -0.268 OA
ATOM      3  N   UNL     1       0.024  -1.970   3.614  0.00  0.00    -0.278 N 
ATOM      4  H   UNL     1       0.482  -1.122   3.503  0.00  0.00    +0.155 HD
ENDROOT
BRANCH   3   5
ATOM      5  C   UNL     1      -0.049  -2.567   4.878  0.00  0.00    +0.071 A 
ATOM      6  C   UNL     1      -0.009  -3.949   4.997  0.00  0.00    +0.052 A 
ATOM      7  C   UNL     1      -0.082  -4.537   6.251  0.00  0.00    +0.071 A 
ATOM      8  C   UNL     1      -0.194  -3.742   7.386  0.00  0.00    +0.147 A 
ATOM      9  C   UNL     1      -0.234  -2.364   7.265  0.00  0.00    +0.080 A 
ATOM     10  C   UNL     1      -0.156  -1.775   6.016  0.00  0.00    +0.147 A 
ATOM     11  F   UNL     1      -0.190  -0.429   5.901  0.00  0.00    -0.203 F 
ATOM     12  F   UNL     1      -0.265  -4.314   8.608  0.00  0.00    -0.203 F 
BRANCH   7  13
ATOM     13  N   UNL     1      -0.042  -5.933   6.374  0.00  0.00    -0.283 N 
ATOM     14  C   UNL     1       0.713  -6.662   5.528  0.00  0.00    +0.214 C 
ATOM     15  O   UNL     1       1.293  -6.120   4.611  0.00  0.00    -0.276 OA
ATOM     16  C   UNL     1       0.835  -8.152   5.723  0.00  0.00    +0.109 C 
ATOM     17  H   UNL     1      -0.557  -6.373   7.067  0.00  0.00    +0.155 HD
ENDBRANCH   7  13
ENDBRANCH   3   5
BRANCH   1  23
ATOM     18  C   UNL     1       0.658   1.306  -0.123  0.00  0.00    +0.067 C 
ATOM     19  C   UNL     1       0.018  -0.056  -0.038  0.00  0.00    +0.056 A 
ATOM     20  C   UNL     1      -0.551  -0.625  -1.182  0.00  0.00    +0.073 A 
ATOM     21  C   UNL     1      -1.141  -1.891  -1.090  0.00  0.00    +0.023 A 
ATOM     22  C   UNL     1      -1.137  -2.530   0.138  0.00  0.00    +0.034 A 
ATOM     23  C   UNL     1      -0.550  -1.897   1.232  0.00  0.00    +0.126 A 
ATOM     24  N   UNL     1       0.006  -0.697   1.107  0.00  0.00    -0.246 NA
BRANCH  20  25
ATOM     25  C   UNL     1      -0.530   0.077  -2.430  0.00  0.00    +0.101 C 
ATOM     26  N   UNL     1      -0.514   0.634  -3.420  0.00  0.00    -0.191 NA
ENDBRANCH  20  25
ENDBRANCH   1  23
TORSDOF 4
