REMARK  Name = ZINC44995307
REMARK  5 active torsions:
REMARK  status: ('A' for Active; 'I' for Inactive)
REMARK    1  A    between atoms: C_7  and  N_9
REMARK    2  A    between atoms: C_10  and  C_12
REMARK    3  A    between atoms: C_12  and  N_13
REMARK    4  A    between atoms: N_16  and  C_17
REMARK    5  A    between atoms: C_17  and  C_18
REMARK                            x       y       z     vdW  Elec       q    Type
REMARK                         _______ _______ _______ _____ _____    ______ ____
ROOT
ATOM      1  C   UNL     1      -3.088  -2.256   0.196  0.00  0.00    +0.201 C 
ENDROOT
BRANCH   1   2
ATOM      2  N   UNL     1      -3.244  -3.598  -0.371  0.00  0.00    -0.291 N 
ATOM      3  C   UNL     1      -4.404  -4.265  -0.214  0.00  0.00    +0.300 C 
ATOM      4  O   UNL     1      -5.322  -3.753   0.397  0.00  0.00    -0.253 OA
ATOM      5  N   UNL     1      -4.547  -5.499  -0.736  0.00  0.00    -0.291 N 
ATOM      6  H   UNL     1      -2.511  -4.006  -0.858  0.00  0.00    +0.151 HD
ATOM      7  H   UNL     1      -3.815  -5.908  -1.223  0.00  0.00    +0.151 HD
BRANCH   5   8
ATOM      8  C   UNL     1      -5.809  -6.224  -0.565  0.00  0.00    +0.218 C 
BRANCH   8   9
ATOM      9  C   UNL     1      -5.708  -7.591  -1.247  0.00  0.00    +0.405 C 
ATOM     10  F   UNL     1      -4.666  -8.324  -0.669  0.00  0.00    -0.169 F 
ATOM     11  F   UNL     1      -6.912  -8.283  -1.085  0.00  0.00    -0.169 F 
ATOM     12  F   UNL     1      -5.452  -7.413  -2.611  0.00  0.00    -0.169 F 
ENDBRANCH   8   9
ENDBRANCH   5   8
ENDBRANCH   1   2
BRANCH   1  14
ATOM     13  N   UNL     1      -1.339  -0.510   0.307  0.00  0.00    -0.310 N 
ATOM     14  C   UNL     1      -1.709  -1.735  -0.118  0.00  0.00    +0.231 C 
ATOM     15  O   UNL     1      -0.933  -2.417  -0.752  0.00  0.00    -0.274 OA
ATOM     16  H   UNL     1      -1.960   0.036   0.814  0.00  0.00    +0.149 HD
BRANCH  13  23
ATOM     17  C   UNL     1      -0.019   1.534   0.011  0.00  0.00    +0.046 C 
ATOM     18  C   UNL     1       1.453   2.038  -0.001  0.00  0.00    +0.168 C 
ATOM     19  S   UNL     1       2.228   0.842   1.167  0.00  0.00    -0.029 S 
ATOM     20  O   UNL     1       2.198   1.391   2.478  0.00  0.00    -0.174 OA
ATOM     21  O   UNL     1       3.463   0.399   0.623  0.00  0.00    -0.174 OA
ATOM     22  C   UNL     1       1.001  -0.524   1.063  0.00  0.00    +0.188 C 
ATOM     23  C   UNL     1       0.002  -0.004   0.002  0.00  0.00    +0.095 C 
ENDBRANCH  13  23
ENDBRANCH   1  14
TORSDOF 5
