REMARK  Name = ZINC43460675
REMARK  8 active torsions:
REMARK  status: ('A' for Active; 'I' for Inactive)
REMARK    1  A    between atoms: C_1  and  C_2
REMARK    2  A    between atoms: C_2  and  C_4
REMARK    3  A    between atoms: C_2  and  O_8
REMARK    4  A    between atoms: N_6  and  C_7
REMARK    5  A    between atoms: O_8  and  C_9
REMARK    6  A    between atoms: C_16  and  C_21
REMARK    7  A    between atoms: C_16  and  C_22
REMARK    8  A    between atoms: C_18  and  O_20
REMARK                            x       y       z     vdW  Elec       q    Type
REMARK                         _______ _______ _______ _____ _____    ______ ____
ROOT
ATOM      1  C   UNL     1      -0.078  -0.574  -2.302  0.00  0.00    +0.125 A 
ATOM      2  C   UNL     1      -1.422  -0.229  -2.281  0.00  0.00    +0.046 A 
ATOM      3  C   UNL     1      -2.180  -0.343  -3.429  0.00  0.00    +0.013 A 
ATOM      4  C   UNL     1      -1.607  -0.797  -4.605  0.00  0.00    +0.023 A 
ATOM      5  C   UNL     1      -0.266  -1.139  -4.633  0.00  0.00    +0.130 A 
ATOM      6  C   UNL     1       0.500  -1.023  -3.478  0.00  0.00    +0.091 A 
ATOM      7  O   UNL     1       0.338  -1.578  -5.768  0.00  0.00    -0.486 OA
ATOM      8  C   UNL     1      -0.496  -2.039  -6.832  0.00  0.00    +0.108 C 
ATOM      9  C   UNL     1      -1.586  -0.990  -7.082  0.00  0.00    +0.083 C 
ATOM     10  C   UNL     1      -2.471  -0.911  -5.836  0.00  0.00    +0.152 C 
ATOM     11  C   UNL     1      -1.141  -3.370  -6.442  0.00  0.00    +0.055 C 
ATOM     12  C   UNL     1       0.342  -2.224  -8.099  0.00  0.00    +0.055 C 
ENDROOT
BRANCH  10  13
ATOM     13  O   UNL     1      -3.321   0.235  -5.928  0.00  0.00    -0.387 OA
ATOM     14  H   UNL     1      -3.913   0.347  -5.171  0.00  0.00    +0.210 HD
ENDBRANCH  10  13
BRANCH   1  15
ATOM     15  O   UNL     1       0.671  -0.465  -1.174  0.00  0.00    -0.480 OA
BRANCH  15  17
ATOM     16  C   UNL     1       2.330  -2.222  -1.188  0.00  0.00    +0.062 C 
ATOM     17  C   UNL     1       2.072  -0.718  -1.298  0.00  0.00    +0.255 C 
BRANCH  17  18
ATOM     18  C   UNL     1       2.811   0.001  -0.199  0.00  0.00    +0.253 C 
ATOM     19  O   UNL     1       2.194   0.589   0.664  0.00  0.00    -0.272 OA
ATOM     20  N   UNL     1       4.159  -0.010  -0.174  0.00  0.00    -0.315 N 
ATOM     21  C   UNL     1       4.878   0.688   0.895  0.00  0.00    +0.128 C 
ATOM     22  H   UNL     1       4.653  -0.481  -0.864  0.00  0.00    +0.148 HD
ENDBRANCH  17  18
ENDBRANCH  15  17
ENDBRANCH   1  15
TORSDOF 4
