REMARK  Name = ZINC55024355
REMARK  5 active torsions:
REMARK  status: ('A' for Active; 'I' for Inactive)
REMARK    1  A    between atoms: C_4  and  C_7
REMARK    2  A    between atoms: C_7  and  C_9
REMARK    3  A    between atoms: C_7  and  S_13
REMARK    4  A    between atoms: C_9  and  C_10
REMARK    5  A    between atoms: S_13  and  C_14
REMARK                            x       y       z     vdW  Elec       q    Type
REMARK                         _______ _______ _______ _____ _____    ______ ____
ROOT
ATOM      1  C   UNL     1       3.656  -0.725   0.032  0.00  0.00    +0.090 C 
ENDROOT
BRANCH   1   5
ATOM      2  C   UNL     1      -0.320   0.710  -0.588  0.00  0.00    +0.000 A 
ATOM      3  C   UNL     1       0.746   1.589  -0.629  0.00  0.00    +0.000 A 
ATOM      4  C   UNL     1       2.033   1.125  -0.428  0.00  0.00    +0.005 A 
ATOM      5  C   UNL     1       2.253  -0.218  -0.186  0.00  0.00    -0.034 A 
ATOM      6  C   UNL     1       1.187  -1.097  -0.144  0.00  0.00    +0.005 A 
ATOM      7  C   UNL     1      -0.100  -0.633  -0.346  0.00  0.00    +0.000 A 
ENDBRANCH   1   5
BRANCH   1   8
ATOM      8  C   UNL     1       3.993  -1.767  -1.035  0.00  0.00    +0.087 C 
BRANCH   8   9
ATOM      9  C   UNL     1       5.441  -2.165  -0.909  0.00  0.00    +0.064 C 
ATOM     10  N   UNL     1       6.379  -1.436  -1.489  0.00  0.00    -0.391 N 
ATOM     11  N   UNL     1       5.773  -3.242  -0.219  0.00  0.00    -0.348 N 
ATOM     12  H   UNL     1       7.312  -1.692  -1.407  0.00  0.00    +0.157 HD
ATOM     13  H   UNL     1       5.085  -3.777   0.206  0.00  0.00    +0.143 HD
ATOM     14  H   UNL     1       6.705  -3.498  -0.138  0.00  0.00    +0.143 HD
ATOM     15  H   UNL     1       6.136  -0.645  -1.995  0.00  0.00    +0.157 HD
ENDBRANCH   8   9
ENDBRANCH   1   8
BRANCH   1  16
ATOM     16  S   UNL     1       3.776  -1.482   1.676  0.00  0.00    -0.095 S 
BRANCH  16  17
ATOM     17  C   UNL     1       3.574  -0.127   2.785  0.00  0.00    +0.126 A 
ATOM     18  C   UNL     1       3.499  -0.338   4.164  0.00  0.00    +0.117 A 
ATOM     19  C   UNL     1       3.338   0.773   5.007  0.00  0.00    +0.182 A 
ATOM     20  N   UNL     1       3.294   0.304   6.268  0.00  0.00    -0.216 NA
ATOM     21  H   UNL     1       3.649  -2.364   4.712  0.00  0.00    +0.167 HD
ATOM     22  C   UNL     1       3.415  -0.994   6.260  0.00  0.00    +0.199 A 
ATOM     23  N   UNL     1       3.544  -1.441   4.990  0.00  0.00    -0.341 N 
ATOM     24  N   UNL     1       3.263   1.990   4.456  0.00  0.00    -0.214 NA
ATOM     25  C   UNL     1       3.339   2.140   3.153  0.00  0.00    +0.224 A 
ATOM     26  N   UNL     1       3.495   1.121   2.328  0.00  0.00    -0.227 NA
ENDBRANCH  16  17
ENDBRANCH   1  16
TORSDOF 5
