REMARK  Name = ZINC20293962
REMARK  3 active torsions:
REMARK  status: ('A' for Active; 'I' for Inactive)
REMARK    1  A    between atoms: C_3  and  N_19
REMARK    2  A    between atoms: C_4  and  C_8
REMARK    3  A    between atoms: C_14  and  C_16
REMARK                            x       y       z     vdW  Elec       q    Type
REMARK                         _______ _______ _______ _____ _____    ______ ____
ROOT
ATOM      1  C   UNL     1       3.672   1.548   0.598  0.00  0.00    +0.249 C 
ATOM      2  O   UNL     1       4.043   2.636   0.199  0.00  0.00    -0.270 OA
ATOM      3  N   UNL     1       2.373   1.202   0.499  0.00  0.00    -0.286 N 
ATOM      4  C   UNL     1       1.806  -0.108   0.852  0.00  0.00    +0.109 C 
ATOM      5  C   UNL     1       0.286  -0.033   0.600  0.00  0.00    +0.021 C 
ATOM      6  C   UNL     1      -0.001   1.491   0.657  0.00  0.00    +0.033 C 
ATOM      7  C   UNL     1       1.285   2.074   0.019  0.00  0.00    +0.162 C 
ENDROOT
BRANCH   1  11
ATOM      8  C   UNL     1       6.469  -1.158   2.304  0.00  0.00    +0.022 A 
ATOM      9  C   UNL     1       6.770  -0.529   1.113  0.00  0.00    +0.025 A 
ATOM     10  C   UNL     1       5.861   0.353   0.543  0.00  0.00    +0.037 A 
ATOM     11  C   UNL     1       4.642   0.610   1.190  0.00  0.00    +0.059 A 
ATOM     12  C   UNL     1       4.352  -0.035   2.395  0.00  0.00    +0.035 A 
ATOM     13  C   UNL     1       5.264  -0.912   2.943  0.00  0.00    +0.042 A 
ATOM     14 CL   UNL     1       4.901  -1.711   4.440  0.00  0.00    -0.084 Cl
BRANCH  10  15
ATOM     15  N   UNL     1       6.160   0.983  -0.659  0.00  0.00    -0.357 N 
ATOM     16  H   UNL     1       5.438   1.681  -1.108  0.00  0.00    +0.142 HD
ATOM     17  H   UNL     1       7.118   0.784  -1.161  0.00  0.00    +0.142 HD
ENDBRANCH  10  15
ENDBRANCH   1  11
BRANCH   7  18
ATOM     18  C   UNL     1       1.505   3.491   0.482  0.00  0.00    +0.231 C 
ATOM     19  O   UNL     1       2.159   3.708   1.481  0.00  0.00    -0.274 OA
ATOM     20  N   UNL     1       0.975   4.517  -0.212  0.00  0.00    -0.328 N 
ATOM     21  H   UNL     1       1.136   5.551   0.126  0.00  0.00    +0.145 HD
ATOM     22  H   UNL     1       0.382   4.320  -1.118  0.00  0.00    +0.145 HD
ENDBRANCH   7  18
TORSDOF 3
