REMARK  Name = ZINC05995157
REMARK  7 active torsions:
REMARK  status: ('A' for Active; 'I' for Inactive)
REMARK    1  A    between atoms: C_4  and  C_7
REMARK    2  A    between atoms: N_8  and  S_9
REMARK    3  A    between atoms: S_9  and  C_12
REMARK    4  A    between atoms: N_19  and  C_20
REMARK    5  A    between atoms: C_20  and  N_22
REMARK    6  A    between atoms: N_22  and  C_23
REMARK    7  A    between atoms: C_28  and  O_29
REMARK                            x       y       z     vdW  Elec       q    Type
REMARK                         _______ _______ _______ _____ _____    ______ ____
ROOT
ATOM      1  C   UNL     1       3.667  -0.397   0.600  0.00  0.00    +0.153 C 
ATOM      2  N   UNL     1       4.709   0.172   0.067  0.00  0.00    -0.113 NA
ATOM      3  N   UNL     1       3.583  -1.776   0.651  0.00  0.00    -0.280 N 
ATOM      4  H   UNL     1       4.376  -2.304   0.831  0.00  0.00    +0.155 HD
ENDROOT
BRANCH   1   8
ATOM      5  C   UNL     1       0.522   1.984   2.181  0.00  0.00    +0.000 A 
ATOM      6  C   UNL     1       1.518   2.573   1.421  0.00  0.00    +0.001 A 
ATOM      7  C   UNL     1       2.542   1.805   0.905  0.00  0.00    +0.011 A 
ATOM      8  C   UNL     1       2.572   0.433   1.151  0.00  0.00    +0.017 A 
ATOM      9  C   UNL     1       1.565  -0.155   1.917  0.00  0.00    +0.011 A 
ATOM     10  C   UNL     1       0.547   0.623   2.428  0.00  0.00    +0.001 A 
ENDBRANCH   1   8
BRANCH   2  11
ATOM     11  S   UNL     1       5.875  -0.752  -0.661  0.00  0.00    +0.100 S 
ATOM     12  O   UNL     1       6.449  -1.559   0.359  0.00  0.00    -0.146 OA
ATOM     13  O   UNL     1       5.285  -1.306  -1.828  0.00  0.00    -0.146 OA
BRANCH  11  14
ATOM     14  C   UNL     1       7.142   0.344  -1.208  0.00  0.00    +0.113 A 
ATOM     15  C   UNL     1       7.076   0.899  -2.472  0.00  0.00    +0.030 A 
ATOM     16  C   UNL     1       8.069   1.759  -2.903  0.00  0.00    +0.022 A 
ATOM     17  C   UNL     1       9.129   2.063  -2.068  0.00  0.00    +0.041 A 
ATOM     18  C   UNL     1       9.195   1.507  -0.803  0.00  0.00    +0.022 A 
ATOM     19  C   UNL     1       8.198   0.652  -0.371  0.00  0.00    +0.030 A 
ATOM     20 CL   UNL     1      10.377   3.143  -2.608  0.00  0.00    -0.084 Cl
ENDBRANCH  11  14
ENDBRANCH   2  11
BRANCH   3  21
ATOM     21  C   UNL     1       2.398  -2.387   0.451  0.00  0.00    +0.140 C 
ATOM     22  S   UNL     1       1.037  -1.473  -0.043  0.00  0.00    -0.018 S 
BRANCH  21  23
ATOM     23  N   UNL     1       2.285  -3.716   0.639  0.00  0.00    -0.294 N 
ATOM     24  H   UNL     1       3.033  -4.221   0.995  0.00  0.00    +0.154 HD
BRANCH  23  25
ATOM     25  C   UNL     1       1.087  -4.370   0.321  0.00  0.00    +0.075 A 
ATOM     26  C   UNL     1       0.423  -4.069  -0.860  0.00  0.00    +0.027 A 
ATOM     27  C   UNL     1      -0.758  -4.715  -1.171  0.00  0.00    +0.002 A 
ATOM     28  C   UNL     1      -1.282  -5.660  -0.309  0.00  0.00    +0.004 A 
ATOM     29  C   UNL     1      -0.626  -5.965   0.870  0.00  0.00    +0.047 A 
ATOM     30  C   UNL     1       0.562  -5.326   1.187  0.00  0.00    +0.138 A 
BRANCH  30  31
ATOM     31  O   UNL     1       1.211  -5.629   2.343  0.00  0.00    -0.505 OA
ATOM     32  H   UNL     1       0.943  -5.087   3.097  0.00  0.00    +0.292 HD
ENDBRANCH  30  31
ENDBRANCH  23  25
ENDBRANCH  21  23
ENDBRANCH   3  21
TORSDOF 7
