REMARK  Name = ZINC50040304
REMARK  2 active torsions:
REMARK  status: ('A' for Active; 'I' for Inactive)
REMARK    1  A    between atoms: C_3  and  C_8
REMARK    2  A    between atoms: C_8  and  C_9
REMARK                            x       y       z     vdW  Elec       q    Type
REMARK                         _______ _______ _______ _____ _____    ______ ____
ROOT
ATOM      1  C   UNL     1       3.672   2.183  -0.022  0.00  0.00    +0.133 C 
ENDROOT
BRANCH   1   2
ATOM      2  C   UNL     1       4.117   2.433   1.396  0.00  0.00    +0.223 A 
ATOM      3  N   UNL     1       4.887   1.662   2.106  0.00  0.00    -0.111 NA
ATOM      4  N   UNL     1       5.061   2.182   3.270  0.00  0.00    -0.093 NA
ATOM      5  C   UNL     1       4.403   3.313   3.342  0.00  0.00    +0.305 A 
ATOM      6  O   UNL     1       3.796   3.499   2.155  0.00  0.00    -0.409 OA
ATOM      7  N   UNL     1       4.346   4.161   4.433  0.00  0.00    -0.312 N 
ATOM      8  H   UNL     1       4.826   3.938   5.246  0.00  0.00    +0.147 HD
ATOM      9  H   UNL     1       3.828   4.980   4.385  0.00  0.00    +0.147 HD
ENDBRANCH   1   2
BRANCH   1  12
ATOM     10  C   UNL     1      -0.017   1.378   0.010  0.00  0.00    +0.001 A 
ATOM     11  C   UNL     1       1.171   2.086   0.002  0.00  0.00    +0.004 A 
ATOM     12  C   UNL     1       2.378   1.411  -0.013  0.00  0.00    -0.037 A 
ATOM     13  C   UNL     1       2.397   0.029  -0.022  0.00  0.00    +0.019 A 
ATOM     14  C   UNL     1       1.210  -0.679  -0.014  0.00  0.00    +0.018 A 
ATOM     15  C   UNL     1       0.002  -0.004   0.002  0.00  0.00    +0.015 A 
ATOM     16 BR   UNL     1       1.236  -2.570  -0.025  0.00  0.00    -0.050 Br
ENDBRANCH   1  12
TORSDOF 2
