REMARK  Name = ZINC62778722
REMARK  3 active torsions:
REMARK  status: ('A' for Active; 'I' for Inactive)
REMARK    1  A    between atoms: C_5  and  C_6
REMARK    2  A    between atoms: C_6  and  C_8
REMARK    3  A    between atoms: C_6  and  O_14
REMARK                            x       y       z     vdW  Elec       q    Type
REMARK                         _______ _______ _______ _____ _____    ______ ____
ROOT
ATOM      1  C   UNL     1      -1.156  -0.969   0.009  0.00  0.00    +0.199 C 
ENDROOT
BRANCH   1   6
ATOM      2  C   UNL     1      -0.016   1.351   0.009  0.00  0.00    +0.015 A 
ATOM      3  C   UNL     1       1.183   2.038   0.002  0.00  0.00    +0.023 A 
ATOM      4  C   UNL     1       2.343   1.335  -0.013  0.00  0.00    +0.055 A 
ATOM      5  S   UNL     1       1.753  -0.350  -0.017  0.00  0.00    -0.083 S 
ATOM      6  C   UNL     1       0.002  -0.004   0.002  0.00  0.00    +0.025 A 
ATOM      7 BR   UNL     1       4.123   1.974  -0.027  0.00  0.00    -0.043 Br
ENDBRANCH   1   6
BRANCH   1   8
ATOM      8  C   UNL     1      -1.398  -1.472  -1.391  0.00  0.00    +0.069 A 
ATOM      9  C   UNL     1      -2.138  -0.858  -2.343  0.00  0.00    +0.047 A 
ATOM     10  C   UNL     1      -2.106  -1.654  -3.493  0.00  0.00    +0.134 A 
ATOM     11  N   UNL     1      -1.374  -2.708  -3.240  0.00  0.00    -0.182 NA
ATOM     12  N   UNL     1      -0.911  -2.614  -1.921  0.00  0.00    -0.279 N 
ATOM     13  H   UNL     1      -0.343  -3.256  -1.468  0.00  0.00    +0.189 HD
ENDBRANCH   1   8
BRANCH   1  14
ATOM     14  O   UNL     1      -0.852  -2.071   0.866  0.00  0.00    -0.381 OA
ATOM     15  H   UNL     1      -0.067  -2.570   0.602  0.00  0.00    +0.211 HD
ENDBRANCH   1  14
TORSDOF 3
