REMARK  Name = ZINC59397714
REMARK  4 active torsions:
REMARK  status: ('A' for Active; 'I' for Inactive)
REMARK    1  A    between atoms: C_3  and  N_10
REMARK    2  A    between atoms: C_5  and  N_7
REMARK    3  A    between atoms: C_14  and  C_15
REMARK    4  A    between atoms: C_20  and  O_21
REMARK                            x       y       z     vdW  Elec       q    Type
REMARK                         _______ _______ _______ _____ _____    ______ ____
ROOT
ATOM      1  N   UNL     1       3.611   2.193   0.556  0.00  0.00    -0.224 N 
ATOM      2  C   UNL     1       3.579   3.502   0.374  0.00  0.00    +0.263 C 
ATOM      3  O   UNL     1       2.544   4.136   0.473  0.00  0.00    -0.269 OA
ATOM      4  C   UNL     1       4.860   4.157   0.045  0.00  0.00    +0.078 C 
ATOM      5  C   UNL     1       5.127   5.467  -0.192  0.00  0.00    +0.032 C 
ATOM      6  S   UNL     1       5.964   2.751   0.045  0.00  0.00    -0.061 S 
ATOM      7  C   UNL     1       4.761   1.496   0.452  0.00  0.00    +0.125 C 
ATOM      8  S   UNL     1       5.007  -0.186   0.656  0.00  0.00    -0.027 S 
ENDROOT
BRANCH   5   9
ATOM      9  C   UNL     1       6.518   5.927  -0.289  0.00  0.00    +0.019 A 
ATOM     10  C   UNL     1       7.558   5.132   0.207  0.00  0.00    +0.026 A 
ATOM     11  C   UNL     1       8.861   5.571   0.113  0.00  0.00    +0.019 A 
ATOM     12  C   UNL     1       9.147   6.796  -0.471  0.00  0.00    +0.019 A 
ATOM     13  C   UNL     1       8.129   7.590  -0.965  0.00  0.00    +0.047 A 
ATOM     14  C   UNL     1       6.813   7.164  -0.884  0.00  0.00    +0.124 A 
ATOM     15 BR   UNL     1      10.267   4.498   0.782  0.00  0.00    -0.050 Br
BRANCH  14  16
ATOM     16  O   UNL     1       5.814   7.941  -1.373  0.00  0.00    -0.506 OA
ATOM     17  H   UNL     1       5.448   8.563  -0.729  0.00  0.00    +0.292 HD
ENDBRANCH  14  16
ENDBRANCH   5   9
BRANCH   1  20
ATOM     18  C   UNL     1       0.972   0.520   2.497  0.00  0.00    +0.004 A 
ATOM     19  C   UNL     1       2.142   1.188   2.190  0.00  0.00    +0.024 A 
ATOM     20  C   UNL     1       2.426   1.516   0.871  0.00  0.00    +0.045 A 
ATOM     21  C   UNL     1       1.533   1.171  -0.135  0.00  0.00    +0.056 A 
ATOM     22  C   UNL     1       0.365   0.504   0.179  0.00  0.00    +0.128 A 
ATOM     23  C   UNL     1       0.085   0.179   1.493  0.00  0.00    +0.033 A 
BRANCH  22  24
ATOM     24  N   UNL     1      -0.587   0.137  -0.893  0.00  0.00    +0.056 N 
ATOM     25  O   UNL     1      -0.342   0.421  -2.043  0.00  0.00    -0.126 OA
ATOM     26  O   UNL     1      -1.609  -0.448  -0.619  0.00  0.00    -0.126 OA
ENDBRANCH  22  24
ENDBRANCH   1  20
TORSDOF 4
