REMARK  Name = ZINC51148043
REMARK  6 active torsions:
REMARK  status: ('A' for Active; 'I' for Inactive)
REMARK    1  A    between atoms: C_2  and  N_18
REMARK    2  A    between atoms: C_5  and  O_8
REMARK    3  A    between atoms: O_8  and  C_9
REMARK    4  A    between atoms: C_9  and  C_10
REMARK    5  A    between atoms: C_11  and  N_15
REMARK    6  A    between atoms: N_15  and  N_16
REMARK                            x       y       z     vdW  Elec       q    Type
REMARK                         _______ _______ _______ _____ _____    ______ ____
ROOT
ATOM      1  O   UNL     1       1.235  -2.039  -0.022  0.00  0.00    -0.484 OA
ENDROOT
BRANCH   1   6
ATOM      2  C   UNL     1      -0.017   1.378   0.010  0.00  0.00    +0.051 A 
ATOM      3  C   UNL     1       1.170   2.087   0.002  0.00  0.00    +0.129 A 
ATOM      4  C   UNL     1       2.379   1.416  -0.013  0.00  0.00    +0.051 A 
ATOM      5  C   UNL     1       2.404   0.034  -0.021  0.00  0.00    +0.063 A 
ATOM      6  C   UNL     1       1.214  -0.680  -0.013  0.00  0.00    +0.149 A 
ATOM      7  C   UNL     1       0.002  -0.004   0.002  0.00  0.00    +0.063 A 
ATOM      8 BR   UNL     1      -1.622  -0.973   0.013  0.00  0.00    -0.046 Br
ATOM      9 BR   UNL     1       4.058  -0.883  -0.044  0.00  0.00    -0.046 Br
BRANCH   3  10
ATOM     10  N   UNL     1       1.147   3.567   0.010  0.00  0.00    +0.056 N 
ATOM     11  O   UNL     1       0.091   4.155   0.023  0.00  0.00    -0.126 OA
ATOM     12  O   UNL     1       2.184   4.188   0.004  0.00  0.00    -0.126 OA
ENDBRANCH   3  10
ENDBRANCH   1   6
BRANCH   1  13
ATOM     13  C   UNL     1       1.259  -2.696   1.247  0.00  0.00    +0.289 C 
BRANCH  13  14
ATOM     14  C   UNL     1       1.280  -4.188   1.041  0.00  0.00    +0.131 A 
ATOM     15  C   UNL     1       0.130  -4.920   0.949  0.00  0.00    +0.126 A 
ATOM     16  S   UNL     1       0.724  -6.477   0.729  0.00  0.00    +0.053 S 
ATOM     17  N   UNL     1       2.365  -6.136   0.763  0.00  0.00    -0.108 NA
ATOM     18  N   UNL     1       2.406  -4.857   0.934  0.00  0.00    -0.141 NA
BRANCH  15  19
ATOM     19  N   UNL     1      -1.192  -4.488   1.019  0.00  0.00    -0.274 N 
ATOM     20  H   UNL     1      -1.388  -3.547   1.151  0.00  0.00    +0.167 HD
BRANCH  19  21
ATOM     21  N   UNL     1      -2.212  -5.389   0.902  0.00  0.00    -0.256 NA
ATOM     22  H   UNL     1      -3.108  -4.931   0.973  0.00  0.00    +0.140 HD
ATOM     23  H   UNL     1      -2.138  -5.909   0.041  0.00  0.00    +0.140 HD
ENDBRANCH  19  21
ENDBRANCH  15  19
ENDBRANCH  13  14
ENDBRANCH   1  13
TORSDOF 6
