REMARK  Name = ZINC21514535
REMARK  5 active torsions:
REMARK  status: ('A' for Active; 'I' for Inactive)
REMARK    1  A    between atoms: C_3  and  O_20
REMARK    2  A    between atoms: C_4  and  N_19
REMARK    3  A    between atoms: C_6  and  S_7
REMARK    4  A    between atoms: S_7  and  N_10
REMARK    5  A    between atoms: N_10  and  C_11
REMARK                            x       y       z     vdW  Elec       q    Type
REMARK                         _______ _______ _______ _____ _____    ______ ____
ROOT
ATOM      1  S   UNL     1      -1.603  -1.015   0.042  0.00  0.00    +0.072 S 
ATOM      2  O   UNL     1      -1.553  -2.372   0.459  0.00  0.00    -0.150 OA
ATOM      3  O   UNL     1      -2.440  -0.055   0.672  0.00  0.00    -0.150 OA
ENDROOT
BRANCH   1   9
ATOM      4  C   UNL     1       1.109  -1.273   0.198  0.00  0.00    +0.032 A 
ATOM      5  C   UNL     1       2.403  -0.792   0.282  0.00  0.00    +0.049 A 
ATOM      6  C   UNL     1       2.634   0.573   0.316  0.00  0.00    +0.137 A 
ATOM      7  C   UNL     1       1.560   1.459   0.265  0.00  0.00    +0.068 A 
ATOM      8  C   UNL     1       0.265   0.970   0.182  0.00  0.00    +0.055 A 
ATOM      9  C   UNL     1       0.043  -0.395   0.148  0.00  0.00    +0.110 A 
BRANCH   7  10
ATOM     10  N   UNL     1       1.788   2.840   0.299  0.00  0.00    -0.355 N 
ATOM     11  H   UNL     1       0.939   3.538   0.259  0.00  0.00    +0.142 HD
ATOM     12  H   UNL     1       2.815   3.226   0.365  0.00  0.00    +0.142 HD
ENDBRANCH   7  10
BRANCH   6  13
ATOM     13  O   UNL     1       3.906   1.047   0.398  0.00  0.00    -0.505 OA
ATOM     14  H   UNL     1       4.088   2.131   0.424  0.00  0.00    +0.292 HD
ENDBRANCH   6  13
ENDBRANCH   1   9
BRANCH   1  15
ATOM     15  N   UNL     1      -2.019  -1.027  -1.561  0.00  0.00    -0.216 N 
ATOM     16  H   UNL     1      -2.844  -0.394  -1.920  0.00  0.00    +0.174 HD
BRANCH  15  17
ATOM     17  C   UNL     1      -1.322  -1.840  -2.457  0.00  0.00    +0.053 A 
ATOM     18  C   UNL     1      -0.422  -1.276  -3.353  0.00  0.00    +0.063 A 
ATOM     19  C   UNL     1       0.272  -2.084  -4.236  0.00  0.00    +0.128 A 
ATOM     20  C   UNL     1       0.061  -3.453  -4.235  0.00  0.00    +0.076 A 
ATOM     21  C   UNL     1      -0.840  -4.016  -3.347  0.00  0.00    +0.128 A 
ATOM     22  C   UNL     1      -1.532  -3.213  -2.458  0.00  0.00    +0.063 A 
ATOM     23  F   UNL     1      -1.044  -5.352  -3.348  0.00  0.00    -0.205 F 
ATOM     24  F   UNL     1       1.151  -1.537  -5.103  0.00  0.00    -0.205 F 
ENDBRANCH  15  17
ENDBRANCH   1  15
TORSDOF 5
