REMARK  Name = ZINC03624811
REMARK  9 active torsions:
REMARK  status: ('A' for Active; 'I' for Inactive)
REMARK    1  A    between atoms: C_1  and  C_2
REMARK    2  A    between atoms: C_2  and  C_3
REMARK    3  A    between atoms: C_3  and  C_4
REMARK    4  A    between atoms: C_4  and  N_5
REMARK    5  A    between atoms: C_11  and  C_25
REMARK    6  A    between atoms: C_13  and  O_24
REMARK    7  A    between atoms: C_15  and  O_22
REMARK    8  A    between atoms: C_15  and  O_23
REMARK    9  A    between atoms: C_28  and  C_31
REMARK                            x       y       z     vdW  Elec       q    Type
REMARK                         _______ _______ _______ _____ _____    ______ ____
ROOT
ATOM      1  N   UNL     1       1.795   5.375  -2.071  0.00  0.00    -0.274 N 
ATOM      2  C   UNL     1       2.912   6.146  -2.278  0.00  0.00    +0.288 C 
ATOM      3  O   UNL     1       3.642   6.087  -3.246  0.00  0.00    -0.266 OA
ATOM      4  C   UNL     1       3.081   7.073  -1.113  0.00  0.00    +0.249 C 
ATOM      5  O   UNL     1       3.952   7.910  -0.965  0.00  0.00    -0.282 OA
ATOM      6  C   UNL     1       2.037   6.782  -0.229  0.00  0.00    +0.082 C 
ATOM      7  C   UNL     1       1.010   7.278   0.551  0.00  0.00    +0.141 C 
ATOM      8  O   UNL     1      -0.136   6.516   0.381  0.00  0.00    -0.453 OA
ATOM      9  C   UNL     1       0.328   5.255   0.124  0.00  0.00    +0.269 C 
ATOM     10  C   UNL     1       1.634   5.407  -0.649  0.00  0.00    +0.198 C 
ATOM     11  C   UNL     1       2.319   4.172  -0.032  0.00  0.00    +0.226 C 
ATOM     12  C   UNL     1       1.168   3.160   0.017  0.00  0.00    +0.023 A 
ATOM     13  C   UNL     1      -0.059   3.857   0.056  0.00  0.00    +0.034 A 
ATOM     14  C   UNL     1      -1.234   3.134   0.044  0.00  0.00    +0.010 A 
ATOM     15  C   UNL     1      -1.217   1.753   0.017  0.00  0.00    +0.000 A 
ATOM     16  C   UNL     1      -0.013   1.076   0.008  0.00  0.00    +0.000 A 
ATOM     17  C   UNL     1       1.173   1.786   0.000  0.00  0.00    +0.009 A 
ENDROOT
BRANCH   7  18
ATOM     18  C   UNL     1       1.117   8.451   1.437  0.00  0.00    +0.017 A 
ATOM     19  C   UNL     1       2.325   9.147   1.538  0.00  0.00    +0.012 A 
ATOM     20  C   UNL     1       2.416  10.246   2.365  0.00  0.00    +0.004 A 
ATOM     21  C   UNL     1       1.318  10.655   3.103  0.00  0.00    -0.050 A 
ATOM     22  C   UNL     1       0.120   9.967   3.012  0.00  0.00    +0.004 A 
ATOM     23  C   UNL     1       0.012   8.869   2.185  0.00  0.00    +0.012 A 
ATOM     24  C   UNL     1       1.428  11.854   4.009  0.00  0.00    +0.044 C 
ENDBRANCH   7  18
BRANCH  11  25
ATOM     25  O   UNL     1       2.801   4.458   1.283  0.00  0.00    -0.359 OA
ATOM     26  H   UNL     1       3.159   3.689   1.747  0.00  0.00    +0.213 HD
ENDBRANCH  11  25
BRANCH  11  27
ATOM     27  O   UNL     1       3.376   3.702  -0.870  0.00  0.00    -0.359 OA
ATOM     28  H   UNL     1       3.778   2.874  -0.570  0.00  0.00    +0.213 HD
ENDBRANCH  11  27
BRANCH   9  29
ATOM     29  O   UNL     1       0.918   5.108   1.417  0.00  0.00    -0.350 OA
ATOM     30  H   UNL     1       0.276   4.990   2.131  0.00  0.00    +0.214 HD
ENDBRANCH   9  29
BRANCH   1  31
ATOM     31  C   UNL     1       0.968   4.686  -3.065  0.00  0.00    +0.109 C 
BRANCH  31  32
ATOM     32  C   UNL     1      -0.151   5.619  -3.532  0.00  0.00    +0.019 C 
BRANCH  32  34
ATOM     33  C   UNL     1      -2.134   5.833  -5.038  0.00  0.00    +0.004 C 
ATOM     34  C   UNL     1      -1.014   4.900  -4.571  0.00  0.00    -0.002 C 
ENDBRANCH  32  34
ENDBRANCH  31  32
ENDBRANCH   1  31
TORSDOF 7
