REMARK  Name = ZINC26947833
REMARK  9 active torsions:
REMARK  status: ('A' for Active; 'I' for Inactive)
REMARK    1  A    between atoms: C_1  and  C_2
REMARK    2  A    between atoms: N_8  and  N_9
REMARK    3  A    between atoms: N_9  and  C_10
REMARK    4  A    between atoms: C_10  and  S_12
REMARK    5  A    between atoms: S_12  and  C_13
REMARK    6  A    between atoms: C_13  and  C_14
REMARK    7  A    between atoms: N_16  and  C_17
REMARK    8  A    between atoms: C_17  and  C_19
REMARK    9  A    between atoms: C_17  and  O_23
REMARK                            x       y       z     vdW  Elec       q    Type
REMARK                         _______ _______ _______ _____ _____    ______ ____
ROOT
ATOM      1  C   UNL     1       6.404   0.967  -1.146  0.00  0.00    +0.123 C 
ATOM      2  S   UNL     1       6.471   2.534  -0.461  0.00  0.00    -0.027 S 
ENDROOT
BRANCH   1   3
ATOM      3  N   UNL     1       7.530   0.381  -1.599  0.00  0.00    -0.252 N 
ATOM      4  H   UNL     1       8.492   0.910  -1.529  0.00  0.00    +0.171 HD
BRANCH   3  12
ATOM      5  C   UNL     1       9.619  -4.675  -4.204  0.00  0.00    +0.088 C 
ATOM      6  C   UNL     1       9.681  -3.295  -3.602  0.00  0.00    +0.133 A 
ATOM      7  N   UNL     1      10.839  -2.663  -3.520  0.00  0.00    -0.200 NA
ATOM      8  C   UNL     1      10.898  -1.444  -2.989  0.00  0.00    +0.217 A 
ATOM      9  N   UNL     1       9.790  -0.863  -2.541  0.00  0.00    -0.180 NA
ATOM     10  C   UNL     1       8.628  -1.501  -2.625  0.00  0.00    +0.236 A 
ATOM     11  N   UNL     1       8.578  -2.722  -3.153  0.00  0.00    -0.199 NA
ATOM     12  N   UNL     1       7.475  -0.901  -2.160  0.00  0.00    -0.234 N 
ATOM     13  N   UNL     1      12.107  -0.786  -2.903  0.00  0.00    -0.327 N 
ATOM     14  H   UNL     1       6.513  -1.430  -2.231  0.00  0.00    +0.173 HD
ATOM     15  H   UNL     1      12.155   0.222  -2.464  0.00  0.00    +0.145 HD
ATOM     16  H   UNL     1      13.024  -1.268  -3.274  0.00  0.00    +0.145 HD
ENDBRANCH   3  12
ENDBRANCH   1   3
BRANCH   1  17
ATOM     17  S   UNL     1       4.864   0.120  -1.258  0.00  0.00    -0.092 S 
BRANCH  17  18
ATOM     18  C   UNL     1       3.769   1.358  -0.520  0.00  0.00    +0.172 C 
BRANCH  18  19
ATOM     19  C   UNL     1       2.355   0.836  -0.509  0.00  0.00    +0.225 C 
ATOM     20  O   UNL     1       2.112  -0.264  -0.957  0.00  0.00    -0.275 OA
ATOM     21  N   UNL     1       1.362   1.593  -0.002  0.00  0.00    -0.286 N 
ATOM     22  H   UNL     1       1.583   2.591   0.403  0.00  0.00    +0.151 HD
BRANCH  21  23
ATOM     23  C   UNL     1      -0.013   1.086   0.008  0.00  0.00    +0.253 C 
BRANCH  23  24
ATOM     24  C   UNL     1      -0.729   1.579   1.267  0.00  0.00    +0.232 C 
ATOM     25 CL   UNL     1      -2.420   0.955   1.280  0.00  0.00    -0.079 Cl
ATOM     26 CL   UNL     1       0.143   0.982   2.728  0.00  0.00    -0.079 Cl
ATOM     27 CL   UNL     1      -0.753   3.382   1.277  0.00  0.00    -0.079 Cl
ENDBRANCH  23  24
BRANCH  23  28
ATOM     28  O   UNL     1      -0.704   1.559  -1.150  0.00  0.00    -0.370 OA
ATOM     29  H   UNL     1      -1.755   1.280  -1.315  0.00  0.00    +0.212 HD
ENDBRANCH  23  28
ENDBRANCH  21  23
ENDBRANCH  18  19
ENDBRANCH  17  18
ENDBRANCH   1  17
TORSDOF 8
