REMARK  Name = ZINC39518656
REMARK  3 active torsions:
REMARK  status: ('A' for Active; 'I' for Inactive)
REMARK    1  A    between atoms: C_10  and  C_11
REMARK    2  A    between atoms: N_20  and  C_21
REMARK    3  A    between atoms: C_27  and  C_29
REMARK                            x       y       z     vdW  Elec       q    Type
REMARK                         _______ _______ _______ _____ _____    ______ ____
ROOT
ATOM      1  C   UNL     1       5.407   0.380  -1.301  0.00  0.00    +0.192 C 
ATOM      2  N   UNL     1       5.477   1.341  -2.408  0.00  0.00    -0.319 N 
ATOM      3  C   UNL     1       6.564   0.969  -3.209  0.00  0.00    +0.067 A 
ATOM      4  C   UNL     1       7.070   1.534  -4.374  0.00  0.00    +0.028 A 
ATOM      5  C   UNL     1       8.178   0.945  -4.968  0.00  0.00    +0.019 A 
ATOM      6  C   UNL     1       8.739  -0.174  -4.387  0.00  0.00    +0.084 A 
ATOM      7  N   UNL     1       8.239  -0.690  -3.281  0.00  0.00    -0.348 N 
ATOM      8  C   UNL     1       7.181  -0.162  -2.677  0.00  0.00    +0.122 A 
ATOM      9  N   UNL     1       6.515  -0.559  -1.515  0.00  0.00    -0.290 N 
ATOM     10  H   UNL     1       4.882   2.092  -2.558  0.00  0.00    +0.148 HD
ATOM     11  H   UNL     1       8.656  -1.477  -2.898  0.00  0.00    +0.167 HD
ENDROOT
BRANCH   1  21
ATOM     12  C   UNL     1       2.441  -1.943   2.165  0.00  0.00    +0.001 A 
ATOM     13  C   UNL     1       3.660  -1.269   2.212  0.00  0.00    +0.001 A 
ATOM     14  C   UNL     1       4.214  -0.744   1.085  0.00  0.00    +0.009 A 
ATOM     15  C   UNL     1       3.550  -0.882  -0.146  0.00  0.00    -0.011 A 
ATOM     16  C   UNL     1       2.311  -1.568  -0.194  0.00  0.00    -0.018 A 
ATOM     17  C   UNL     1       1.770  -2.096   0.991  0.00  0.00    +0.008 A 
ATOM     18  C   UNL     1       1.647  -1.706  -1.424  0.00  0.00    +0.008 A 
ATOM     19  C   UNL     1       2.201  -1.181  -2.551  0.00  0.00    +0.001 A 
ATOM     20  C   UNL     1       3.420  -0.507  -2.504  0.00  0.00    +0.008 A 
ATOM     21  C   UNL     1       4.091  -0.353  -1.330  0.00  0.00    -0.002 A 
ENDBRANCH   1  21
BRANCH   9  22
ATOM     22  C   UNL     1       6.858  -1.702  -0.665  0.00  0.00    +0.080 C 
ATOM     23  C   UNL     1       8.306  -1.568  -0.190  0.00  0.00    +0.041 C 
ATOM     24  C   UNL     1       8.650  -2.747   0.726  0.00  0.00    +0.110 C 
ATOM     25  N   UNL     1       8.364  -3.999   0.013  0.00  0.00    -0.296 N 
ATOM     26  C   UNL     1       7.027  -4.193  -0.564  0.00  0.00    +0.110 C 
ATOM     27  C   UNL     1       6.700  -2.997  -1.466  0.00  0.00    +0.041 C 
ATOM     28  C   UNL     1       9.309  -4.951  -0.110  0.00  0.00    +0.265 C 
ATOM     29  O   UNL     1       9.098  -5.933  -0.793  0.00  0.00    -0.268 OA
BRANCH  28  30
ATOM     30  C   UNL     1      10.611  -4.801   0.591  0.00  0.00    +0.136 A 
ATOM     31  N   UNL     1      10.788  -3.808   1.474  0.00  0.00    -0.188 NA
ATOM     32  C   UNL     1      11.929  -3.653   2.107  0.00  0.00    +0.349 A 
ATOM     33  O   UNL     1      12.060  -2.640   2.988  0.00  0.00    -0.245 OA
ATOM     34  N   UNL     1      12.978  -4.488   1.896  0.00  0.00    -0.274 N 
ATOM     35  C   UNL     1      12.866  -5.508   1.019  0.00  0.00    +0.255 A 
ATOM     36  O   UNL     1      13.802  -6.264   0.822  0.00  0.00    -0.268 OA
ATOM     37  C   UNL     1      11.640  -5.685   0.339  0.00  0.00    +0.103 A 
ATOM     38  H   UNL     1      13.810  -4.352   2.376  0.00  0.00    +0.173 HD
ENDBRANCH  28  30
ENDBRANCH   9  22
TORSDOF 3
