REMARK  Name = ZINC39665160
REMARK  13 active torsions:
REMARK  status: ('A' for Active; 'I' for Inactive)
REMARK    1  A    between atoms: C_1  and  C_2
REMARK    2  A    between atoms: C_2  and  C_4
REMARK    3  A    between atoms: C_2  and  O_33
REMARK    4  A    between atoms: C_4  and  N_5
REMARK    5  A    between atoms: C_6  and  C_8
REMARK    6  A    between atoms: C_19  and  C_21
REMARK    7  A    between atoms: C_23  and  O_31
REMARK    8  A    between atoms: C_24  and  O_29
REMARK    9  A    between atoms: C_25  and  O_27
REMARK   10  A    between atoms: O_27  and  C_28
REMARK   11  A    between atoms: O_29  and  C_30
REMARK   12  A    between atoms: O_31  and  C_32
REMARK   13  A    between atoms: O_33  and  C_34
REMARK                            x       y       z     vdW  Elec       q    Type
REMARK                         _______ _______ _______ _____ _____    ______ ____
ROOT
ATOM      1  C   UNL     1       0.921  -3.894  -2.316  0.00  0.00    +0.100 C 
ATOM      2  C   UNL     1       1.536  -4.515  -1.042  0.00  0.00    +0.121 C 
ATOM      3  N   UNL     1       2.196  -5.756  -1.512  0.00  0.00    -0.296 N 
ATOM      4  C   UNL     1       2.800  -5.383  -2.813  0.00  0.00    +0.115 C 
ATOM      5  C   UNL     1       1.754  -4.465  -3.476  0.00  0.00    -0.004 C 
ATOM      6  C   UNL     1       0.865  -5.273  -4.417  0.00  0.00    -0.010 C 
ATOM      7  C   UNL     1       1.704  -5.783  -5.592  0.00  0.00    -0.082 C 
ATOM      8  N   UNL     1       2.296  -4.643  -6.303  0.00  0.00    +0.379 N 
ATOM      9  C   UNL     1       3.221  -3.926  -5.417  0.00  0.00    -0.082 C 
ATOM     10  C   UNL     1       2.446  -3.338  -4.235  0.00  0.00    -0.010 C 
ATOM     11  C   UNL     1       2.238  -6.954  -0.895  0.00  0.00    +0.247 C 
ATOM     12  O   UNL     1       1.597  -7.137   0.122  0.00  0.00    -0.270 OA
ATOM     13  H   UNL     1       2.798  -4.978  -7.112  0.00  0.00    -0.086 HD
ATOM     14  H   UNL     1       1.563  -4.016  -6.601  0.00  0.00    -0.086 HD
ENDROOT
BRANCH  11  15
ATOM     15  C   UNL     1       3.061  -8.044  -1.455  0.00  0.00    +0.044 A 
ATOM     16  C   UNL     1       4.161  -7.746  -2.264  0.00  0.00    +0.062 A 
ATOM     17  C   UNL     1       4.930  -8.769  -2.786  0.00  0.00    +0.166 A 
ATOM     18  C   UNL     1       4.609 -10.095  -2.508  0.00  0.00    +0.204 A 
ATOM     19  C   UNL     1       3.513 -10.394  -1.703  0.00  0.00    +0.166 A 
ATOM     20  C   UNL     1       2.744  -9.375  -1.173  0.00  0.00    +0.062 A 
BRANCH  19  21
ATOM     21  O   UNL     1       3.202 -11.691  -1.434  0.00  0.00    -0.491 OA
ATOM     22  C   UNL     1       2.065 -11.926  -0.601  0.00  0.00    +0.277 C 
ENDBRANCH  19  21
BRANCH  18  23
ATOM     23  O   UNL     1       5.367 -11.098  -3.024  0.00  0.00    -0.488 OA
ATOM     24  C   UNL     1       6.476 -11.542  -2.240  0.00  0.00    +0.277 C 
ENDBRANCH  18  23
BRANCH  17  25
ATOM     25  O   UNL     1       6.001  -8.479  -3.573  0.00  0.00    -0.491 OA
ATOM     26  C   UNL     1       6.272  -7.098  -3.817  0.00  0.00    +0.277 C 
ENDBRANCH  17  25
ENDBRANCH  11  15
BRANCH   1  28
ATOM     27  N   UNL     1       0.108  -1.628  -2.883  0.00  0.00    -0.312 N 
ATOM     28  C   UNL     1       1.037  -2.392  -2.276  0.00  0.00    +0.218 C 
ATOM     29  O   UNL     1       1.967  -1.871  -1.697  0.00  0.00    -0.275 OA
ATOM     30  H   UNL     1      -0.635  -2.045  -3.346  0.00  0.00    +0.149 HD
BRANCH  27  31
ATOM     31  C   UNL     1       0.222  -0.168  -2.845  0.00  0.00    +0.148 C 
BRANCH  31  33
ATOM     32  C   UNL     1      -0.768   1.973  -3.671  0.00  0.00    +0.053 C 
ATOM     33  C   UNL     1      -0.952   0.455  -3.604  0.00  0.00    +0.187 C 
BRANCH  33  34
ATOM     34  O   UNL     1      -2.173   0.153  -2.925  0.00  0.00    -0.488 OA
BRANCH  34  35
ATOM     35  C   UNL     1      -3.310   0.157  -3.670  0.00  0.00    +0.121 A 
ATOM     36  C   UNL     1      -4.541  -0.024  -3.058  0.00  0.00    +0.045 A 
ATOM     37  C   UNL     1      -5.696  -0.019  -3.817  0.00  0.00    +0.004 A 
ATOM     38  C   UNL     1      -5.624   0.166  -5.185  0.00  0.00    +0.000 A 
ATOM     39  C   UNL     1      -4.398   0.346  -5.797  0.00  0.00    +0.004 A 
ATOM     40  C   UNL     1      -3.241   0.347  -5.042  0.00  0.00    +0.045 A 
ENDBRANCH  34  35
ENDBRANCH  33  34
ENDBRANCH  31  33
ENDBRANCH  27  31
ENDBRANCH   1  28
TORSDOF 9
