REMARK  Name = ZINC38043265
REMARK  4 active torsions:
REMARK  status: ('A' for Active; 'I' for Inactive)
REMARK    1  A    between atoms: C_3  and  N_10
REMARK    2  A    between atoms: C_6  and  O_9
REMARK    3  A    between atoms: C_11  and  C_13
REMARK    4  A    between atoms: N_18  and  C_19
REMARK                            x       y       z     vdW  Elec       q    Type
REMARK                         _______ _______ _______ _____ _____    ______ ____
ROOT
ATOM      1  C   UNL     1       0.820   3.791  -4.392  0.00  0.00    +0.143 C 
ATOM      2  C   UNL     1       1.235   3.002  -5.647  0.00  0.00    +0.029 C 
ATOM      3  C   UNL     1       2.086   3.988  -6.481  0.00  0.00    +0.017 C 
ATOM      4  C   UNL     1       1.628   5.371  -5.954  0.00  0.00    +0.085 C 
ATOM      5  N   UNL     1       1.427   5.135  -4.499  0.00  0.00    -0.289 NA
ENDROOT
BRANCH   5   6
ATOM      6  C   UNL     1       0.549   6.157  -3.912  0.00  0.00    +0.054 C 
ATOM      7  C   UNL     1       1.135   7.547  -4.174  0.00  0.00    -0.000 C 
ATOM      8  C   UNL     1       0.260   8.601  -3.492  0.00  0.00    -0.081 C 
ATOM      9  N   UNL     1       0.221   8.349  -2.047  0.00  0.00    +0.379 N 
ATOM     10  C   UNL     1      -0.406   7.048  -1.784  0.00  0.00    -0.081 C 
ATOM     11  C   UNL     1       0.444   5.935  -2.400  0.00  0.00    -0.000 C 
ATOM     12  H   UNL     1       1.161   8.348  -1.681  0.00  0.00    -0.086 HD
ATOM     13  H   UNL     1      -0.313   9.076  -1.594  0.00  0.00    -0.086 HD
ENDBRANCH   5   6
BRANCH   1  15
ATOM     14  N   UNL     1       0.911   1.847  -2.865  0.00  0.00    -0.311 N 
ATOM     15  C   UNL     1       1.329   3.095  -3.156  0.00  0.00    +0.230 C 
ATOM     16  O   UNL     1       2.115   3.657  -2.424  0.00  0.00    -0.274 OA
ATOM     17  H   UNL     1       0.282   1.397  -3.450  0.00  0.00    +0.149 HD
BRANCH  14  20
ATOM     18  C   UNL     1      -0.902   1.179  -0.707  0.00  0.00    +0.004 C 
ATOM     19  C   UNL     1       0.554   1.579  -0.460  0.00  0.00    +0.022 C 
ATOM     20  C   UNL     1       1.406   1.170  -1.663  0.00  0.00    +0.075 C 
ATOM     21  C   UNL     1       1.319  -0.345  -1.859  0.00  0.00    +0.053 C 
ATOM     22  C   UNL     1      -0.137  -0.744  -2.106  0.00  0.00    +0.116 C 
ATOM     23  C   UNL     1      -0.989  -0.336  -0.903  0.00  0.00    +0.031 C 
BRANCH  22  24
ATOM     24  O   UNL     1      -0.219  -2.159  -2.289  0.00  0.00    -0.392 OA
ATOM     25  H   UNL     1      -1.115  -2.484  -2.450  0.00  0.00    +0.210 HD
ENDBRANCH  22  24
ENDBRANCH  14  20
ENDBRANCH   1  15
TORSDOF 4
