REMARK  Name = ZINC45044190
REMARK  9 active torsions:
REMARK  status: ('A' for Active; 'I' for Inactive)
REMARK    1  A    between atoms: C_1  and  C_2
REMARK    2  A    between atoms: C_2  and  N_3
REMARK    3  A    between atoms: C_4  and  C_6
REMARK    4  A    between atoms: C_6  and  C_8
REMARK    5  A    between atoms: C_6  and  N_9
REMARK    6  A    between atoms: C_10  and  C_12
REMARK    7  A    between atoms: C_12  and  C_13
REMARK    8  A    between atoms: C_16  and  S_18
REMARK    9  A    between atoms: S_18  and  N_21
REMARK                            x       y       z     vdW  Elec       q    Type
REMARK                         _______ _______ _______ _____ _____    ______ ____
ROOT
ATOM      1  N   UNL     1       1.552  -3.749  -2.673  0.00  0.00    -0.304 N 
ATOM      2  C   UNL     1       1.652  -4.416  -3.840  0.00  0.00    +0.218 C 
ATOM      3  O   UNL     1       1.725  -3.803  -4.884  0.00  0.00    -0.275 OA
ATOM      4  H   UNL     1       1.493  -4.240  -1.838  0.00  0.00    +0.149 HD
ENDROOT
BRANCH   1   5
ATOM      5  C   UNL     1       1.532  -2.285  -2.665  0.00  0.00    +0.156 C 
ATOM      6  C   UNL     1       2.968  -1.755  -2.676  0.00  0.00    +0.038 C 
BRANCH   5   8
ATOM      7  N   UNL     1       0.688  -0.476  -1.203  0.00  0.00    -0.314 N 
ATOM      8  C   UNL     1       0.827  -1.799  -1.425  0.00  0.00    +0.233 C 
ATOM      9  O   UNL     1       0.384  -2.597  -0.627  0.00  0.00    -0.274 OA
ATOM     10  H   UNL     1       1.042   0.162  -1.842  0.00  0.00    +0.149 HD
BRANCH   7  12
ATOM     11  C   UNL     1      -0.019   1.526   0.010  0.00  0.00    +0.024 C 
ATOM     12  C   UNL     1       0.002  -0.004   0.002  0.00  0.00    +0.101 C 
ENDBRANCH   7  12
ENDBRANCH   5   8
ENDBRANCH   1   5
BRANCH   2  13
ATOM     13  C   UNL     1       1.672  -5.923  -3.849  0.00  0.00    +0.138 C 
BRANCH  13  14
ATOM     14  C   UNL     1       1.789  -6.415  -5.268  0.00  0.00    +0.000 A 
ATOM     15  C   UNL     1       2.905  -6.686  -5.988  0.00  0.00    +0.013 A 
ATOM     16  C   UNL     1       2.771  -7.134  -7.289  0.00  0.00    +0.036 A 
ATOM     17  C   UNL     1       1.528  -7.290  -7.806  0.00  0.00    +0.142 A 
ATOM     18  S   UNL     1       0.494  -6.802  -6.434  0.00  0.00    -0.073 S 
BRANCH  17  19
ATOM     19  S   UNL     1       1.054  -7.837  -9.412  0.00  0.00    +0.062 S 
ATOM     20  O   UNL     1      -0.244  -7.313  -9.654  0.00  0.00    -0.153 OA
ATOM     21  O   UNL     1       2.155  -7.572 -10.272  0.00  0.00    -0.153 OA
BRANCH  19  22
ATOM     22  N   UNL     1       0.894  -9.484  -9.341  0.00  0.00    -0.203 NA
ATOM     23  H   UNL     1       1.059  -9.951  -8.507  0.00  0.00    +0.144 HD
ATOM     24  H   UNL     1       0.636  -9.980 -10.133  0.00  0.00    +0.144 HD
ENDBRANCH  19  22
ENDBRANCH  17  19
ENDBRANCH  13  14
ENDBRANCH   2  13
TORSDOF 7
