REMARK  Name = ZINC51116984
REMARK  6 active torsions:
REMARK  status: ('A' for Active; 'I' for Inactive)
REMARK    1  A    between atoms: C_1  and  C_2
REMARK    2  A    between atoms: C_7  and  C_9
REMARK    3  A    between atoms: C_7  and  C_10
REMARK    4  A    between atoms: C_11  and  C_13
REMARK    5  A    between atoms: C_18  and  N_19
REMARK    6  A    between atoms: N_19  and  N_20
REMARK                            x       y       z     vdW  Elec       q    Type
REMARK                         _______ _______ _______ _____ _____    ______ ____
ROOT
ATOM      1  C   UNL     1      -2.963  -2.261  -1.658  0.00  0.00    +0.060 A 
ATOM      2  C   UNL     1      -3.980  -1.372  -1.300  0.00  0.00    +0.035 A 
ATOM      3  C   UNL     1      -4.808  -0.848  -2.269  0.00  0.00    +0.042 A 
ATOM      4  C   UNL     1      -4.638  -1.199  -3.600  0.00  0.00    +0.022 A 
ATOM      5  C   UNL     1      -3.638  -2.075  -3.969  0.00  0.00    +0.026 A 
ATOM      6  C   UNL     1      -2.789  -2.608  -3.006  0.00  0.00    +0.053 A 
ATOM      7 CL   UNL     1      -6.072   0.255  -1.822  0.00  0.00    -0.084 Cl
ENDROOT
BRANCH   1  17
ATOM      8  C   UNL     1      -0.066   1.527   0.091  0.00  0.00    +0.039 C 
ATOM      9  C   UNL     1      -0.035  -0.003   0.069  0.00  0.00    +0.133 C 
ATOM     10  C   UNL     1      -1.469  -0.544   0.050  0.00  0.00    +0.139 C 
ATOM     11  N   UNL     1      -1.416  -2.005   0.217  0.00  0.00    -0.292 N 
ATOM     12  C   UNL     1      -0.623  -2.545   1.333  0.00  0.00    +0.142 C 
ATOM     13  C   UNL     1       0.770  -1.906   1.290  0.00  0.00    +0.080 C 
ATOM     14  O   UNL     1       0.635  -0.483   1.237  0.00  0.00    -0.368 OA
ATOM     15  C   UNL     1       1.552  -2.298   2.546  0.00  0.00    +0.043 C 
ATOM     16  C   UNL     1       1.518  -2.394   0.048  0.00  0.00    +0.043 C 
ATOM     17  C   UNL     1      -2.074  -2.824  -0.626  0.00  0.00    +0.249 C 
ATOM     18  O   UNL     1      -1.933  -4.029  -0.536  0.00  0.00    -0.270 OA
ENDBRANCH   1  17
BRANCH   6  19
ATOM     19  N   UNL     1      -1.778  -3.486  -3.376  0.00  0.00    -0.282 N 
ATOM     20  H   UNL     1      -1.234  -3.914  -2.696  0.00  0.00    +0.166 HD
BRANCH  19  21
ATOM     21  N   UNL     1      -1.549  -3.746  -4.697  0.00  0.00    -0.256 NA
ATOM     22  H   UNL     1      -1.374  -2.894  -5.209  0.00  0.00    +0.140 HD
ATOM     23  H   UNL     1      -0.787  -4.399  -4.811  0.00  0.00    +0.140 HD
ENDBRANCH  19  21
ENDBRANCH   6  19
TORSDOF 3
