REMARK  Name = ZINC17129879
REMARK  2 active torsions:
REMARK  status: ('A' for Active; 'I' for Inactive)
REMARK    1  A    between atoms: C_4  and  N_7
REMARK    2  A    between atoms: N_9  and  C_10
REMARK                            x       y       z     vdW  Elec       q    Type
REMARK                         _______ _______ _______ _____ _____    ______ ____
ROOT
ATOM      1  N   UNL     1      -3.618   2.008   2.121  0.00  0.00    -0.331 N 
ATOM      2  C   UNL     1      -3.723   1.961   0.752  0.00  0.00    +0.170 C 
ATOM      3  N   UNL     1      -2.702   1.562   0.029  0.00  0.00    -0.288 N 
ATOM      4  N   UNL     1      -4.896   2.331   0.138  0.00  0.00    -0.269 N 
ATOM      5  C   UNL     1      -5.329   1.604  -1.033  0.00  0.00    +0.149 C 
ATOM      6  C   UNL     1      -6.582   0.785  -0.832  0.00  0.00    -0.019 A 
ATOM      7  C   UNL     1      -6.868  -0.108  -1.865  0.00  0.00    +0.006 A 
ATOM      8  C   UNL     1      -7.987  -0.910  -1.832  0.00  0.00    +0.000 A 
ATOM      9  C   UNL     1      -8.858  -0.839  -0.758  0.00  0.00    +0.001 A 
ATOM     10  C   UNL     1      -8.593   0.032   0.271  0.00  0.00    +0.012 A 
ATOM     11  C   UNL     1      -7.449   0.851   0.245  0.00  0.00    +0.027 A 
ATOM     12  C   UNL     1      -7.261   1.740   1.407  0.00  0.00    +0.195 C 
ATOM     13  O   UNL     1      -7.451   1.297   2.524  0.00  0.00    -0.287 OA
ATOM     14  C   UNL     1      -6.852   3.143   1.258  0.00  0.00    +0.044 A 
ATOM     15  C   UNL     1      -5.616   3.390   0.662  0.00  0.00    +0.047 A 
ATOM     16  C   UNL     1      -5.135   4.691   0.594  0.00  0.00    +0.024 A 
ATOM     17  C   UNL     1      -5.905   5.729   1.084  0.00  0.00    +0.002 A 
ATOM     18  C   UNL     1      -7.152   5.486   1.637  0.00  0.00    +0.001 A 
ATOM     19  C   UNL     1      -7.635   4.195   1.728  0.00  0.00    +0.013 A 
ATOM     20  H   UNL     1      -2.783   1.532  -1.068  0.00  0.00    +0.155 HD
ATOM     21  H   UNL     1      -2.789   2.557   2.591  0.00  0.00    +0.168 HD
ENDROOT
BRANCH   1  25
ATOM     22  C   UNL     1      -6.444   0.074   4.493  0.00  0.00    +0.000 A 
ATOM     23  C   UNL     1      -5.986   1.329   4.850  0.00  0.00    +0.002 A 
ATOM     24  C   UNL     1      -5.049   1.973   4.066  0.00  0.00    +0.026 A 
ATOM     25  C   UNL     1      -4.567   1.359   2.917  0.00  0.00    +0.041 A 
ATOM     26  C   UNL     1      -5.033   0.101   2.558  0.00  0.00    +0.026 A 
ATOM     27  C   UNL     1      -5.965  -0.541   3.350  0.00  0.00    +0.002 A 
ENDBRANCH   1  25
BRANCH   3  28
ATOM     28  C   UNL     1      -1.536   1.184   0.640  0.00  0.00    +0.033 A 
ATOM     29  C   UNL     1      -1.047  -0.114   0.476  0.00  0.00    +0.023 A 
ATOM     30  C   UNL     1       0.130  -0.487   1.091  0.00  0.00    +0.002 A 
ATOM     31  C   UNL     1       0.824   0.420   1.872  0.00  0.00    +0.000 A 
ATOM     32  C   UNL     1       0.342   1.706   2.044  0.00  0.00    +0.002 A 
ATOM     33  C   UNL     1      -0.834   2.092   1.435  0.00  0.00    +0.023 A 
ENDBRANCH   3  28
TORSDOF 2
