REMARK  Name = ZINC42471002
REMARK  5 active torsions:
REMARK  status: ('A' for Active; 'I' for Inactive)
REMARK    1  A    between atoms: C_1  and  C_2
REMARK    2  A    between atoms: C_3  and  C_19
REMARK    3  A    between atoms: C_7  and  C_8
REMARK    4  A    between atoms: C_8  and  N_10
REMARK    5  A    between atoms: C_15  and  O_18
REMARK                            x       y       z     vdW  Elec       q    Type
REMARK                         _______ _______ _______ _____ _____    ______ ____
ROOT
ATOM      1  C   UNL     1      -0.184   1.482   0.009  0.00  0.00    +0.046 C 
ATOM      2  C   UNL     1      -0.075  -0.021   0.005  0.00  0.00    -0.015 A 
ATOM      3  C   UNL     1      -0.096  -0.736  -1.181  0.00  0.00    +0.064 A 
ATOM      4  N   UNL     1       0.000  -2.051  -1.164  0.00  0.00    -0.152 NA
ATOM      5  N   UNL     1       0.116  -2.724  -0.078  0.00  0.00    -0.133 NA
ATOM      6  C   UNL     1       0.148  -2.142   1.113  0.00  0.00    +0.154 A 
ATOM      7  C   UNL     1       0.057  -0.739   1.201  0.00  0.00    +0.049 A 
ATOM      8  N   UNL     1       0.274  -2.906   2.260  0.00  0.00    -0.311 N 
ATOM      9  C   UNL     1      -0.915  -3.440   2.938  0.00  0.00    +0.107 C 
ATOM     10  C   UNL     1      -0.749  -4.953   3.108  0.00  0.00    +0.021 C 
ATOM     11  C   UNL     1       0.569  -5.239   3.832  0.00  0.00    +0.034 C 
ATOM     12  C   UNL     1       1.738  -4.716   2.993  0.00  0.00    +0.132 C 
ATOM     13  C   UNL     1       1.599  -3.205   2.819  0.00  0.00    +0.137 C 
ATOM     14  C   UNL     1      -0.231  -0.009  -2.494  0.00  0.00    +0.068 C 
ENDROOT
BRANCH   7  15
ATOM     15  C   UNL     1       0.095  -0.051   2.505  0.00  0.00    +0.081 C 
ATOM     16  S   UNL     1       1.576   0.559   3.109  0.00  0.00    -0.035 S 
BRANCH  15  17
ATOM     17  N   UNL     1      -1.037   0.096   3.222  0.00  0.00    -0.352 N 
ATOM     18  H   UNL     1      -1.888  -0.179   2.847  0.00  0.00    +0.143 HD
ATOM     19  H   UNL     1      -1.000   0.478   4.113  0.00  0.00    +0.143 HD
ENDBRANCH  15  17
ENDBRANCH   7  15
BRANCH  12  20
ATOM     20  O   UNL     1       2.969  -5.011   3.655  0.00  0.00    -0.390 OA
ATOM     21  H   UNL     1       3.122  -5.955   3.798  0.00  0.00    +0.210 HD
ENDBRANCH  12  20
TORSDOF 3
