REMARK  Name = ZINC25229400
REMARK  12 active torsions:
REMARK  status: ('A' for Active; 'I' for Inactive)
REMARK    1  A    between atoms: C_1  and  C_2
REMARK    2  A    between atoms: C_3  and  C_36
REMARK    3  A    between atoms: C_11  and  C_13
REMARK    4  A    between atoms: C_13  and  N_14
REMARK    5  A    between atoms: N_17  and  C_20
REMARK    6  A    between atoms: C_20  and  C_21
REMARK    7  A    between atoms: C_21  and  C_23
REMARK    8  A    between atoms: C_21  and  O_35
REMARK    9  A    between atoms: C_23  and  O_24
REMARK   10  A    between atoms: O_24  and  C_25
REMARK   11  A    between atoms: C_25  and  C_27
REMARK   12  A    between atoms: C_25  and  C_28
REMARK                            x       y       z     vdW  Elec       q    Type
REMARK                         _______ _______ _______ _____ _____    ______ ____
ROOT
ATOM      1  N   UNL     1      -8.714   2.408   6.119  0.00  0.00    +0.386 N 
ATOM      2  C   UNL     1      -9.363   1.892   4.906  0.00  0.00    -0.063 C 
ATOM      3  C   UNL     1      -8.386   0.986   4.153  0.00  0.00    +0.066 C 
ATOM      4  N   UNL     1      -7.176   1.750   3.815  0.00  0.00    -0.303 NA
ATOM      5  C   UNL     1      -6.527   2.267   5.028  0.00  0.00    +0.066 C 
ATOM      6  C   UNL     1      -7.505   3.172   5.781  0.00  0.00    -0.063 C 
ATOM      7  H   UNL     1      -8.412   1.548   6.735  0.00  0.00    -0.081 HD
ENDROOT
BRANCH   1   8
ATOM      8  C   UNL     1      -9.647   3.222   6.909  0.00  0.00    -0.003 C 
BRANCH   8  19
ATOM      9  C   UNL     1     -14.933   0.128   9.635  0.00  0.00    +0.045 C 
ATOM     10  C   UNL     1     -13.693  -0.268   8.876  0.00  0.00    -0.026 A 
ATOM     11  C   UNL     1     -13.449  -1.559   8.598  0.00  0.00    -0.008 A 
ATOM     12  S   UNL     1     -11.904  -1.506   7.711  0.00  0.00    -0.073 S 
ATOM     13  C   UNL     1     -11.631   0.247   7.739  0.00  0.00    +0.116 A 
ATOM     14  C   UNL     1     -12.748   0.742   8.437  0.00  0.00    +0.075 A 
ATOM     15  C   UNL     1     -12.789   2.163   8.612  0.00  0.00    +0.260 A 
ATOM     16  O   UNL     1     -13.717   2.688   9.203  0.00  0.00    -0.267 OA
ATOM     17  N   UNL     1     -11.784   2.910   8.117  0.00  0.00    -0.312 N 
ATOM     18  H   UNL     1     -11.794   4.002   8.250  0.00  0.00    +0.170 HD
ATOM     19  C   UNL     1     -10.746   2.344   7.451  0.00  0.00    +0.094 A 
ATOM     20  N   UNL     1     -10.679   1.052   7.275  0.00  0.00    -0.229 NA
ATOM     21  C   UNL     1     -14.283  -2.764   8.952  0.00  0.00    +0.052 C 
ENDBRANCH   8  19
ENDBRANCH   1   8
BRANCH   4  22
ATOM     22  C   UNL     1      -6.243   0.936   3.025  0.00  0.00    +0.117 C 
BRANCH  22  23
ATOM     23  C   UNL     1      -5.123   1.826   2.483  0.00  0.00    +0.154 C 
BRANCH  23  24
ATOM     24  O   UNL     1      -5.683   2.847   1.655  0.00  0.00    -0.388 OA
ATOM     25  H   UNL     1      -5.027   3.587   1.174  0.00  0.00    +0.210 HD
ENDBRANCH  23  24
BRANCH  23  26
ATOM     26  C   UNL     1      -4.151   0.978   1.660  0.00  0.00    +0.193 C 
BRANCH  26  27
ATOM     27  O   UNL     1      -3.044   1.784   1.251  0.00  0.00    -0.370 OA
BRANCH  27  28
ATOM     28  C   UNL     1      -2.072   1.084   0.472  0.00  0.00    +0.145 C 
ATOM     29  C   UNL     1      -2.432   1.194  -1.011  0.00  0.00    +0.043 C 
BRANCH  28  30
ATOM     30  C   UNL     1      -0.711   1.688   0.705  0.00  0.00    -0.019 A 
ATOM     31  C   UNL     1       0.411   0.881   0.712  0.00  0.00    +0.007 A 
ATOM     32  C   UNL     1       1.660   1.436   0.919  0.00  0.00    +0.020 A 
ATOM     33  C   UNL     1       1.786   2.798   1.126  0.00  0.00    +0.041 A 
ATOM     34  C   UNL     1       0.662   3.604   1.125  0.00  0.00    +0.020 A 
ATOM     35  C   UNL     1      -0.587   3.049   0.917  0.00  0.00    +0.007 A 
ATOM     36 CL   UNL     1       3.354   3.496   1.387  0.00  0.00    -0.084 Cl
ENDBRANCH  28  30
ENDBRANCH  27  28
ENDBRANCH  26  27
ENDBRANCH  23  26
ENDBRANCH  22  23
ENDBRANCH   4  22
TORSDOF 9
