REMARK  Name = ZINC42269310
REMARK  5 active torsions:
REMARK  status: ('A' for Active; 'I' for Inactive)
REMARK    1  A    between atoms: C_1  and  N_2
REMARK    2  A    between atoms: N_2  and  C_3
REMARK    3  A    between atoms: C_11  and  C_13
REMARK    4  A    between atoms: C_15  and  N_20
REMARK    5  A    between atoms: C_17  and  N_19
REMARK                            x       y       z     vdW  Elec       q    Type
REMARK                         _______ _______ _______ _____ _____    ______ ____
ROOT
ATOM      1  C   UNL     1      -0.124   0.069  -2.442  0.00  0.00    +0.040 A 
ATOM      2  C   UNL     1       0.639   1.227  -2.592  0.00  0.00    +0.036 A 
ATOM      3  C   UNL     1       0.616   1.920  -3.793  0.00  0.00    +0.027 A 
ATOM      4  C   UNL     1      -0.165   1.463  -4.846  0.00  0.00    +0.045 A 
ATOM      5  C   UNL     1      -0.927   0.311  -4.700  0.00  0.00    +0.027 A 
ATOM      6  C   UNL     1      -0.904  -0.391  -3.504  0.00  0.00    +0.036 A 
ENDROOT
BRANCH   1   9
ATOM      7  C   UNL     1      -0.033   1.460   0.012  0.00  0.00    +0.132 C 
ATOM      8  N   UNL     1       0.004  -0.004   0.002  0.00  0.00    -0.296 N 
ATOM      9  C   UNL     1      -0.102  -0.673  -1.163  0.00  0.00    +0.247 C 
ATOM     10  O   UNL     1      -0.178  -1.886  -1.163  0.00  0.00    -0.270 OA
BRANCH   8  11
ATOM     11  C   UNL     1       0.155  -0.742   1.259  0.00  0.00    +0.098 C 
ATOM     12  C   UNL     1       1.473  -0.331   1.936  0.00  0.00    +0.046 C 
ATOM     13  C   UNL     1       1.460  -0.878   3.392  0.00  0.00    +0.168 C 
ATOM     14  S   UNL     1      -0.288  -0.537   3.865  0.00  0.00    -0.029 S 
ATOM     15  O   UNL     1      -0.817  -1.676   4.530  0.00  0.00    -0.174 OA
ATOM     16  O   UNL     1      -0.357   0.735   4.493  0.00  0.00    -0.174 OA
ATOM     17  C   UNL     1      -1.038  -0.420   2.190  0.00  0.00    +0.188 C 
ENDBRANCH   8  11
ENDBRANCH   1   9
BRANCH   5  18
ATOM     18  N   UNL     1      -1.712  -0.146  -5.762  0.00  0.00    -0.358 N 
ATOM     19  H   UNL     1      -1.725   0.342  -6.600  0.00  0.00    +0.142 HD
ATOM     20  H   UNL     1      -2.244  -0.951  -5.660  0.00  0.00    +0.142 HD
ENDBRANCH   5  18
BRANCH   3  21
ATOM     21  N   UNL     1       1.380   3.080  -3.944  0.00  0.00    -0.358 N 
ATOM     22  H   UNL     1       1.926   3.401  -3.209  0.00  0.00    +0.142 HD
ATOM     23  H   UNL     1       1.364   3.566  -4.784  0.00  0.00    +0.142 HD
ENDBRANCH   3  21
TORSDOF 4
