REMARK  Name = ZINC39335264
REMARK  8 active torsions:
REMARK  status: ('A' for Active; 'I' for Inactive)
REMARK    1  A    between atoms: C_4  and  N_11
REMARK    2  A    between atoms: C_5  and  C_7
REMARK    3  A    between atoms: C_12  and  C_14
REMARK    4  A    between atoms: C_14  and  S_15
REMARK    5  A    between atoms: S_15  and  C_16
REMARK    6  A    between atoms: C_17  and  C_30
REMARK    7  A    between atoms: C_24  and  C_28
REMARK    8  A    between atoms: C_25  and  N_27
REMARK                            x       y       z     vdW  Elec       q    Type
REMARK                         _______ _______ _______ _____ _____    ______ ____
ROOT
ATOM      1  C   UNL     1       8.881  -0.511  -0.551  0.00  0.00    +0.081 C 
ATOM      2  C   UNL     1      10.102   0.076  -0.662  0.00  0.00    +0.068 C 
ATOM      3  C   UNL     1      11.360  -0.739  -0.778  0.00  0.00    +0.045 C 
ATOM      4  C   UNL     1      12.261  -0.128  -1.857  0.00  0.00    +0.018 C 
ATOM      5  C   UNL     1      13.543  -0.954  -1.976  0.00  0.00    +0.001 C 
ATOM      6  C   UNL     1      14.283  -0.943  -0.637  0.00  0.00    +0.000 C 
ATOM      7  C   UNL     1      13.384  -1.543   0.447  0.00  0.00    +0.001 C 
ATOM      8  C   UNL     1      12.102  -0.718   0.563  0.00  0.00    +0.018 C 
ATOM      9  C   UNL     1      11.040  -2.161  -1.146  0.00  0.00    +0.076 C 
ATOM     10  C   UNL     1       9.787  -2.665  -1.018  0.00  0.00    +0.100 C 
ATOM     11  N   UNL     1       8.758  -1.882  -0.545  0.00  0.00    -0.296 N 
ATOM     12  H   UNL     1       7.946  -2.294  -0.211  0.00  0.00    +0.154 HD
ENDROOT
BRANCH  10  13
ATOM     13  N   UNL     1       9.543  -3.974  -1.358  0.00  0.00    -0.346 N 
ATOM     14  H   UNL     1      10.265  -4.532  -1.688  0.00  0.00    +0.143 HD
ATOM     15  H   UNL     1       8.649  -4.340  -1.268  0.00  0.00    +0.143 HD
ENDBRANCH  10  13
BRANCH   9  16
ATOM     16  C   UNL     1      12.084  -3.005  -1.645  0.00  0.00    +0.099 C 
ATOM     17  N   UNL     1      12.912  -3.674  -2.041  0.00  0.00    -0.191 NA
ENDBRANCH   9  16
BRANCH   2  18
ATOM     18  C   UNL     1      10.191   1.505  -0.670  0.00  0.00    +0.098 C 
ATOM     19  N   UNL     1      10.263   2.639  -0.677  0.00  0.00    -0.191 NA
ENDBRANCH   2  18
BRANCH   1  20
ATOM     20  S   UNL     1       7.441   0.494  -0.406  0.00  0.00    -0.100 S 
BRANCH  20  21
ATOM     21  C   UNL     1       6.083  -0.701  -0.278  0.00  0.00    +0.171 C 
BRANCH  21  23
ATOM     22  N   UNL     1       3.622  -0.651  -0.037  0.00  0.00    -0.284 N 
ATOM     23  C   UNL     1       4.775   0.037  -0.147  0.00  0.00    +0.227 C 
ATOM     24  O   UNL     1       4.761   1.250  -0.141  0.00  0.00    -0.275 OA
ATOM     25  H   UNL     1       3.639  -1.618   0.038  0.00  0.00    +0.155 HD
BRANCH  22  29
ATOM     26  C   UNL     1      -0.019   1.375  -0.023  0.00  0.00    +0.001 A 
ATOM     27  C   UNL     1       1.087   1.947  -0.626  0.00  0.00    +0.002 A 
ATOM     28  C   UNL     1       2.295   1.278  -0.633  0.00  0.00    +0.024 A 
ATOM     29  C   UNL     1       2.399   0.030  -0.032  0.00  0.00    +0.045 A 
ATOM     30  C   UNL     1       1.287  -0.541   0.573  0.00  0.00    +0.076 A 
ATOM     31  C   UNL     1       0.082   0.133   0.576  0.00  0.00    +0.014 A 
BRANCH  30  32
ATOM     32  C   UNL     1       1.396  -1.895   1.226  0.00  0.00    +0.419 C 
ATOM     33  F   UNL     1       0.155  -2.255   1.761  0.00  0.00    -0.166 F 
ATOM     34  F   UNL     1       1.785  -2.842   0.273  0.00  0.00    -0.166 F 
ATOM     35  F   UNL     1       2.349  -1.845   2.249  0.00  0.00    -0.166 F 
ENDBRANCH  30  32
ENDBRANCH  22  29
ENDBRANCH  21  23
ENDBRANCH  20  21
ENDBRANCH   1  20
TORSDOF 8
