REMARK  Name = ZINC57510542
REMARK  5 active torsions:
REMARK  status: ('A' for Active; 'I' for Inactive)
REMARK    1  A    between atoms: C_1  and  C_2
REMARK    2  A    between atoms: C_2  and  N_3
REMARK    3  A    between atoms: C_15  and  C_23
REMARK    4  A    between atoms: C_17  and  C_21
REMARK    5  A    between atoms: C_18  and  N_20
REMARK                            x       y       z     vdW  Elec       q    Type
REMARK                         _______ _______ _______ _____ _____    ______ ____
ROOT
ATOM      1  N   UNL     1      -1.372  -0.511   0.012  0.00  0.00    -0.203 N 
ATOM      2  C   UNL     1      -2.085  -0.668   1.207  0.00  0.00    +0.062 A 
ATOM      3  C   UNL     1      -1.383  -0.965   2.369  0.00  0.00    +0.025 A 
ATOM      4  C   UNL     1      -2.057  -1.135   3.562  0.00  0.00    +0.002 A 
ATOM      5  C   UNL     1      -3.435  -1.009   3.604  0.00  0.00    +0.001 A 
ATOM      6  C   UNL     1      -4.143  -0.711   2.460  0.00  0.00    +0.013 A 
ATOM      7  C   UNL     1      -3.473  -0.531   1.242  0.00  0.00    +0.042 A 
ATOM      8  C   UNL     1      -4.286  -0.191   0.050  0.00  0.00    +0.162 C 
ATOM      9  C   UNL     1      -3.808  -0.326  -1.183  0.00  0.00    +0.141 C 
ATOM     10  S   UNL     1      -2.159  -0.921  -1.397  0.00  0.00    +0.075 S 
ATOM     11  O   UNL     1      -1.573  -0.153  -2.439  0.00  0.00    -0.150 OA
ATOM     12  O   UNL     1      -2.234  -2.339  -1.434  0.00  0.00    -0.150 OA
ATOM     13  C   UNL     1      -4.630   0.016  -2.394  0.00  0.00    +0.118 C 
ATOM     14  C   UNL     1      -6.088   0.086  -2.028  0.00  0.00    +0.099 C 
ATOM     15  C   UNL     1      -6.461   0.207  -0.729  0.00  0.00    +0.199 C 
ATOM     16  O   UNL     1      -5.549   0.271   0.254  0.00  0.00    -0.439 OA
ENDROOT
BRANCH  13  17
ATOM     17  C   UNL     1      -4.190   1.351  -2.936  0.00  0.00    -0.032 A 
ATOM     18  C   UNL     1      -4.268   2.480  -2.141  0.00  0.00    +0.005 A 
ATOM     19  C   UNL     1      -3.864   3.705  -2.638  0.00  0.00    +0.001 A 
ATOM     20  C   UNL     1      -3.382   3.802  -3.930  0.00  0.00    +0.015 A 
ATOM     21  C   UNL     1      -3.303   2.673  -4.725  0.00  0.00    +0.018 A 
ATOM     22  C   UNL     1      -3.702   1.446  -4.226  0.00  0.00    +0.020 A 
ATOM     23 BR   UNL     1      -2.644   2.805  -6.492  0.00  0.00    -0.050 Br
ENDBRANCH  13  17
BRANCH  15  24
ATOM     24  N   UNL     1      -7.796   0.266  -0.414  0.00  0.00    -0.328 N 
ATOM     25  H   UNL     1      -8.462   0.221  -1.118  0.00  0.00    +0.145 HD
ATOM     26  H   UNL     1      -8.072   0.353   0.511  0.00  0.00    +0.145 HD
ENDBRANCH  15  24
BRANCH   1  28
ATOM     27  C   UNL     1      -0.019   1.526   0.010  0.00  0.00    +0.026 C 
ATOM     28  C   UNL     1       0.002  -0.004   0.002  0.00  0.00    +0.128 C 
ENDBRANCH   1  28
BRANCH  14  29
ATOM     29  C   UNL     1      -7.085   0.024  -3.054  0.00  0.00    +0.101 C 
ATOM     30  N   UNL     1      -7.876  -0.025  -3.868  0.00  0.00    -0.191 NA
ENDBRANCH  14  29
TORSDOF 4
