REMARK  Name = ZINC26353798
REMARK  4 active torsions:
REMARK  status: ('A' for Active; 'I' for Inactive)
REMARK    1  A    between atoms: C_3  and  N_20
REMARK    2  A    between atoms: C_6  and  N_7
REMARK    3  A    between atoms: C_8  and  C_10
REMARK    4  A    between atoms: C_11  and  C_12
REMARK                            x       y       z     vdW  Elec       q    Type
REMARK                         _______ _______ _______ _____ _____    ______ ____
ROOT
ATOM      1  N   UNL     1      -4.412   3.766   0.756  0.00  0.00    -0.282 N 
ATOM      2  C   UNL     1      -4.455   5.112   0.808  0.00  0.00    +0.241 C 
ATOM      3  O   UNL     1      -3.423   5.756   0.768  0.00  0.00    -0.270 OA
ATOM      4  H   UNL     1      -5.337   3.181   0.868  0.00  0.00    +0.155 HD
ENDROOT
BRANCH   1  10
ATOM      5  C   UNL     1      -3.141   1.941  -0.188  0.00  0.00    +0.025 A 
ATOM      6  C   UNL     1      -1.936   1.296  -0.381  0.00  0.00    +0.025 A 
ATOM      7  C   UNL     1      -0.773   1.818   0.170  0.00  0.00    +0.035 A 
ATOM      8  C   UNL     1      -0.823   2.985   0.921  0.00  0.00    +0.025 A 
ATOM      9  C   UNL     1      -2.027   3.633   1.110  0.00  0.00    +0.025 A 
ATOM     10  C   UNL     1      -3.190   3.112   0.559  0.00  0.00    +0.034 A 
BRANCH   7  11
ATOM     11  N   UNL     1       0.450   1.163  -0.026  0.00  0.00    -0.270 N 
ATOM     12  C   UNL     1       0.699   0.535  -1.193  0.00  0.00    +0.301 C 
ATOM     13  O   UNL     1      -0.167   0.470  -2.045  0.00  0.00    -0.253 OA
ATOM     14  N   UNL     1       1.907  -0.020  -1.415  0.00  0.00    -0.313 N 
ATOM     15  H   UNL     1       1.207   1.160   0.772  0.00  0.00    +0.156 HD
ATOM     16  H   UNL     1       2.110  -0.532  -2.368  0.00  0.00    +0.146 HD
ATOM     17  H   UNL     1       2.689   0.040  -0.645  0.00  0.00    +0.146 HD
ENDBRANCH   7  11
ENDBRANCH   1  10
BRANCH   2  18
ATOM     18  C   UNL     1      -5.743   5.799   0.912  0.00  0.00    +0.068 C 
ATOM     19  C   UNL     1      -5.786   7.146   0.965  0.00  0.00    +0.016 C 
BRANCH  19  20
ATOM     20  C   UNL     1      -7.080   7.837   1.070  0.00  0.00    +0.011 A 
ATOM     21  C   UNL     1      -8.269   7.101   1.115  0.00  0.00    +0.026 A 
ATOM     22  C   UNL     1      -9.478   7.756   1.214  0.00  0.00    +0.019 A 
ATOM     23  C   UNL     1      -9.520   9.140   1.268  0.00  0.00    +0.018 A 
ATOM     24  C   UNL     1      -8.351   9.876   1.224  0.00  0.00    +0.040 A 
ATOM     25  C   UNL     1      -7.129   9.236   1.130  0.00  0.00    +0.131 A 
ATOM     26  F   UNL     1      -5.987   9.956   1.092  0.00  0.00    -0.205 F 
ATOM     27 BR   UNL     1     -11.086   6.762   1.276  0.00  0.00    -0.050 Br
ENDBRANCH  19  20
ENDBRANCH   2  18
TORSDOF 4
