REMARK  Name = ZINC66977462
REMARK  6 active torsions:
REMARK  status: ('A' for Active; 'I' for Inactive)
REMARK    1  A    between atoms: C_10  and  C_11
REMARK    2  A    between atoms: C_10  and  O_27
REMARK    3  A    between atoms: C_11  and  N_12
REMARK    4  A    between atoms: N_15  and  C_16
REMARK    5  A    between atoms: C_16  and  C_17
REMARK    6  A    between atoms: N_19  and  C_20
REMARK                            x       y       z     vdW  Elec       q    Type
REMARK                         _______ _______ _______ _____ _____    ______ ____
ROOT
ATOM      1  N   UNL     1       4.262   1.612  -0.900  0.00  0.00    -0.296 N 
ATOM      2  C   UNL     1       5.090   2.432  -1.577  0.00  0.00    +0.300 C 
ATOM      3  O   UNL     1       5.755   1.998  -2.499  0.00  0.00    -0.253 OA
ATOM      4  N   UNL     1       5.181   3.732  -1.234  0.00  0.00    -0.291 N 
ATOM      5  H   UNL     1       3.732   1.957  -0.165  0.00  0.00    +0.150 HD
ATOM      6  H   UNL     1       4.650   4.077  -0.499  0.00  0.00    +0.151 HD
ENDROOT
BRANCH   1   7
ATOM      7  C   UNL     1       4.163   0.199  -1.274  0.00  0.00    +0.145 C 
BRANCH   7  17
ATOM      8  C   UNL     1       2.952  -4.615  -1.510  0.00  0.00    +0.000 A 
ATOM      9  C   UNL     1       3.063  -3.627  -2.471  0.00  0.00    +0.000 A 
ATOM     10  C   UNL     1       3.115  -2.303  -2.089  0.00  0.00    +0.007 A 
ATOM     11  C   UNL     1       3.058  -1.953  -0.745  0.00  0.00    -0.011 A 
ATOM     12  C   UNL     1       2.953  -2.937   0.211  0.00  0.00    -0.041 A 
ATOM     13  C   UNL     1       2.897  -4.270  -0.176  0.00  0.00    +0.004 A 
ATOM     14  C   UNL     1       2.903  -2.632   1.686  0.00  0.00    +0.035 C 
ATOM     15  C   UNL     1       2.543  -1.167   1.919  0.00  0.00    +0.008 C 
ATOM     16  C   UNL     1       3.478  -0.297   1.071  0.00  0.00    +0.041 C 
ATOM     17  C   UNL     1       3.112  -0.488  -0.399  0.00  0.00    +0.107 C 
BRANCH  17  18
ATOM     18  O   UNL     1       1.835   0.102  -0.647  0.00  0.00    -0.382 OA
ATOM     19  H   UNL     1       1.543   0.035  -1.567  0.00  0.00    +0.211 HD
ENDBRANCH  17  18
ENDBRANCH   7  17
ENDBRANCH   1   7
BRANCH   4  20
ATOM     20  C   UNL     1       6.081   4.623  -1.970  0.00  0.00    +0.202 C 
BRANCH  20  21
ATOM     21  C   UNL     1       5.996   6.012  -1.392  0.00  0.00    +0.234 C 
ATOM     22  O   UNL     1       5.256   6.235  -0.457  0.00  0.00    -0.274 OA
ATOM     23  N   UNL     1       6.742   7.006  -1.913  0.00  0.00    -0.284 N 
ATOM     24  H   UNL     1       7.276   6.846  -2.707  0.00  0.00    +0.155 HD
BRANCH  23  25
ATOM     25  C   UNL     1       6.745   8.269  -1.310  0.00  0.00    +0.034 A 
ATOM     26  C   UNL     1       6.880   9.411  -2.089  0.00  0.00    +0.025 A 
ATOM     27  C   UNL     1       6.883  10.656  -1.492  0.00  0.00    +0.022 A 
ATOM     28  C   UNL     1       6.752  10.766  -0.118  0.00  0.00    +0.041 A 
ATOM     29  C   UNL     1       6.618   9.630   0.660  0.00  0.00    +0.022 A 
ATOM     30  C   UNL     1       6.608   8.383   0.067  0.00  0.00    +0.025 A 
ATOM     31 CL   UNL     1       6.757  12.333   0.630  0.00  0.00    -0.084 Cl
ENDBRANCH  23  25
ENDBRANCH  20  21
ENDBRANCH   4  20
TORSDOF 6
