REMARK  Name = ZINC39468855
REMARK  4 active torsions:
REMARK  status: ('A' for Active; 'I' for Inactive)
REMARK    1  A    between atoms: C_1  and  O_2
REMARK    2  A    between atoms: O_2  and  C_3
REMARK    3  A    between atoms: C_20  and  S_21
REMARK    4  A    between atoms: S_21  and  C_22
REMARK                            x       y       z     vdW  Elec       q    Type
REMARK                         _______ _______ _______ _____ _____    ______ ____
ROOT
ATOM      1  C   UNL     1      -1.200  -0.637   0.010  0.00  0.00    +0.130 C 
ATOM      2  C   UNL     1      -2.330   0.070   0.019  0.00  0.00    +0.024 C 
ATOM      3  C   UNL     1      -3.660  -0.647   0.017  0.00  0.00    +0.019 C 
ATOM      4  C   UNL     1      -3.979  -1.091   1.446  0.00  0.00    -0.002 C 
ATOM      5  C   UNL     1      -5.256  -1.939   1.473  0.00  0.00    -0.020 C 
ATOM      6  C   UNL     1      -5.496  -2.344   2.933  0.00  0.00    +0.159 C 
ATOM      7  O   UNL     1      -6.716  -3.101   3.028  0.00  0.00    -0.297 OA
ATOM      8  P   UNL     1      -6.912  -4.350   2.005  0.00  0.00    +0.421 P 
ATOM      9  O   UNL     1      -8.413  -4.678   1.839  0.00  0.00    -0.239 OA
ATOM     10  N   UNL     1      -6.277  -3.838   0.570  0.00  0.00    -0.267 NA
ATOM     11  N   UNL     1      -5.103  -3.115   0.614  0.00  0.00    +0.399 N 
ATOM     12  C   UNL     1      -4.833  -2.703  -0.773  0.00  0.00    -0.046 C 
ATOM     13  C   UNL     1      -3.553  -1.883  -0.881  0.00  0.00    +0.006 C 
ATOM     14  C   UNL     1      -2.380  -2.720  -0.445  0.00  0.00    -0.006 C 
ATOM     15  C   UNL     1      -1.262  -2.116   0.003  0.00  0.00    +0.045 C 
ATOM     16  O   UNL     1      -6.148  -5.590   2.520  0.00  0.00    -0.128 OA
ATOM     17  H   UNL     1      -6.713  -4.041  -0.272  0.00  0.00    +0.113 HD
ATOM     18  H   UNL     1      -4.354  -3.695   0.961  0.00  0.00    -0.055 HD
ENDROOT
BRANCH   1  20
ATOM     19  C   UNL     1      -0.017   1.425   0.010  0.00  0.00    +0.277 C 
ATOM     20  O   UNL     1       0.002  -0.004   0.002  0.00  0.00    -0.494 OA
ENDBRANCH   1  20
BRANCH  15  21
ATOM     21  S   UNL     1       0.118  -3.068   0.545  0.00  0.00    -0.125 S 
ATOM     22  C   UNL     1      -0.431  -4.786   0.353  0.00  0.00    +0.090 C 
ENDBRANCH  15  21
TORSDOF 2
