REMARK  Name = ZINC62041764
REMARK  7 active torsions:
REMARK  status: ('A' for Active; 'I' for Inactive)
REMARK    1  A    between atoms: C_1  and  C_2
REMARK    2  A    between atoms: C_9  and  C_22
REMARK    3  A    between atoms: C_10  and  C_11
REMARK    4  A    between atoms: C_11  and  C_12
REMARK    5  A    between atoms: N_14  and  C_15
REMARK    6  A    between atoms: C_25  and  C_29
REMARK    7  A    between atoms: C_26  and  C_28
REMARK                            x       y       z     vdW  Elec       q    Type
REMARK                         _______ _______ _______ _____ _____    ______ ____
ROOT
ATOM      1  C   UNL     1       0.258   1.223   1.047  0.00  0.00    +0.044 C 
ATOM      2  C   UNL     1       0.215  -0.268   0.832  0.00  0.00    -0.046 A 
ATOM      3  C   UNL     1       0.229  -0.795  -0.470  0.00  0.00    +0.021 A 
ATOM      4  C   UNL     1       0.190  -2.129  -0.666  0.00  0.00    +0.093 A 
ATOM      5  N   UNL     1       0.137  -2.987   0.396  0.00  0.00    -0.304 N 
ATOM      6  C   UNL     1       0.122  -2.503   1.679  0.00  0.00    +0.116 A 
ATOM      7  C   UNL     1       0.167  -1.111   1.899  0.00  0.00    +0.048 A 
ATOM      8  N   UNL     1       0.069  -3.533   2.511  0.00  0.00    -0.339 N 
ATOM      9  C   UNL     1       0.049  -4.671   1.800  0.00  0.00    +0.068 A 
ATOM     10  C   UNL     1       0.090  -4.350   0.477  0.00  0.00    +0.058 A 
ATOM     11  H   UNL     1       0.048  -3.473   3.479  0.00  0.00    +0.167 HD
ENDROOT
BRANCH   9  12
ATOM     12  C   UNL     1      -0.009  -6.044   2.360  0.00  0.00    +0.000 A 
ATOM     13  C   UNL     1       0.828  -7.040   1.859  0.00  0.00    +0.010 A 
ATOM     14  C   UNL     1       0.770  -8.315   2.383  0.00  0.00    +0.004 A 
ATOM     15  C   UNL     1      -0.117  -8.606   3.404  0.00  0.00    -0.047 A 
ATOM     16  C   UNL     1      -0.950  -7.622   3.905  0.00  0.00    -0.047 A 
ATOM     17  C   UNL     1      -0.896  -6.342   3.392  0.00  0.00    +0.013 A 
ATOM     18  C   UNL     1      -1.914  -7.947   5.017  0.00  0.00    +0.044 C 
ATOM     19  C   UNL     1      -0.176 -10.000   3.972  0.00  0.00    +0.044 C 
ENDBRANCH   9  12
BRANCH  10  20
ATOM     20  C   UNL     1       0.086  -5.316  -0.680  0.00  0.00    +0.152 C 
BRANCH  20  21
ATOM     21  C   UNL     1       1.505  -5.685  -1.031  0.00  0.00    +0.223 C 
ATOM     22  O   UNL     1       2.428  -5.210  -0.404  0.00  0.00    -0.275 OA
ATOM     23  N   UNL     1       1.747  -6.543  -2.042  0.00  0.00    -0.285 N 
ATOM     24  H   UNL     1       1.009  -6.982  -2.493  0.00  0.00    +0.155 HD
BRANCH  23  25
ATOM     25  C   UNL     1       3.064  -6.801  -2.441  0.00  0.00    +0.033 A 
ATOM     26  C   UNL     1       3.413  -8.057  -2.918  0.00  0.00    +0.024 A 
ATOM     27  C   UNL     1       4.713  -8.308  -3.311  0.00  0.00    +0.016 A 
ATOM     28  C   UNL     1       5.667  -7.310  -3.229  0.00  0.00    +0.013 A 
ATOM     29  C   UNL     1       5.322  -6.058  -2.753  0.00  0.00    +0.016 A 
ATOM     30  C   UNL     1       4.022  -5.799  -2.364  0.00  0.00    +0.024 A 
ATOM     31  I   UNL     1       7.638  -7.696  -3.825  0.00  0.00    -0.044 I 
ENDBRANCH  23  25
ENDBRANCH  20  21
ENDBRANCH  10  20
TORSDOF 4
