REMARK  Name = ZINC01740072
REMARK  3 active torsions:
REMARK  status: ('A' for Active; 'I' for Inactive)
REMARK    1  A    between atoms: C_7  and  C_11
REMARK    2  A    between atoms: N_12  and  N_13
REMARK    3  A    between atoms: C_14  and  C_16
REMARK                            x       y       z     vdW  Elec       q    Type
REMARK                         _______ _______ _______ _____ _____    ______ ____
ROOT
ATOM      1  C   UNL     1      -2.528   1.367   0.020  0.00  0.00    +0.140 C 
ATOM      2  N   UNL     1      -3.507   2.220   0.028  0.00  0.00    -0.188 NA
ENDROOT
BRANCH   1   9
ATOM      3  C   UNL     1      -0.614   5.641   0.038  0.00  0.00    +0.001 A 
ATOM      4  C   UNL     1       0.773   5.599   0.025  0.00  0.00    +0.002 A 
ATOM      5  C   UNL     1       1.439   4.394   0.012  0.00  0.00    +0.026 A 
ATOM      6  C   UNL     1       0.719   3.203   0.012  0.00  0.00    +0.047 A 
ATOM      7  C   UNL     1      -0.685   3.247   0.026  0.00  0.00    +0.008 A 
ATOM      8  C   UNL     1      -1.345   4.474   0.039  0.00  0.00    +0.010 A 
ATOM      9  C   UNL     1      -1.135   1.844   0.017  0.00  0.00    +0.020 A 
ATOM     10  C   UNL     1      -0.013   1.076   0.008  0.00  0.00    +0.093 A 
ATOM     11  N   UNL     1       1.091   1.875   0.002  0.00  0.00    -0.360 N 
ATOM     12  H   UNL     1       2.007   1.556  -0.009  0.00  0.00    +0.165 HD
ENDBRANCH   1   9
BRANCH   2  13
ATOM     13  N   UNL     1      -4.832   1.766   0.031  0.00  0.00    -0.205 N 
ATOM     14  C   UNL     1      -5.848   2.652   0.040  0.00  0.00    +0.261 C 
ATOM     15  O   UNL     1      -5.615   3.843   0.045  0.00  0.00    -0.271 OA
ATOM     16  H   UNL     1      -5.019   0.814   0.026  0.00  0.00    +0.177 HD
BRANCH  14  17
ATOM     17  C   UNL     1      -7.274   2.163   0.042  0.00  0.00    +0.205 C 
ATOM     18  C   UNL     1      -7.566   1.407   1.353  0.00  0.00    +0.043 C 
ATOM     19  C   UNL     1      -8.746   2.185   1.985  0.00  0.00    +0.031 C 
ATOM     20  C   UNL     1      -9.339   2.926   0.760  0.00  0.00    +0.161 C 
ATOM     21  O   UNL     1      -8.174   3.283  -0.015  0.00  0.00    -0.367 OA
ENDBRANCH  14  17
ENDBRANCH   2  13
TORSDOF 3
