REMARK  Name = ZINC54339653
REMARK  7 active torsions:
REMARK  status: ('A' for Active; 'I' for Inactive)
REMARK    1  A    between atoms: C_1  and  C_2
REMARK    2  A    between atoms: C_2  and  C_4
REMARK    3  A    between atoms: C_2  and  C_6
REMARK    4  A    between atoms: C_4  and  N_5
REMARK    5  A    between atoms: N_8  and  C_9
REMARK    6  A    between atoms: C_12  and  S_16
REMARK    7  A    between atoms: S_16  and  N_19
REMARK                            x       y       z     vdW  Elec       q    Type
REMARK                         _______ _______ _______ _____ _____    ______ ____
ROOT
ATOM      1  C   UNL     1       2.664  -0.537   2.609  0.00  0.00    +0.048 A 
ATOM      2  C   UNL     1       1.925  -0.778   3.759  0.00  0.00    +0.026 A 
ATOM      3  C   UNL     1       2.564  -1.149   4.926  0.00  0.00    +0.030 A 
ATOM      4  C   UNL     1       3.941  -1.280   4.949  0.00  0.00    +0.106 A 
ATOM      5  C   UNL     1       4.681  -1.040   3.807  0.00  0.00    +0.045 A 
ATOM      6  C   UNL     1       4.047  -0.675   2.635  0.00  0.00    +0.041 A 
ATOM      7 BR   UNL     1       5.059  -0.354   1.070  0.00  0.00    -0.048 Br
ENDROOT
BRANCH   1  10
ATOM      8  C   UNL     1       0.730  -0.500   1.224  0.00  0.00    +0.218 C 
ATOM      9  O   UNL     1       0.159  -1.215   2.021  0.00  0.00    -0.275 OA
ATOM     10  N   UNL     1       2.019  -0.161   1.426  0.00  0.00    -0.284 N 
ATOM     11  H   UNL     1       2.499   0.343   0.750  0.00  0.00    +0.155 HD
BRANCH   8  13
ATOM     12  C   UNL     1      -0.021   1.538   0.029  0.00  0.00    +0.015 C 
ATOM     13  C   UNL     1      -0.002   0.009   0.009  0.00  0.00    +0.055 C 
BRANCH  13  14
ATOM     14  C   UNL     1      -1.438  -0.519   0.021  0.00  0.00    -0.074 C 
BRANCH  14  15
ATOM     15  N   UNL     1      -2.115  -0.123  -1.221  0.00  0.00    +0.379 N 
ATOM     16  H   UNL     1      -2.128   0.883  -1.291  0.00  0.00    -0.090 HD
ATOM     17  H   UNL     1      -1.621  -0.509  -2.011  0.00  0.00    -0.090 HD
ATOM     18  H   UNL     1      -3.062  -0.471  -1.213  0.00  0.00    -0.090 HD
ENDBRANCH  14  15
ENDBRANCH  13  14
ENDBRANCH   8  13
ENDBRANCH   1  10
BRANCH   4  19
ATOM     19  S   UNL     1       4.753  -1.753   6.440  0.00  0.00    +0.056 S 
ATOM     20  O   UNL     1       6.088  -1.276   6.344  0.00  0.00    -0.153 OA
ATOM     21  O   UNL     1       3.889  -1.389   7.507  0.00  0.00    -0.153 OA
BRANCH  19  22
ATOM     22  N   UNL     1       4.841  -3.407   6.446  0.00  0.00    -0.204 NA
ATOM     23  H   UNL     1       4.476  -3.915   5.705  0.00  0.00    +0.144 HD
ATOM     24  H   UNL     1       5.259  -3.868   7.191  0.00  0.00    +0.144 HD
ENDBRANCH  19  22
ENDBRANCH   4  19
TORSDOF 6
