REMARK  Name = ZINC00633614
REMARK  4 active torsions:
REMARK  status: ('A' for Active; 'I' for Inactive)
REMARK    1  A    between atoms: C_6  and  C_7
REMARK    2  A    between atoms: C_7  and  C_9
REMARK    3  A    between atoms: C_9  and  C_10
REMARK    4  A    between atoms: C_10  and  O_22
REMARK                            x       y       z     vdW  Elec       q    Type
REMARK                         _______ _______ _______ _____ _____    ______ ____
ROOT
ATOM      1  C   UNL     1      -1.135   8.216   0.056  0.00  0.00    +0.177 C 
ATOM      2  C   UNL     1      -2.440   8.978   0.026  0.00  0.00    +0.034 A 
ATOM      3  C   UNL     1      -3.514   9.032   0.888  0.00  0.00    +0.049 A 
ATOM      4  C   UNL     1      -4.598   9.840   0.591  0.00  0.00    +0.022 A 
ATOM      5  C   UNL     1      -4.599  10.590  -0.571  0.00  0.00    +0.023 A 
ATOM      6  C   UNL     1      -3.525  10.538  -1.437  0.00  0.00    +0.063 A 
ATOM      7  C   UNL     1      -2.429   9.726  -1.144  0.00  0.00    +0.060 A 
ATOM      8  N   UNL     1      -1.244   9.505  -1.847  0.00  0.00    -0.281 N 
ATOM      9  C   UNL     1      -0.430   8.637  -1.216  0.00  0.00    +0.254 C 
ATOM     10  O   UNL     1       0.661   8.263  -1.593  0.00  0.00    -0.272 OA
ATOM     11 CL   UNL     1      -3.538  11.483  -2.892  0.00  0.00    -0.082 Cl
ATOM     12 CL   UNL     1      -3.507   8.088   2.345  0.00  0.00    -0.083 Cl
ATOM     13  H   UNL     1      -1.029   9.929  -2.693  0.00  0.00    +0.155 HD
ENDROOT
BRANCH   1  14
ATOM     14  O   UNL     1      -0.365   8.587   1.202  0.00  0.00    -0.374 OA
ATOM     15  H   UNL     1       0.495   8.149   1.256  0.00  0.00    +0.211 HD
ENDBRANCH   1  14
BRANCH   1  16
ATOM     16  C   UNL     1      -1.394   6.708   0.051  0.00  0.00    +0.129 C 
BRANCH  16  17
ATOM     17  C   UNL     1      -0.079   5.973   0.034  0.00  0.00    +0.167 C 
ATOM     18  O   UNL     1       0.963   6.593   0.027  0.00  0.00    -0.292 OA
BRANCH  17  24
ATOM     19  C   UNL     1       1.160   3.816   0.011  0.00  0.00    +0.013 A 
ATOM     20  C   UNL     1       1.171   2.438   0.004  0.00  0.00    +0.020 A 
ATOM     21  C   UNL     1      -0.021   1.732   0.012  0.00  0.00    +0.041 A 
ATOM     22  C   UNL     1      -1.233   2.405   0.021  0.00  0.00    +0.020 A 
ATOM     23  C   UNL     1      -1.259   3.783   0.034  0.00  0.00    +0.013 A 
ATOM     24  C   UNL     1      -0.059   4.502   0.027  0.00  0.00    +0.018 A 
ATOM     25 CL   UNL     1       0.002  -0.004   0.002  0.00  0.00    -0.084 Cl
ENDBRANCH  17  24
ENDBRANCH  16  17
ENDBRANCH   1  16
TORSDOF 4
