REMARK  Name = ZINC37390247
REMARK  8 active torsions:
REMARK  status: ('A' for Active; 'I' for Inactive)
REMARK    1  A    between atoms: C_1  and  C_2
REMARK    2  A    between atoms: C_4  and  S_17
REMARK    3  A    between atoms: C_6  and  N_9
REMARK    4  A    between atoms: C_7  and  C_8
REMARK    5  A    between atoms: C_10  and  C_12
REMARK    6  A    between atoms: C_12  and  N_13
REMARK    7  A    between atoms: N_13  and  C_14
REMARK    8  A    between atoms: S_17  and  N_20
REMARK                            x       y       z     vdW  Elec       q    Type
REMARK                         _______ _______ _______ _____ _____    ______ ____
ROOT
ATOM      1  C   UNL     1      -0.044   1.494  -0.004  0.00  0.00    +0.044 C 
ATOM      2  C   UNL     1      -0.021  -0.012  -0.007  0.00  0.00    -0.044 A 
ATOM      3  C   UNL     1      -0.024  -0.701  -1.207  0.00  0.00    +0.032 A 
ATOM      4  C   UNL     1      -0.002  -2.083  -1.214  0.00  0.00    +0.107 A 
ATOM      5  C   UNL     1       0.024  -2.781  -0.022  0.00  0.00    +0.052 A 
ATOM      6  C   UNL     1       0.027  -2.093   1.184  0.00  0.00    +0.038 A 
ATOM      7  C   UNL     1       0.010  -0.704   1.188  0.00  0.00    -0.026 A 
ATOM      8  C   UNL     1       0.019   0.047   2.494  0.00  0.00    +0.046 C 
ENDROOT
BRANCH   6   9
ATOM      9  N   UNL     1       0.052  -2.797   2.393  0.00  0.00    -0.287 N 
ATOM     10  C   UNL     1       0.563  -4.044   2.436  0.00  0.00    +0.200 C 
ATOM     11  O   UNL     1       1.091  -4.518   1.452  0.00  0.00    -0.278 OA
ATOM     12  H   UNL     1      -0.298  -2.388   3.200  0.00  0.00    +0.155 HD
BRANCH  10  13
ATOM     13  C   UNL     1       0.477  -4.849   3.707  0.00  0.00    +0.015 C 
BRANCH  13  14
ATOM     14  N   UNL     1       1.101  -6.163   3.496  0.00  0.00    +0.387 N 
ATOM     15  H   UNL     1       0.618  -6.650   2.756  0.00  0.00    -0.085 HD
ATOM     16  H   UNL     1       2.069  -6.039   3.241  0.00  0.00    -0.085 HD
BRANCH  14  17
ATOM     17  C   UNL     1       1.018  -6.948   4.735  0.00  0.00    -0.071 C 
ATOM     18  C   UNL     1       2.332  -7.333   5.417  0.00  0.00    -0.017 C 
ATOM     19  C   UNL     1       1.509  -8.396   4.688  0.00  0.00    -0.017 C 
ENDBRANCH  14  17
ENDBRANCH  13  14
ENDBRANCH  10  13
ENDBRANCH   6   9
BRANCH   4  20
ATOM     20  S   UNL     1      -0.007  -2.955  -2.745  0.00  0.00    +0.056 S 
ATOM     21  O   UNL     1      -0.534  -4.247  -2.475  0.00  0.00    -0.153 OA
ATOM     22  O   UNL     1      -0.583  -2.083  -3.707  0.00  0.00    -0.153 OA
BRANCH  20  23
ATOM     23  N   UNL     1       1.574  -3.172  -3.190  0.00  0.00    -0.204 NA
ATOM     24  H   UNL     1       2.287  -2.835  -2.626  0.00  0.00    +0.144 HD
ATOM     25  H   UNL     1       1.786  -3.637  -4.014  0.00  0.00    +0.144 HD
ENDBRANCH  20  23
ENDBRANCH   4  20
TORSDOF 6
