REMARK  Name = ZINC35342813
REMARK  4 active torsions:
REMARK  status: ('A' for Active; 'I' for Inactive)
REMARK    1  A    between atoms: C_1  and  C_2
REMARK    2  A    between atoms: C_6  and  O_12
REMARK    3  A    between atoms: C_7  and  N_11
REMARK    4  A    between atoms: O_12  and  C_13
REMARK                            x       y       z     vdW  Elec       q    Type
REMARK                         _______ _______ _______ _____ _____    ______ ____
ROOT
ATOM      1  C   UNL     1      -2.193   1.105   0.057  0.00  0.00    +0.073 C 
ATOM      2  C   UNL     1      -1.708  -0.322   0.038  0.00  0.00    +0.076 A 
ATOM      3  N   UNL     1      -1.431  -1.079  -0.989  0.00  0.00    -0.244 NA
ATOM      4  C   UNL     1      -1.000  -2.353  -0.861  0.00  0.00    +0.082 A 
ATOM      5  C   UNL     1      -0.670  -3.270  -1.889  0.00  0.00    +0.077 A 
ATOM      6  C   UNL     1      -0.244  -4.539  -1.587  0.00  0.00    +0.151 A 
ATOM      7  C   UNL     1      -0.122  -4.970  -0.262  0.00  0.00    +0.069 A 
ATOM      8  C   UNL     1      -0.439  -4.094   0.765  0.00  0.00    +0.043 A 
ATOM      9  C   UNL     1      -0.865  -2.822   0.465  0.00  0.00    +0.041 A 
ATOM     10  S   UNL     1      -1.357  -1.405   1.416  0.00  0.00    -0.072 S 
ENDROOT
BRANCH   7  11
ATOM     11  N   UNL     1       0.314  -6.269   0.024  0.00  0.00    -0.355 N 
ATOM     12  H   UNL     1       0.533  -6.877  -0.700  0.00  0.00    +0.142 HD
ATOM     13  H   UNL     1       0.396  -6.562   0.945  0.00  0.00    +0.142 HD
ENDBRANCH   7  11
BRANCH   6  14
ATOM     14  O   UNL     1       0.065  -5.396  -2.598  0.00  0.00    -0.454 OA
BRANCH  14  15
ATOM     15  C   UNL     1      -0.052  -4.945  -3.874  0.00  0.00    +0.129 A 
ATOM     16  C   UNL     1       1.029  -4.337  -4.498  0.00  0.00    +0.047 A 
ATOM     17  C   UNL     1       0.908  -3.880  -5.795  0.00  0.00    +0.019 A 
ATOM     18  C   UNL     1      -0.289  -4.027  -6.473  0.00  0.00    +0.018 A 
ATOM     19  C   UNL     1      -1.367  -4.632  -5.854  0.00  0.00    +0.019 A 
ATOM     20  C   UNL     1      -1.249  -5.097  -4.558  0.00  0.00    +0.047 A 
ATOM     21 BR   UNL     1      -0.451  -3.399  -8.250  0.00  0.00    -0.050 Br
ENDBRANCH  14  15
ENDBRANCH   6  14
TORSDOF 3
