REMARK  Name = ZINC17100356
REMARK  8 active torsions:
REMARK  status: ('A' for Active; 'I' for Inactive)
REMARK    1  A    between atoms: C_1  and  C_2
REMARK    2  A    between atoms: C_2  and  O_3
REMARK    3  A    between atoms: O_3  and  C_4
REMARK    4  A    between atoms: C_14  and  C_18
REMARK    5  A    between atoms: C_14  and  C_19
REMARK    6  A    between atoms: C_16  and  C_17
REMARK    7  A    between atoms: N_20  and  C_25
REMARK    8  A    between atoms: C_28  and  O_31
REMARK                            x       y       z     vdW  Elec       q    Type
REMARK                         _______ _______ _______ _____ _____    ______ ____
ROOT
ATOM      1  C   UNL     1      -3.091   3.756   3.858  0.00  0.00    +0.122 A 
ATOM      2  C   UNL     1      -3.763   3.603   5.063  0.00  0.00    +0.055 A 
ATOM      3  C   UNL     1      -3.959   4.719   5.878  0.00  0.00    +0.003 A 
ATOM      4  C   UNL     1      -3.482   5.946   5.439  0.00  0.00    +0.051 A 
ATOM      5  C   UNL     1      -2.818   6.104   4.241  0.00  0.00    +0.021 A 
ATOM      6  C   UNL     1      -2.621   4.998   3.443  0.00  0.00    +0.054 A 
ATOM      7  C   UNL     1      -2.496   7.563   4.193  0.00  0.00    +0.193 C 
ATOM      8  C   UNL     1      -3.052   8.150   5.462  0.00  0.00    +0.260 C 
ATOM      9  O   UNL     1      -3.003   9.313   5.805  0.00  0.00    -0.271 OA
ATOM     10  N   UNL     1      -3.616   7.130   6.146  0.00  0.00    -0.259 N 
ATOM     11  C   UNL     1      -4.312   7.063   7.443  0.00  0.00    +0.055 C 
ATOM     12  C   UNL     1      -4.828   5.723   7.913  0.00  0.00    +0.002 C 
ATOM     13  C   UNL     1      -4.659   4.631   7.174  0.00  0.00    -0.043 C 
ATOM     14  C   UNL     1      -5.182   3.304   7.660  0.00  0.00    +0.044 C 
ATOM     15  C   UNL     1      -3.353   7.591   8.511  0.00  0.00    +0.036 C 
ATOM     16  C   UNL     1      -5.501   8.023   7.381  0.00  0.00    +0.036 C 
ATOM     17  N   UNL     1      -1.076   7.845   4.008  0.00  0.00    -0.243 N 
ATOM     18  C   UNL     1      -0.658   8.283   2.822  0.00  0.00    +0.231 C 
ATOM     19  O   UNL     1       0.510   8.541   2.623  0.00  0.00    -0.274 OA
ATOM     20  C   UNL     1      -1.701   8.448   1.726  0.00  0.00    +0.168 C 
ATOM     21  S   UNL     1      -3.253   8.361   2.725  0.00  0.00    -0.111 S 
ENDROOT
BRANCH  17  22
ATOM     22  C   UNL     1      -0.170   7.658   5.060  0.00  0.00    +0.039 A 
ATOM     23  C   UNL     1       0.375   6.402   5.292  0.00  0.00    +0.027 A 
ATOM     24  C   UNL     1       1.272   6.219   6.326  0.00  0.00    +0.047 A 
ATOM     25  C   UNL     1       1.621   7.288   7.139  0.00  0.00    +0.117 A 
ATOM     26  C   UNL     1       1.074   8.542   6.910  0.00  0.00    +0.047 A 
ATOM     27  C   UNL     1       0.180   8.727   5.874  0.00  0.00    +0.027 A 
BRANCH  25  28
ATOM     28  O   UNL     1       2.500   7.106   8.160  0.00  0.00    -0.507 OA
ATOM     29  H   UNL     1       2.085   6.860   8.998  0.00  0.00    +0.292 HD
ENDBRANCH  25  28
ENDBRANCH  17  22
BRANCH   1  30
ATOM     30  O   UNL     1      -2.893   2.670   3.064  0.00  0.00    -0.492 OA
BRANCH  30  32
ATOM     31  C   UNL     1      -3.082   0.323   2.519  0.00  0.00    +0.048 C 
ATOM     32  C   UNL     1      -3.397   1.419   3.539  0.00  0.00    +0.225 C 
ENDBRANCH  30  32
ENDBRANCH   1  30
TORSDOF 4
