REMARK  Name = ZINC36742910
REMARK  4 active torsions:
REMARK  status: ('A' for Active; 'I' for Inactive)
REMARK    1  A    between atoms: C_5  and  S_7
REMARK    2  A    between atoms: S_7  and  N_10
REMARK    3  A    between atoms: N_10  and  C_11
REMARK    4  A    between atoms: C_16  and  N_17
REMARK                            x       y       z     vdW  Elec       q    Type
REMARK                         _______ _______ _______ _____ _____    ______ ____
ROOT
ATOM      1  N   UNL     1       1.982  -2.808  -1.454  0.00  0.00    -0.214 N 
ATOM      2  H   UNL     1       1.465  -3.169  -2.191  0.00  0.00    +0.174 HD
ENDROOT
BRANCH   1   3
ATOM      3  C   UNL     1       3.340  -2.504  -1.632  0.00  0.00    +0.072 A 
ATOM      4  C   UNL     1       4.237  -2.702  -0.594  0.00  0.00    +0.076 A 
ATOM      5  C   UNL     1       5.579  -2.401  -0.769  0.00  0.00    +0.168 A 
ATOM      6  C   UNL     1       6.026  -1.900  -1.988  0.00  0.00    +0.168 A 
ATOM      7  C   UNL     1       5.130  -1.702  -3.027  0.00  0.00    +0.074 A 
ATOM      8  C   UNL     1       3.788  -2.009  -2.854  0.00  0.00    +0.051 A 
ATOM      9  O   UNL     1       7.373  -1.688  -1.905  0.00  0.00    -0.453 OA
ATOM     10  C   UNL     1       7.674  -1.676  -0.497  0.00  0.00    +0.466 C 
ATOM     11  O   UNL     1       6.645  -2.502   0.079  0.00  0.00    -0.453 OA
BRANCH   8  12
ATOM     12  N   UNL     1       2.883  -1.814  -3.908  0.00  0.00    -0.356 N 
ATOM     13  H   UNL     1       1.944  -2.025  -3.786  0.00  0.00    +0.142 HD
ATOM     14  H   UNL     1       3.196  -1.469  -4.759  0.00  0.00    +0.142 HD
ENDBRANCH   8  12
ENDBRANCH   1   3
BRANCH   1  15
ATOM     15  S   UNL     1       1.262  -2.552   0.016  0.00  0.00    +0.073 S 
ATOM     16  O   UNL     1      -0.104  -2.914  -0.133  0.00  0.00    -0.150 OA
ATOM     17  O   UNL     1       1.665  -1.259   0.445  0.00  0.00    -0.150 OA
BRANCH  15  22
ATOM     18  C   UNL     1       3.247  -4.148   3.123  0.00  0.00    +0.002 A 
ATOM     19  C   UNL     1       3.076  -5.506   2.928  0.00  0.00    +0.001 A 
ATOM     20  C   UNL     1       2.351  -5.962   1.843  0.00  0.00    +0.017 A 
ATOM     21  C   UNL     1       1.796  -5.060   0.953  0.00  0.00    +0.044 A 
ATOM     22  C   UNL     1       1.968  -3.702   1.149  0.00  0.00    +0.122 A 
ATOM     23  C   UNL     1       2.693  -3.246   2.235  0.00  0.00    +0.030 A 
ATOM     24 BR   UNL     1       0.805  -5.684  -0.531  0.00  0.00    -0.048 Br
ENDBRANCH  15  22
ENDBRANCH   1  15
TORSDOF 4
