REMARK  Name = ZINC47534361
REMARK  4 active torsions:
REMARK  status: ('A' for Active; 'I' for Inactive)
REMARK    1  A    between atoms: C_1  and  C_2
REMARK    2  A    between atoms: C_2  and  C_4
REMARK    3  A    between atoms: C_2  and  N_16
REMARK    4  A    between atoms: C_17  and  C_19
REMARK                            x       y       z     vdW  Elec       q    Type
REMARK                         _______ _______ _______ _____ _____    ______ ____
ROOT
ATOM      1  N   UNL     1      -1.363  -0.532   0.009  0.00  0.00    -0.305 N 
ATOM      2  C   UNL     1      -2.051  -0.643  -1.145  0.00  0.00    +0.245 C 
ATOM      3  O   UNL     1      -1.566  -0.237  -2.182  0.00  0.00    -0.270 OA
ATOM      4  H   UNL     1      -1.778  -0.788   0.848  0.00  0.00    +0.150 HD
ENDROOT
BRANCH   2   5
ATOM      5  C   UNL     1      -3.400  -1.259  -1.147  0.00  0.00    +0.051 A 
ATOM      6  C   UNL     1      -4.011  -1.605   0.024  0.00  0.00    +0.083 A 
ATOM      7  C   UNL     1      -5.341  -2.211  -0.011  0.00  0.00    +0.250 A 
ATOM      8  N   UNL     1      -5.970  -2.431  -1.179  0.00  0.00    -0.322 N 
ATOM      9  C   UNL     1      -5.388  -2.096  -2.382  0.00  0.00    +0.050 A 
ATOM     10  C   UNL     1      -4.112  -1.505  -2.411  0.00  0.00    +0.011 A 
ATOM     11  C   UNL     1      -3.530  -1.163  -3.635  0.00  0.00    +0.011 A 
ATOM     12  C   UNL     1      -4.207  -1.400  -4.798  0.00  0.00    +0.001 A 
ATOM     13  C   UNL     1      -5.469  -1.978  -4.775  0.00  0.00    +0.002 A 
ATOM     14  C   UNL     1      -6.057  -2.333  -3.580  0.00  0.00    +0.026 A 
ATOM     15  O   UNL     1      -5.887  -2.520   1.033  0.00  0.00    -0.268 OA
ATOM     16  H   UNL     1      -6.852  -2.835  -1.174  0.00  0.00    +0.169 HD
ENDBRANCH   2   5
BRANCH   1  18
ATOM     17  C   UNL     1      -0.007   1.503   0.032  0.00  0.00    +0.033 C 
ATOM     18  C   UNL     1       0.012  -0.026  -0.004  0.00  0.00    +0.100 C 
BRANCH  18  19
ATOM     19  C   UNL     1       0.751  -0.548   1.202  0.00  0.00    -0.025 A 
ATOM     20  C   UNL     1       0.107  -0.623   2.425  0.00  0.00    +0.007 A 
ATOM     21  C   UNL     1       0.775  -1.099   3.536  0.00  0.00    +0.028 A 
ATOM     22  C   UNL     1       2.097  -1.504   3.425  0.00  0.00    +0.067 A 
ATOM     23  C   UNL     1       2.746  -1.428   2.191  0.00  0.00    +0.067 A 
ATOM     24  C   UNL     1       2.065  -0.954   1.080  0.00  0.00    +0.033 A 
ATOM     25  N   UNL     1       4.043  -1.897   2.389  0.00  0.00    -0.306 N 
ATOM     26  H   UNL     1       4.732  -1.963   1.710  0.00  0.00    +0.170 HD
ATOM     27  C   UNL     1       4.176  -2.243   3.683  0.00  0.00    +0.325 A 
ATOM     28  O   UNL     1       5.188  -2.690   4.189  0.00  0.00    -0.247 OA
ATOM     29  N   UNL     1       3.019  -2.017   4.334  0.00  0.00    -0.306 N 
ATOM     30  H   UNL     1       2.856  -2.183   5.276  0.00  0.00    +0.170 HD
ENDBRANCH  18  19
ENDBRANCH   1  18
TORSDOF 3
