REMARK  Name = ZINC04096803
REMARK  8 active torsions:
REMARK  status: ('A' for Active; 'I' for Inactive)
REMARK    1  A    between atoms: C_1  and  C_2
REMARK    2  A    between atoms: C_5  and  O_31
REMARK    3  A    between atoms: C_15  and  O_30
REMARK    4  A    between atoms: C_18  and  C_29
REMARK    5  A    between atoms: C_23  and  C_24
REMARK    6  A    between atoms: C_23  and  O_28
REMARK    7  A    between atoms: C_24  and  C_26
REMARK    8  A    between atoms: C_26  and  O_27
REMARK                            x       y       z     vdW  Elec       q    Type
REMARK                         _______ _______ _______ _____ _____    ______ ____
ROOT
ATOM      1  C   UNL     1       4.059   2.515   2.376  0.00  0.00    +0.016 C 
ATOM      2  C   UNL     1       2.872   3.488   2.409  0.00  0.00    -0.005 C 
ATOM      3  C   UNL     1       2.735   4.045   3.820  0.00  0.00    +0.014 C 
ATOM      4  C   UNL     1       3.112   5.526   3.845  0.00  0.00    +0.032 C 
ATOM      5  C   UNL     1       4.485   5.765   3.224  0.00  0.00    +0.119 C 
ATOM      6  C   UNL     1       4.458   5.409   1.734  0.00  0.00    +0.062 C 
ATOM      7  C   UNL     1       3.187   4.621   1.461  0.00  0.00    -0.065 C 
ATOM      8  C   UNL     1       2.459   4.957   0.441  0.00  0.00    -0.027 C 
ATOM      9  C   UNL     1       1.143   4.293   0.117  0.00  0.00    +0.031 C 
ATOM     10  C   UNL     1       0.601   3.738   1.434  0.00  0.00    +0.003 C 
ATOM     11  C   UNL     1       1.630   2.728   1.967  0.00  0.00    +0.031 C 
ATOM     12  C   UNL     1       0.979   1.913   3.076  0.00  0.00    +0.119 C 
ATOM     13  C   UNL     1      -0.093   0.974   2.491  0.00  0.00    +0.041 C 
ATOM     14  C   UNL     1      -0.733   1.582   1.275  0.00  0.00    +0.009 C 
ATOM     15  C   UNL     1      -0.760   3.122   1.342  0.00  0.00    +0.002 C 
ATOM     16  C   UNL     1      -1.600   3.482   0.106  0.00  0.00    +0.008 C 
ATOM     17  C   UNL     1      -2.681   2.369   0.057  0.00  0.00    +0.043 C 
ATOM     18  C   UNL     1      -2.225   1.270   1.052  0.00  0.00    +0.131 C 
ATOM     19  C   UNL     1      -0.013   1.086   0.008  0.00  0.00    +0.015 C 
ENDROOT
BRANCH  18  20
ATOM     20  C   UNL     1      -3.025   1.363   2.318  0.00  0.00    +0.190 C 
ATOM     21  O   UNL     1      -2.689   2.127   3.190  0.00  0.00    -0.292 OA
BRANCH  20  22
ATOM     22  C   UNL     1      -4.248   0.501   2.501  0.00  0.00    +0.233 C 
BRANCH  22  23
ATOM     23  O   UNL     1      -4.833   0.769   3.777  0.00  0.00    -0.387 OA
ATOM     24  H   UNL     1      -5.626   0.249   3.963  0.00  0.00    +0.210 HD
ENDBRANCH  22  23
ENDBRANCH  20  22
ENDBRANCH  18  20
BRANCH  18  25
ATOM     25  O   UNL     1      -2.364  -0.021   0.460  0.00  0.00    -0.380 OA
ATOM     26  H   UNL     1      -3.280  -0.281   0.293  0.00  0.00    +0.211 HD
ENDBRANCH  18  25
BRANCH  12  27
ATOM     27  O   UNL     1       1.944   1.131   3.780  0.00  0.00    -0.391 OA
ATOM     28  H   UNL     1       1.577   0.619   4.513  0.00  0.00    +0.210 HD
ENDBRANCH  12  27
BRANCH   5  29
ATOM     29  O   UNL     1       5.465   4.974   3.896  0.00  0.00    -0.391 OA
ATOM     30  H   UNL     1       6.361   5.080   3.549  0.00  0.00    +0.210 HD
ENDBRANCH   5  29
TORSDOF 6
