REMARK  Name = ZINC39695722
REMARK  6 active torsions:
REMARK  status: ('A' for Active; 'I' for Inactive)
REMARK    1  A    between atoms: C_1  and  C_2
REMARK    2  A    between atoms: C_9  and  C_11
REMARK    3  A    between atoms: C_11  and  C_13
REMARK    4  A    between atoms: C_11  and  N_14
REMARK    5  A    between atoms: C_15  and  C_17
REMARK    6  A    between atoms: C_28  and  C_30
REMARK                            x       y       z     vdW  Elec       q    Type
REMARK                         _______ _______ _______ _____ _____    ______ ____
ROOT
ATOM      1  C   UNL     1       1.254  -8.856   1.284  0.00  0.00    +0.100 C 
ATOM      2  C   UNL     1       0.401  -9.570   0.211  0.00  0.00    +0.121 C 
ATOM      3  N   UNL     1       0.950 -10.945   0.150  0.00  0.00    -0.296 N 
ATOM      4  C   UNL     1       1.240 -11.289   1.562  0.00  0.00    +0.115 C 
ATOM      5  C   UNL     1       1.802  -9.988   2.169  0.00  0.00    -0.004 C 
ATOM      6  C   UNL     1       1.311  -9.821   3.604  0.00  0.00    -0.010 C 
ATOM      7  C   UNL     1       1.916 -10.924   4.477  0.00  0.00    -0.082 C 
ATOM      8  N   UNL     1       3.381 -10.842   4.427  0.00  0.00    +0.379 N 
ATOM      9  C   UNL     1       3.850 -11.096   3.060  0.00  0.00    -0.082 C 
ATOM     10  C   UNL     1       3.327 -10.001   2.126  0.00  0.00    -0.010 C 
ATOM     11  C   UNL     1       1.142 -11.710  -0.943  0.00  0.00    +0.247 C 
ATOM     12  O   UNL     1       0.975 -11.239  -2.051  0.00  0.00    -0.270 OA
ATOM     13  H   UNL     1       3.675  -9.921   4.716  0.00  0.00    -0.086 HD
ATOM     14  H   UNL     1       3.777 -11.530   5.050  0.00  0.00    -0.086 HD
ENDROOT
BRANCH  11  15
ATOM     15  C   UNL     1       1.556 -13.121  -0.794  0.00  0.00    +0.038 A 
ATOM     16  C   UNL     1       1.341 -13.791   0.412  0.00  0.00    +0.013 A 
ATOM     17  C   UNL     1       1.729 -15.108   0.545  0.00  0.00    +0.002 A 
ATOM     18  C   UNL     1       2.333 -15.765  -0.513  0.00  0.00    +0.015 A 
ATOM     19  C   UNL     1       2.550 -15.107  -1.711  0.00  0.00    +0.019 A 
ATOM     20  C   UNL     1       2.160 -13.791  -1.859  0.00  0.00    +0.028 A 
ATOM     21 BR   UNL     1       3.377 -16.014  -3.150  0.00  0.00    -0.050 Br
ENDBRANCH  11  15
BRANCH   1  23
ATOM     22  N   UNL     1       0.936  -6.806   2.631  0.00  0.00    -0.305 N 
ATOM     23  C   UNL     1       0.397  -7.921   2.098  0.00  0.00    +0.219 C 
ATOM     24  O   UNL     1      -0.776  -8.171   2.273  0.00  0.00    -0.275 OA
ATOM     25  H   UNL     1       1.875  -6.606   2.490  0.00  0.00    +0.149 HD
BRANCH  22  26
ATOM     26  C   UNL     1       0.104  -5.897   3.422  0.00  0.00    +0.136 C 
ATOM     27  C   UNL     1      -0.619  -4.924   2.488  0.00  0.00    +0.036 C 
BRANCH  26  36
ATOM     28  C   UNL     1       3.292  -1.960   8.874  0.00  0.00    +0.044 C 
ATOM     29  C   UNL     1       3.080  -2.736   7.600  0.00  0.00    -0.048 A 
ATOM     30  C   UNL     1       4.144  -2.938   6.732  0.00  0.00    +0.005 A 
ATOM     31  C   UNL     1       3.973  -3.639   5.571  0.00  0.00    +0.030 A 
ATOM     32  C   UNL     1       2.716  -4.159   5.251  0.00  0.00    +0.089 A 
ATOM     33  C   UNL     1       1.639  -3.955   6.130  0.00  0.00    +0.067 A 
ATOM     34  C   UNL     1       1.833  -3.245   7.307  0.00  0.00    +0.031 A 
ATOM     35  N   UNL     1       0.551  -4.576   5.550  0.00  0.00    -0.340 N 
ATOM     36  C   UNL     1       0.974  -5.122   4.378  0.00  0.00    +0.128 A 
ATOM     37  N   UNL     1       2.240  -4.879   4.202  0.00  0.00    -0.231 NA
ATOM     38  H   UNL     1      -0.348  -4.616   5.911  0.00  0.00    +0.167 HD
ENDBRANCH  26  36
ENDBRANCH  22  26
ENDBRANCH   1  23
TORSDOF 4
