REMARK  Name = ZINC42191648
REMARK  5 active torsions:
REMARK  status: ('A' for Active; 'I' for Inactive)
REMARK    1  A    between atoms: C_1  and  C_2
REMARK    2  A    between atoms: C_3  and  S_9
REMARK    3  A    between atoms: S_9  and  N_12
REMARK    4  A    between atoms: N_12  and  C_13
REMARK    5  A    between atoms: C_22  and  O_24
REMARK                            x       y       z     vdW  Elec       q    Type
REMARK                         _______ _______ _______ _____ _____    ______ ____
ROOT
ATOM      1  N   UNL     1      -3.443  -0.496  -1.469  0.00  0.00    -0.180 NA
ATOM      2  H   UNL     1      -3.712   0.224  -2.060  0.00  0.00    +0.149 HD
ENDROOT
BRANCH   1   3
ATOM      3  C   UNL     1      -3.606  -1.890  -1.890  0.00  0.00    +0.135 C 
ATOM      4  C   UNL     1      -5.027  -2.350  -1.643  0.00  0.00    -0.023 A 
ATOM      5  C   UNL     1      -5.854  -2.162  -0.548  0.00  0.00    +0.005 A 
ATOM      6  C   UNL     1      -7.133  -2.682  -0.546  0.00  0.00    +0.000 A 
ATOM      7  C   UNL     1      -7.591  -3.393  -1.640  0.00  0.00    +0.000 A 
ATOM      8  C   UNL     1      -6.768  -3.582  -2.732  0.00  0.00    +0.004 A 
ATOM      9  C   UNL     1      -5.484  -3.061  -2.737  0.00  0.00    -0.040 A 
ATOM     10  C   UNL     1      -4.402  -3.127  -3.793  0.00  0.00    +0.068 C 
ATOM     11  C   UNL     1      -3.397  -2.018  -3.413  0.00  0.00    +0.142 C 
BRANCH  11  12
ATOM     12  O   UNL     1      -2.058  -2.420  -3.710  0.00  0.00    -0.390 OA
ATOM     13  H   UNL     1      -1.876  -2.514  -4.655  0.00  0.00    +0.210 HD
ENDBRANCH  11  12
ENDBRANCH   1   3
BRANCH   1  14
ATOM     14  S   UNL     1      -2.797  -0.150   0.016  0.00  0.00    +0.067 S 
ATOM     15  O   UNL     1      -3.492  -0.955   0.959  0.00  0.00    -0.152 OA
ATOM     16  O   UNL     1      -2.745   1.266   0.116  0.00  0.00    -0.152 OA
BRANCH  14  19
ATOM     17  C   UNL     1      -0.018   1.503   0.010  0.00  0.00    +0.066 C 
ATOM     18  C   UNL     1       0.002  -0.004   0.002  0.00  0.00    +0.050 A 
ATOM     19  C   UNL     1      -1.129  -0.716   0.004  0.00  0.00    +0.166 A 
ATOM     20  S   UNL     1      -0.508  -2.388  -0.008  0.00  0.00    -0.007 S 
ATOM     21  C   UNL     1       1.138  -2.048  -0.015  0.00  0.00    +0.290 A 
ATOM     22  O   UNL     1       2.072  -2.830  -0.024  0.00  0.00    -0.260 OA
ATOM     23  N   UNL     1       1.176  -0.699  -0.013  0.00  0.00    -0.318 N 
ATOM     24  H   UNL     1       2.025  -0.230  -0.020  0.00  0.00    +0.169 HD
ENDBRANCH  14  19
ENDBRANCH   1  14
TORSDOF 4
