REMARK  Name = ZINC10026073
REMARK  5 active torsions:
REMARK  status: ('A' for Active; 'I' for Inactive)
REMARK    1  A    between atoms: N_12  and  C_13
REMARK    2  A    between atoms: C_13  and  C_14
REMARK    3  A    between atoms: N_16  and  C_17
REMARK    4  A    between atoms: C_17  and  C_19
REMARK    5  A    between atoms: C_17  and  C_26
REMARK                            x       y       z     vdW  Elec       q    Type
REMARK                         _______ _______ _______ _____ _____    ______ ____
ROOT
ATOM      1  C   UNL     1      -0.742   1.585  -1.213  0.00  0.00    +0.231 C 
ATOM      2  O   UNL     1      -1.736   2.268  -1.088  0.00  0.00    -0.274 OA
ATOM      3  N   UNL     1      -0.288   1.272  -2.443  0.00  0.00    -0.303 N 
ATOM      4  H   UNL     1       0.507   0.726  -2.543  0.00  0.00    +0.150 HD
ENDROOT
BRANCH   1   5
ATOM      5  C   UNL     1      -0.013   1.086   0.008  0.00  0.00    +0.198 C 
BRANCH   5  17
ATOM      6  C   UNL     1      -2.507   2.803   5.082  0.00  0.00    +0.001 A 
ATOM      7  C   UNL     1      -1.854   2.356   6.217  0.00  0.00    +0.002 A 
ATOM      8  C   UNL     1      -0.715   1.574   6.086  0.00  0.00    +0.030 A 
ATOM      9  C   UNL     1      -0.254   1.257   4.842  0.00  0.00    +0.123 A 
ATOM     10  C   UNL     1      -0.890   1.700   3.674  0.00  0.00    +0.043 A 
ATOM     11  C   UNL     1      -2.044   2.485   3.826  0.00  0.00    +0.013 A 
ATOM     12  C   UNL     1      -0.211   1.225   2.458  0.00  0.00    +0.150 C 
ATOM     13  N   UNL     1       0.852   0.495   2.572  0.00  0.00    -0.113 NA
ATOM     14  S   UNL     1       1.113   0.318   4.215  0.00  0.00    +0.101 S 
ATOM     15  O   UNL     1       0.888  -1.046   4.545  0.00  0.00    -0.146 OA
ATOM     16  O   UNL     1       2.305   1.017   4.543  0.00  0.00    -0.146 OA
ATOM     17  N   UNL     1      -0.698   1.558   1.213  0.00  0.00    -0.319 N 
ATOM     18  H   UNL     1      -1.495   2.106   1.135  0.00  0.00    +0.148 HD
ENDBRANCH   5  17
ENDBRANCH   1   5
BRANCH   3  19
ATOM     19  C   UNL     1      -0.997   1.758  -3.630  0.00  0.00    +0.140 C 
BRANCH  19  20
ATOM     20  C   UNL     1      -0.721   0.838  -4.791  0.00  0.00    -0.022 A 
ATOM     21  C   UNL     1       0.550   0.326  -4.980  0.00  0.00    +0.008 A 
ATOM     22  C   UNL     1       0.803  -0.522  -6.041  0.00  0.00    +0.038 A 
ATOM     23  C   UNL     1      -0.213  -0.850  -6.923  0.00  0.00    +0.123 A 
ATOM     24  C   UNL     1      -1.484  -0.332  -6.736  0.00  0.00    +0.038 A 
ATOM     25  C   UNL     1      -1.736   0.511  -5.670  0.00  0.00    +0.008 A 
ATOM     26  F   UNL     1       0.035  -1.674  -7.964  0.00  0.00    -0.205 F 
ENDBRANCH  19  20
BRANCH  19  27
ATOM     27  C   UNL     1      -0.521   3.148  -3.966  0.00  0.00    +0.014 A 
ATOM     28  C   UNL     1      -1.238   4.215  -4.395  0.00  0.00    +0.013 A 
ATOM     29  C   UNL     1      -0.584   5.407  -4.640  0.00  0.00    +0.008 A 
ATOM     30  C   UNL     1       0.757   5.471  -4.454  0.00  0.00    +0.045 A 
ATOM     31  S   UNL     1       1.134   3.814  -3.908  0.00  0.00    -0.099 S 
ENDBRANCH  19  27
ENDBRANCH   3  19
TORSDOF 5
