REMARK  Name = ZINC40290832
REMARK  5 active torsions:
REMARK  status: ('A' for Active; 'I' for Inactive)
REMARK    1  A    between atoms: C_1  and  C_2
REMARK    2  A    between atoms: C_3  and  C_19
REMARK    3  A    between atoms: C_7  and  C_8
REMARK    4  A    between atoms: C_8  and  N_10
REMARK    5  A    between atoms: C_15  and  C_18
REMARK                            x       y       z     vdW  Elec       q    Type
REMARK                         _______ _______ _______ _____ _____    ______ ____
ROOT
ATOM      1  C   UNL     1      -0.177   1.482   0.009  0.00  0.00    +0.046 C 
ATOM      2  C   UNL     1      -0.071  -0.021   0.005  0.00  0.00    -0.015 A 
ATOM      3  C   UNL     1      -0.097  -0.736  -1.181  0.00  0.00    +0.064 A 
ATOM      4  N   UNL     1      -0.003  -2.051  -1.164  0.00  0.00    -0.152 NA
ATOM      5  N   UNL     1       0.113  -2.724  -0.078  0.00  0.00    -0.133 NA
ATOM      6  C   UNL     1       0.147  -2.142   1.113  0.00  0.00    +0.154 A 
ATOM      7  C   UNL     1       0.061  -0.739   1.201  0.00  0.00    +0.049 A 
ATOM      8  N   UNL     1       0.273  -2.907   2.260  0.00  0.00    -0.309 N 
ATOM      9  C   UNL     1      -0.912  -3.445   2.945  0.00  0.00    +0.134 C 
ATOM     10  C   UNL     1      -0.697  -4.944   3.178  0.00  0.00    +0.179 C 
ATOM     11  O   UNL     1       0.559  -5.144   3.831  0.00  0.00    -0.374 OA
ATOM     12  C   UNL     1       1.690  -4.717   3.068  0.00  0.00    +0.132 C 
ATOM     13  C   UNL     1       1.597  -3.211   2.826  0.00  0.00    +0.138 C 
ATOM     14  C   UNL     1       2.974  -5.036   3.835  0.00  0.00    +0.039 C 
ATOM     15  C   UNL     1      -0.231  -0.009  -2.494  0.00  0.00    +0.068 C 
ENDROOT
BRANCH   7  16
ATOM     16  C   UNL     1       0.102  -0.051   2.505  0.00  0.00    +0.081 C 
ATOM     17  S   UNL     1       1.586   0.556   3.106  0.00  0.00    -0.035 S 
BRANCH  16  18
ATOM     18  N   UNL     1      -1.028   0.099   3.224  0.00  0.00    -0.352 N 
ATOM     19  H   UNL     1      -1.881  -0.174   2.850  0.00  0.00    +0.143 HD
ATOM     20  H   UNL     1      -0.990   0.481   4.114  0.00  0.00    +0.143 HD
ENDBRANCH  16  18
ENDBRANCH   7  16
TORSDOF 2
