REMARK  Name = ZINC12917921
REMARK  5 active torsions:
REMARK  status: ('A' for Active; 'I' for Inactive)
REMARK    1  A    between atoms: C_1  and  N_2
REMARK    2  A    between atoms: C_6  and  C_7
REMARK    3  A    between atoms: N_9  and  N_10
REMARK    4  A    between atoms: N_10  and  S_11
REMARK    5  A    between atoms: S_11  and  C_14
REMARK                            x       y       z     vdW  Elec       q    Type
REMARK                         _______ _______ _______ _____ _____    ______ ____
ROOT
ATOM      1  N   UNL     1      -1.718   1.702  -1.670  0.00  0.00    -0.108 NA
ATOM      2  H   UNL     1      -2.086   1.154  -2.380  0.00  0.00    +0.172 HD
ENDROOT
BRANCH   1   5
ATOM      3  C   UNL     1      -1.290   3.733  -2.837  0.00  0.00    +0.275 C 
ATOM      4  O   UNL     1      -0.688   3.105  -3.688  0.00  0.00    -0.267 OA
ATOM      5  N   UNL     1      -1.787   3.099  -1.756  0.00  0.00    -0.227 N 
ATOM      6  H   UNL     1      -2.193   3.610  -1.039  0.00  0.00    +0.171 HD
BRANCH   3  12
ATOM      7  C   UNL     1      -0.462   5.433  -5.290  0.00  0.00    +0.149 C 
ATOM      8  N   UNL     1      -1.106   5.938  -4.076  0.00  0.00    -0.345 N 
ATOM      9  C   UNL     1      -1.441   7.231  -3.837  0.00  0.00    +0.101 A 
ATOM     10  C   UNL     1      -2.017   7.315  -2.614  0.00  0.00    +0.036 A 
ATOM     11  C   UNL     1      -2.050   6.029  -2.066  0.00  0.00    +0.047 A 
ATOM     12  C   UNL     1      -1.473   5.181  -2.987  0.00  0.00    +0.106 A 
ATOM     13 BR   UNL     1      -2.667   8.891  -1.795  0.00  0.00    -0.049 Br
ENDBRANCH   3  12
ENDBRANCH   1   5
BRANCH   1  14
ATOM     14  S   UNL     1      -1.006   0.989  -0.356  0.00  0.00    +0.074 S 
ATOM     15  O   UNL     1      -1.218  -0.410  -0.489  0.00  0.00    -0.152 OA
ATOM     16  O   UNL     1       0.292   1.554  -0.240  0.00  0.00    -0.152 OA
BRANCH  14  17
ATOM     17  C   UNL     1      -1.909   1.502   1.068  0.00  0.00    +0.108 A 
ATOM     18  C   UNL     1      -1.533   2.644   1.750  0.00  0.00    +0.028 A 
ATOM     19  C   UNL     1      -2.244   3.050   2.863  0.00  0.00    +0.003 A 
ATOM     20  C   UNL     1      -3.324   2.308   3.302  0.00  0.00    +0.015 A 
ATOM     21  C   UNL     1      -3.697   1.161   2.624  0.00  0.00    +0.020 A 
ATOM     22  C   UNL     1      -2.988   0.759   1.506  0.00  0.00    +0.043 A 
ATOM     23 BR   UNL     1      -5.174   0.145   3.225  0.00  0.00    -0.050 Br
ENDBRANCH  14  17
ENDBRANCH   1  14
TORSDOF 4
