REMARK  Name = ZINC66122917
REMARK  10 active torsions:
REMARK  status: ('A' for Active; 'I' for Inactive)
REMARK    1  A    between atoms: C_1  and  C_2
REMARK    2  A    between atoms: C_3  and  C_13
REMARK    3  A    between atoms: N_9  and  C_12
REMARK    4  A    between atoms: N_15  and  N_16
REMARK    5  A    between atoms: N_16  and  C_17
REMARK    6  A    between atoms: C_17  and  N_19
REMARK    7  A    between atoms: N_19  and  C_20
REMARK    8  A    between atoms: C_25  and  C_26
REMARK    9  A    between atoms: C_26  and  C_27
REMARK   10  A    between atoms: C_26  and  C_28
REMARK                            x       y       z     vdW  Elec       q    Type
REMARK                         _______ _______ _______ _____ _____    ______ ____
ROOT
ATOM      1  C   UNL     1      -2.171   0.130   0.130  0.00  0.00    +0.264 C 
ATOM      2  O   UNL     1      -2.761   0.045  -0.931  0.00  0.00    -0.269 OA
ATOM      3  N   UNL     1      -2.865   0.215   1.282  0.00  0.00    -0.231 N 
ATOM      4  H   UNL     1      -2.394   0.282   2.127  0.00  0.00    +0.173 HD
ENDROOT
BRANCH   1   7
ATOM      5  C   UNL     1      -0.343   2.655  -0.033  0.00  0.00    +0.087 C 
ATOM      6  C   UNL     1       0.119   1.225   0.085  0.00  0.00    +0.118 A 
ATOM      7  C   UNL     1      -0.699   0.139   0.154  0.00  0.00    +0.093 A 
ATOM      8  C   UNL     1       0.197  -1.024   0.259  0.00  0.00    +0.117 A 
ATOM      9  C   UNL     1       1.493  -0.507   0.242  0.00  0.00    +0.235 A 
ATOM     10  O   UNL     1       1.397   0.829   0.132  0.00  0.00    -0.441 OA
ATOM     11  N   UNL     1       2.530  -1.354   0.325  0.00  0.00    -0.202 NA
ATOM     12  C   UNL     1       2.349  -2.642   0.420  0.00  0.00    +0.205 A 
ATOM     13  N   UNL     1       1.115  -3.202   0.441  0.00  0.00    -0.302 N 
ATOM     14  C   UNL     1       0.013  -2.420   0.362  0.00  0.00    +0.265 A 
ATOM     15  O   UNL     1      -1.104  -2.906   0.380  0.00  0.00    -0.267 OA
ATOM     16  C   UNL     1       0.973  -4.656   0.549  0.00  0.00    +0.153 C 
ENDBRANCH   1   7
BRANCH   3  17
ATOM     17  N   UNL     1      -4.265   0.206   1.259  0.00  0.00    -0.245 N 
ATOM     18  H   UNL     1      -4.736   0.139   0.413  0.00  0.00    +0.172 HD
BRANCH  17  19
ATOM     19  C   UNL     1      -4.959   0.291   2.411  0.00  0.00    +0.151 C 
ATOM     20  S   UNL     1      -6.671   0.280   2.383  0.00  0.00    -0.017 S 
BRANCH  19  21
ATOM     21  N   UNL     1      -4.305   0.385   3.586  0.00  0.00    -0.296 N 
ATOM     22  H   UNL     1      -3.338   0.311   3.610  0.00  0.00    +0.154 HD
BRANCH  21  23
ATOM     23  C   UNL     1      -5.020   0.588   4.771  0.00  0.00    +0.036 A 
ATOM     24  C   UNL     1      -6.041   1.529   4.814  0.00  0.00    +0.023 A 
ATOM     25  C   UNL     1      -6.746   1.727   5.985  0.00  0.00    +0.002 A 
ATOM     26  C   UNL     1      -6.436   0.990   7.114  0.00  0.00    +0.000 A 
ATOM     27  C   UNL     1      -5.420   0.053   7.074  0.00  0.00    +0.006 A 
ATOM     28  C   UNL     1      -4.715  -0.154   5.904  0.00  0.00    -0.024 A 
BRANCH  28  29
ATOM     29  C   UNL     1      -3.613  -1.180   5.860  0.00  0.00    +0.015 C 
ATOM     30  C   UNL     1      -2.524  -0.802   6.866  0.00  0.00    +0.012 C 
ATOM     31  C   UNL     1      -4.181  -2.555   6.216  0.00  0.00    +0.012 C 
ENDBRANCH  28  29
ENDBRANCH  21  23
ENDBRANCH  19  21
ENDBRANCH  17  19
ENDBRANCH   3  17
TORSDOF 6
