REMARK  Name = ZINC51698185
REMARK  4 active torsions:
REMARK  status: ('A' for Active; 'I' for Inactive)
REMARK    1  A    between atoms: C_1  and  O_2
REMARK    2  A    between atoms: O_2  and  C_3
REMARK    3  A    between atoms: C_3  and  C_4
REMARK    4  A    between atoms: C_6  and  N_16
REMARK                            x       y       z     vdW  Elec       q    Type
REMARK                         _______ _______ _______ _____ _____    ______ ____
ROOT
ATOM      1  C   UNL     1       0.527  -2.079  -1.094  0.00  0.00    +0.069 A 
ATOM      2  C   UNL     1      -0.094  -2.670  -0.002  0.00  0.00    +0.049 A 
ATOM      3  C   UNL     1      -0.047  -4.047   0.152  0.00  0.00    +0.037 A 
ATOM      4  C   UNL     1       0.643  -4.799  -0.828  0.00  0.00    +0.038 A 
ATOM      5  C   UNL     1       0.735  -6.196  -0.744  0.00  0.00    +0.029 A 
ATOM      6  C   UNL     1       1.408  -6.887  -1.708  0.00  0.00    +0.019 A 
ATOM      7  C   UNL     1       2.006  -6.223  -2.776  0.00  0.00    +0.041 A 
ATOM      8  C   UNL     1       1.936  -4.866  -2.888  0.00  0.00    +0.149 A 
ATOM      9  C   UNL     1       1.249  -4.120  -1.911  0.00  0.00    +0.109 A 
ATOM     10  N   UNL     1       1.159  -2.788  -2.000  0.00  0.00    -0.246 NA
ATOM     11  F   UNL     1       2.523  -4.240  -3.931  0.00  0.00    -0.203 F 
ATOM     12 BR   UNL     1      -0.069  -7.117   0.698  0.00  0.00    -0.050 Br
ENDROOT
BRANCH   3  13
ATOM     13  N   UNL     1      -0.656  -4.667   1.232  0.00  0.00    -0.357 N 
ATOM     14  H   UNL     1      -1.577  -4.459   1.454  0.00  0.00    +0.142 HD
ATOM     15  H   UNL     1      -0.162  -5.308   1.766  0.00  0.00    +0.142 HD
ENDBRANCH   3  13
BRANCH   1  16
ATOM     16  C   UNL     1       0.467  -0.581  -1.248  0.00  0.00    +0.214 C 
BRANCH  16  18
ATOM     17  C   UNL     1      -0.381   1.405  -0.207  0.00  0.00    +0.194 C 
ATOM     18  O   UNL     1      -0.265  -0.019  -0.157  0.00  0.00    -0.377 OA
ENDBRANCH  16  18
ENDBRANCH   1  16
TORSDOF 3
