REMARK  Name = ZINC04301528
REMARK  7 active torsions:
REMARK  status: ('A' for Active; 'I' for Inactive)
REMARK    1  A    between atoms: C_5  and  O_19
REMARK    2  A    between atoms: C_6  and  C_7
REMARK    3  A    between atoms: N_8  and  C_9
REMARK    4  A    between atoms: C_9  and  C_10
REMARK    5  A    between atoms: C_10  and  C_11
REMARK    6  A    between atoms: C_11  and  C_12
REMARK    7  A    between atoms: C_17  and  O_18
REMARK                            x       y       z     vdW  Elec       q    Type
REMARK                         _______ _______ _______ _____ _____    ______ ____
ROOT
ATOM      1  C   UNL     1      -1.262  -0.762   0.011  0.00  0.00    +0.090 C 
ATOM      2  N   UNL     1      -1.243  -2.052  -0.094  0.00  0.00    -0.390 N 
ATOM      3  H   UNL     1      -0.397  -2.526  -0.105  0.00  0.00    +0.159 HD
ENDROOT
BRANCH   1   9
ATOM      4  C   UNL     1      -0.017   1.393  -0.003  0.00  0.00    +0.033 A 
ATOM      5  C   UNL     1       1.169   2.097  -0.010  0.00  0.00    +0.043 A 
ATOM      6  C   UNL     1       2.381   1.424  -0.013  0.00  0.00    +0.043 A 
ATOM      7  C   UNL     1       2.413   0.043  -0.009  0.00  0.00    +0.084 A 
ATOM      8  C   UNL     1       1.230  -0.680  -0.001  0.00  0.00    +0.144 A 
ATOM      9  C   UNL     1       0.002  -0.004   0.002  0.00  0.00    +0.035 A 
ATOM     10 CL   UNL     1       3.937  -0.789  -0.013  0.00  0.00    -0.080 Cl
ATOM     11 CL   UNL     1       1.144   3.833  -0.016  0.00  0.00    -0.083 Cl
BRANCH   8  12
ATOM     12  O   UNL     1       1.260  -2.038   0.003  0.00  0.00    -0.505 OA
ATOM     13  H   UNL     1       1.272  -2.428   0.888  0.00  0.00    +0.292 HD
ENDBRANCH   8  12
ENDBRANCH   1   9
BRANCH   2  14
ATOM     14  C   UNL     1      -2.501  -2.797  -0.196  0.00  0.00    +0.112 C 
BRANCH  14  15
ATOM     15  C   UNL     1      -2.584  -3.472  -1.567  0.00  0.00    +0.026 C 
BRANCH  15  16
ATOM     16  C   UNL     1      -3.897  -4.250  -1.673  0.00  0.00    +0.044 C 
BRANCH  16  17
ATOM     17  C   UNL     1      -3.979  -4.915  -3.023  0.00  0.00    +0.033 A 
ATOM     18  C   UNL     1      -4.593  -4.417  -4.120  0.00  0.00    +0.112 A 
ATOM     19  N   UNL     1      -4.442  -5.311  -5.120  0.00  0.00    -0.281 N 
ATOM     20  N   UNL     1      -3.711  -6.397  -4.623  0.00  0.00    -0.136 NA
ATOM     21  C   UNL     1      -3.427  -6.159  -3.365  0.00  0.00    +0.234 A 
ATOM     22  H   UNL     1      -4.780  -5.217  -6.024  0.00  0.00    +0.188 HD
BRANCH  21  24
ATOM     23  H   UNL     1      -3.269  -7.612  -2.054  0.00  0.00    +0.294 HD
ATOM     24  O   UNL     1      -2.723  -6.976  -2.537  0.00  0.00    -0.491 OA
ENDBRANCH  21  24
ENDBRANCH  16  17
ENDBRANCH  15  16
ENDBRANCH  14  15
ENDBRANCH   2  14
TORSDOF 7
