REMARK  Name = ZINC49234426
REMARK  4 active torsions:
REMARK  status: ('A' for Active; 'I' for Inactive)
REMARK    1  A    between atoms: C_4  and  N_19
REMARK    2  A    between atoms: C_6  and  S_7
REMARK    3  A    between atoms: S_7  and  N_10
REMARK    4  A    between atoms: C_13  and  C_16
REMARK                            x       y       z     vdW  Elec       q    Type
REMARK                         _______ _______ _______ _____ _____    ______ ____
ROOT
ATOM      1  S   UNL     1      -1.513  -0.904   0.012  0.00  0.00    +0.101 S 
ATOM      2  O   UNL     1      -1.220  -2.185   0.553  0.00  0.00    -0.146 OA
ATOM      3  O   UNL     1      -2.493  -0.044   0.577  0.00  0.00    -0.146 OA
ENDROOT
BRANCH   1   9
ATOM      4  C   UNL     1      -0.017   1.378   0.010  0.00  0.00    +0.032 A 
ATOM      5  C   UNL     1       1.170   2.089   0.002  0.00  0.00    +0.042 A 
ATOM      6  C   UNL     1       2.379   1.419  -0.013  0.00  0.00    +0.144 A 
ATOM      7  C   UNL     1       2.400   0.028  -0.021  0.00  0.00    +0.062 A 
ATOM      8  C   UNL     1       1.207  -0.681  -0.013  0.00  0.00    +0.054 A 
ATOM      9  C   UNL     1       0.002  -0.004   0.002  0.00  0.00    +0.114 A 
ATOM     10  F   UNL     1       3.537   2.113  -0.022  0.00  0.00    -0.204 F 
BRANCH   7  11
ATOM     11  N   UNL     1       3.620  -0.654  -0.037  0.00  0.00    -0.356 N 
ATOM     12  H   UNL     1       4.454  -0.158  -0.043  0.00  0.00    +0.142 HD
ATOM     13  H   UNL     1       3.634  -1.624  -0.043  0.00  0.00    +0.142 HD
ENDBRANCH   7  11
ENDBRANCH   1   9
BRANCH   1  14
ATOM     14  N   UNL     1      -1.949  -1.146  -1.567  0.00  0.00    -0.103 NA
ATOM     15  C   UNL     1      -3.050  -1.797  -1.851  0.00  0.00    +0.192 A 
ATOM     16  N   UNL     1      -3.588  -2.110  -3.080  0.00  0.00    -0.336 N 
ATOM     17  C   UNL     1      -4.761  -2.805  -3.119  0.00  0.00    +0.028 A 
ATOM     18  C   UNL     1      -5.364  -3.167  -1.987  0.00  0.00    +0.070 A 
ATOM     19  S   UNL     1      -4.251  -2.524  -0.747  0.00  0.00    -0.057 S 
ATOM     20  H   UNL     1      -3.143  -1.842  -3.899  0.00  0.00    +0.168 HD
BRANCH  17  21
ATOM     21  C   UNL     1      -5.378  -3.164  -4.447  0.00  0.00    +0.036 C 
ATOM     22  C   UNL     1      -4.756  -2.552  -5.703  0.00  0.00    +0.010 C 
ATOM     23  C   UNL     1      -4.554  -4.037  -5.395  0.00  0.00    +0.010 C 
ENDBRANCH  17  21
ENDBRANCH   1  14
TORSDOF 4
