REMARK  Name = ZINC62849198
REMARK  5 active torsions:
REMARK  status: ('A' for Active; 'I' for Inactive)
REMARK    1  A    between atoms: C_1  and  C_2
REMARK    2  A    between atoms: C_2  and  C_3
REMARK    3  A    between atoms: C_3  and  C_9
REMARK    4  A    between atoms: C_15  and  C_18
REMARK    5  A    between atoms: C_18  and  N_19
REMARK                            x       y       z     vdW  Elec       q    Type
REMARK                         _______ _______ _______ _____ _____    ______ ____
ROOT
ATOM      1  C   UNL     1       0.065   0.106  -2.597  0.00  0.00    +0.222 C 
ATOM      2  O   UNL     1      -0.485  -0.672  -3.347  0.00  0.00    -0.275 OA
ATOM      3  N   UNL     1       0.124   1.416  -2.909  0.00  0.00    -0.301 N 
ATOM      4  C   UNL     1       0.698   2.385  -1.966  0.00  0.00    +0.108 C 
ATOM      5  C   UNL     1       1.789   3.185  -2.683  0.00  0.00    +0.019 C 
ATOM      6  C   UNL     1       1.206   3.812  -3.952  0.00  0.00    +0.008 C 
ATOM      7  C   UNL     1       0.720   2.707  -4.892  0.00  0.00    +0.024 C 
ATOM      8  C   UNL     1      -0.378   1.901  -4.202  0.00  0.00    +0.112 C 
ENDROOT
BRANCH   1   9
ATOM      9  C   UNL     1       0.682  -0.392  -1.315  0.00  0.00    +0.044 C 
ATOM     10  C   UNL     1       0.494  -1.908  -1.210  0.00  0.00    -0.003 C 
ATOM     11  C   UNL     1      -1.000  -2.228  -1.142  0.00  0.00    -0.082 C 
ATOM     12  N   UNL     1      -1.591  -1.577   0.033  0.00  0.00    +0.379 N 
ATOM     13  C   UNL     1      -1.479  -0.120  -0.095  0.00  0.00    -0.082 C 
ATOM     14  C   UNL     1      -0.003   0.282  -0.122  0.00  0.00    -0.003 C 
ATOM     15  H   UNL     1      -2.565  -1.834   0.105  0.00  0.00    -0.086 HD
ATOM     16  H   UNL     1      -1.105  -1.879   0.864  0.00  0.00    -0.086 HD
BRANCH   9  18
ATOM     17  C   UNL     1       2.883  -0.851  -2.404  0.00  0.00    +0.005 C 
ATOM     18  C   UNL     1       2.175  -0.058  -1.303  0.00  0.00    +0.012 C 
ENDBRANCH   9  18
ENDBRANCH   1   9
BRANCH   7  19
ATOM     19  C   UNL     1       0.168   3.333  -6.174  0.00  0.00    +0.110 C 
BRANCH  19  20
ATOM     20  N   UNL     1       1.252   4.006  -6.895  0.00  0.00    -0.299 N 
ATOM     21  C   UNL     1       0.999   4.633  -8.061  0.00  0.00    +0.297 C 
ATOM     22  O   UNL     1      -0.129   4.640  -8.515  0.00  0.00    -0.253 OA
ATOM     23  N   UNL     1       1.996   5.252  -8.724  0.00  0.00    -0.313 N 
ATOM     24  H   UNL     1       2.152   4.000  -6.533  0.00  0.00    +0.150 HD
ATOM     25  H   UNL     1       2.896   5.246  -8.362  0.00  0.00    +0.146 HD
ATOM     26  H   UNL     1       1.813   5.703  -9.563  0.00  0.00    +0.146 HD
ENDBRANCH  19  20
ENDBRANCH   7  19
TORSDOF 4
