REMARK  Name = ZINC60481480
REMARK  1 active torsions:
REMARK  status: ('A' for Active; 'I' for Inactive)
REMARK    1  A    between atoms: C_6  and  C_8
REMARK                            x       y       z     vdW  Elec       q    Type
REMARK                         _______ _______ _______ _____ _____    ______ ____
ROOT
ATOM      1  C   UNL     1      -1.133  -0.546   0.833  0.00  0.00    +0.236 C 
ATOM      2  O   UNL     1      -0.926  -0.930   1.964  0.00  0.00    -0.274 OA
ATOM      3  N   UNL     1      -2.377  -0.603   0.318  0.00  0.00    -0.300 N 
ATOM      4  C   UNL     1      -2.640  -0.146  -1.053  0.00  0.00    +0.110 C 
ATOM      5  C   UNL     1      -3.336  -1.275  -1.823  0.00  0.00    +0.054 C 
ATOM      6  C   UNL     1      -4.569  -1.729  -1.050  0.00  0.00    +0.115 C 
ATOM      7  C   UNL     1      -4.183  -2.244   0.333  0.00  0.00    +0.054 C 
ATOM      8  C   UNL     1      -3.493  -1.128   1.117  0.00  0.00    +0.110 C 
ATOM      9  C   UNL     1      -5.312  -2.796  -1.821  0.00  0.00    +0.244 C 
ATOM     10  O   UNL     1      -4.898  -3.887  -2.148  0.00  0.00    -0.273 OA
ATOM     11  N   UNL     1      -6.533  -2.278  -2.068  0.00  0.00    -0.238 N 
ATOM     12  C   UNL     1      -6.657  -1.044  -1.562  0.00  0.00    +0.307 C 
ATOM     13  O   UNL     1      -7.666  -0.373  -1.656  0.00  0.00    -0.252 OA
ATOM     14  N   UNL     1      -5.538  -0.631  -0.936  0.00  0.00    -0.285 N 
ATOM     15  H   UNL     1      -7.234  -2.741  -2.552  0.00  0.00    +0.159 HD
ATOM     16  H   UNL     1      -5.399   0.223  -0.498  0.00  0.00    +0.151 HD
ENDROOT
BRANCH   1  22
ATOM     17  C   UNL     1      -0.019   1.541   0.011  0.00  0.00    +0.041 C 
ATOM     18  C   UNL     1       1.490   1.876  -0.002  0.00  0.00    +0.098 C 
ATOM     19  C   UNL     1       2.147   0.654   0.600  0.00  0.00    +0.214 C 
ATOM     20  O   UNL     1       3.282   0.614   1.026  0.00  0.00    -0.276 OA
ATOM     21  N   UNL     1       1.290  -0.381   0.595  0.00  0.00    -0.304 N 
ATOM     22  C   UNL     1       0.002  -0.004   0.002  0.00  0.00    +0.159 C 
ATOM     23  H   UNL     1       1.497  -1.265   0.939  0.00  0.00    +0.149 HD
ENDBRANCH   1  22
TORSDOF 1
