REMARK  Name = ZINC40933102
REMARK  7 active torsions:
REMARK  status: ('A' for Active; 'I' for Inactive)
REMARK    1  A    between atoms: C_1  and  C_2
REMARK    2  A    between atoms: C_2  and  N_3
REMARK    3  A    between atoms: C_4  and  C_18
REMARK    4  A    between atoms: C_5  and  N_17
REMARK    5  A    between atoms: N_8  and  C_9
REMARK    6  A    between atoms: C_18  and  C_19
REMARK    7  A    between atoms: C_18  and  C_20
REMARK                            x       y       z     vdW  Elec       q    Type
REMARK                         _______ _______ _______ _____ _____    ______ ____
ROOT
ATOM      1  N   UNL     1      -2.197  -0.689   0.170  0.00  0.00    -0.279 N 
ATOM      2  C   UNL     1      -2.631  -1.008  -1.095  0.00  0.00    +0.065 A 
ATOM      3  C   UNL     1      -3.884  -1.501  -1.001  0.00  0.00    +0.113 A 
ATOM      4  C   UNL     1      -4.258  -1.494   0.368  0.00  0.00    +0.293 A 
ATOM      5  O   UNL     1      -5.323  -1.871   0.823  0.00  0.00    -0.264 OA
ATOM      6  N   UNL     1      -3.220  -1.002   1.074  0.00  0.00    -0.214 N 
ENDROOT
BRANCH   6   7
ATOM      7  C   UNL     1      -3.175  -0.832   2.462  0.00  0.00    +0.086 A 
ATOM      8  C   UNL     1      -3.700   0.317   3.040  0.00  0.00    +0.031 A 
ATOM      9  C   UNL     1      -3.654   0.482   4.410  0.00  0.00    +0.022 A 
ATOM     10  C   UNL     1      -3.085  -0.495   5.208  0.00  0.00    +0.042 A 
ATOM     11  C   UNL     1      -2.561  -1.641   4.636  0.00  0.00    +0.042 A 
ATOM     12  C   UNL     1      -2.609  -1.814   3.266  0.00  0.00    +0.068 A 
ATOM     13 CL   UNL     1      -1.958  -3.255   2.549  0.00  0.00    -0.081 Cl
ATOM     14 CL   UNL     1      -3.029  -0.283   6.931  0.00  0.00    -0.083 Cl
ENDBRANCH   6   7
BRANCH   3  15
ATOM     15  N   UNL     1      -4.683  -1.944  -2.076  0.00  0.00    -0.352 N 
ATOM     16  H   UNL     1      -4.339  -1.909  -2.983  0.00  0.00    +0.143 HD
ATOM     17  H   UNL     1      -5.576  -2.284  -1.909  0.00  0.00    +0.143 HD
ENDBRANCH   3  15
BRANCH   2  18
ATOM     18  C   UNL     1      -1.843  -0.836  -2.368  0.00  0.00    +0.033 C 
ATOM     19  C   UNL     1      -1.350   0.609  -2.471  0.00  0.00    +0.014 C 
ATOM     20  C   UNL     1      -0.644  -1.785  -2.357  0.00  0.00    +0.014 C 
ENDBRANCH   2  18
BRANCH   1  22
ATOM     21  C   UNL     1      -0.992   1.401   0.571  0.00  0.00    +0.029 C 
ATOM     22  C   UNL     1      -0.889  -0.124   0.513  0.00  0.00    +0.139 C 
ENDBRANCH   1  22
TORSDOF 4
