REMARK  Name = ZINC52306048
REMARK  6 active torsions:
REMARK  status: ('A' for Active; 'I' for Inactive)
REMARK    1  A    between atoms: C_1  and  C_2
REMARK    2  A    between atoms: C_5  and  N_9
REMARK    3  A    between atoms: C_6  and  C_8
REMARK    4  A    between atoms: C_10  and  S_15
REMARK    5  A    between atoms: C_12  and  C_14
REMARK    6  A    between atoms: S_15  and  N_18
REMARK                            x       y       z     vdW  Elec       q    Type
REMARK                         _______ _______ _______ _____ _____    ______ ____
ROOT
ATOM      1  N   UNL     1       0.449  -4.207  -0.232  0.00  0.00    -0.213 N 
ATOM      2  C   UNL     1       1.434  -4.822  -0.926  0.00  0.00    +0.197 A 
ATOM      3  C   UNL     1       1.405  -6.136  -0.605  0.00  0.00    +0.073 A 
ATOM      4  C   UNL     1       0.369  -6.332   0.315  0.00  0.00    +0.062 A 
ATOM      5  N   UNL     1      -0.201  -5.176   0.543  0.00  0.00    -0.170 NA
ATOM      6  C   UNL     1      -0.021  -7.647   0.940  0.00  0.00    +0.067 C 
ENDROOT
BRANCH   1  11
ATOM      7  C   UNL     1      -0.813   1.324  -0.412  0.00  0.00    +0.044 C 
ATOM      8  C   UNL     1      -0.478  -0.145  -0.364  0.00  0.00    -0.050 A 
ATOM      9  C   UNL     1      -0.407  -0.875  -1.536  0.00  0.00    +0.005 A 
ATOM     10  C   UNL     1      -0.100  -2.221  -1.496  0.00  0.00    +0.028 A 
ATOM     11  C   UNL     1       0.138  -2.841  -0.277  0.00  0.00    +0.070 A 
ATOM     12  C   UNL     1       0.067  -2.105   0.899  0.00  0.00    -0.025 A 
ATOM     13  C   UNL     1      -0.236  -0.758   0.851  0.00  0.00    +0.008 A 
ATOM     14  C   UNL     1       0.325  -2.774   2.224  0.00  0.00    +0.046 C 
ENDBRANCH   1  11
BRANCH   2  15
ATOM     15  S   UNL     1       2.553  -4.050  -2.046  0.00  0.00    +0.073 S 
ATOM     16  O   UNL     1       1.898  -4.003  -3.307  0.00  0.00    -0.152 OA
ATOM     17  O   UNL     1       3.040  -2.884  -1.396  0.00  0.00    -0.152 OA
BRANCH  15  18
ATOM     18  N   UNL     1       3.848  -5.068  -2.224  0.00  0.00    -0.202 NA
ATOM     19  H   UNL     1       4.342  -5.083  -3.058  0.00  0.00    +0.144 HD
ATOM     20  H   UNL     1       4.111  -5.649  -1.494  0.00  0.00    +0.144 HD
ENDBRANCH  15  18
ENDBRANCH   2  15
TORSDOF 3
