REMARK  Name = ZINC62562628
REMARK  3 active torsions:
REMARK  status: ('A' for Active; 'I' for Inactive)
REMARK    1  A    between atoms: C_1  and  C_2
REMARK    2  A    between atoms: C_4  and  N_18
REMARK    3  A    between atoms: C_9  and  C_11
REMARK                            x       y       z     vdW  Elec       q    Type
REMARK                         _______ _______ _______ _____ _____    ______ ____
ROOT
ATOM      1  C   UNL     1      -0.018   1.503   0.010  0.00  0.00    +0.044 C 
ATOM      2  C   UNL     1       0.002  -0.004   0.002  0.00  0.00    -0.046 A 
ATOM      3  C   UNL     1       0.006  -0.686  -1.206  0.00  0.00    +0.030 A 
ATOM      4  C   UNL     1       0.024  -2.071  -1.229  0.00  0.00    +0.070 A 
ATOM      5  C   UNL     1       0.039  -2.783  -0.032  0.00  0.00    +0.176 A 
ATOM      6  C   UNL     1       0.036  -2.092   1.188  0.00  0.00    +0.112 A 
ATOM      7  C   UNL     1       0.023  -0.694   1.193  0.00  0.00    +0.035 A 
ATOM      8  N   UNL     1       0.053  -3.032   2.168  0.00  0.00    -0.209 NA
ATOM      9  C   UNL     1       0.066  -4.218   1.614  0.00  0.00    +0.229 A 
ATOM     10  O   UNL     1       0.058  -4.100   0.273  0.00  0.00    -0.433 OA
ENDROOT
BRANCH   9  11
ATOM     11  C   UNL     1       0.086  -5.498   2.352  0.00  0.00    +0.038 A 
ATOM     12  C   UNL     1       0.105  -6.708   1.656  0.00  0.00    +0.013 A 
ATOM     13  C   UNL     1       0.124  -7.900   2.351  0.00  0.00    +0.002 A 
ATOM     14  C   UNL     1       0.125  -7.899   3.734  0.00  0.00    +0.015 A 
ATOM     15  C   UNL     1       0.106  -6.703   4.431  0.00  0.00    +0.019 A 
ATOM     16  C   UNL     1       0.093  -5.503   3.748  0.00  0.00    +0.028 A 
ATOM     17 BR   UNL     1       0.106  -6.712   6.322  0.00  0.00    -0.050 Br
ENDBRANCH   9  11
BRANCH   4  18
ATOM     18  N   UNL     1       0.026  -2.752  -2.450  0.00  0.00    -0.355 N 
ATOM     19  H   UNL     1       0.015  -2.255  -3.283  0.00  0.00    +0.142 HD
ATOM     20  H   UNL     1       0.039  -3.722  -2.465  0.00  0.00    +0.142 HD
ENDBRANCH   4  18
TORSDOF 2
