REMARK  Name = ZINC41681112
REMARK  6 active torsions:
REMARK  status: ('A' for Active; 'I' for Inactive)
REMARK    1  A    between atoms: C_1  and  C_2
REMARK    2  A    between atoms: N_5  and  C_11
REMARK    3  A    between atoms: C_7  and  C_9
REMARK    4  A    between atoms: C_7  and  C_10
REMARK    5  A    between atoms: C_14  and  C_17
REMARK    6  A    between atoms: C_17  and  N_19
REMARK                            x       y       z     vdW  Elec       q    Type
REMARK                         _______ _______ _______ _____ _____    ______ ____
ROOT
ATOM      1  C   UNL     1       0.510  -2.801  -2.188  0.00  0.00    +0.030 A 
ATOM      2  C   UNL     1      -0.135  -2.279  -3.306  0.00  0.00    +0.024 A 
ATOM      3  C   UNL     1      -0.516  -3.111  -4.334  0.00  0.00    +0.012 A 
ATOM      4  C   UNL     1      -0.254  -4.483  -4.255  0.00  0.00    +0.003 A 
ATOM      5  C   UNL     1       0.395  -5.004  -3.131  0.00  0.00    +0.012 A 
ATOM      6  C   UNL     1       0.777  -4.165  -2.108  0.00  0.00    +0.024 A 
ENDROOT
BRANCH   1  10
ATOM      7  C   UNL     1       0.005   1.538  -0.008  0.00  0.00    +0.039 C 
ATOM      8  C   UNL     1       0.011   0.008  -0.011  0.00  0.00    +0.133 C 
ATOM      9  C   UNL     1       0.736  -0.498  -1.264  0.00  0.00    +0.136 C 
ATOM     10  N   UNL     1       0.894  -1.957  -1.151  0.00  0.00    -0.325 N 
ATOM     11  C   UNL     1       1.469  -2.497   0.091  0.00  0.00    +0.139 C 
ATOM     12  C   UNL     1       0.709  -1.893   1.278  0.00  0.00    +0.080 C 
ATOM     13  O   UNL     1       0.692  -0.469   1.152  0.00  0.00    -0.368 OA
ATOM     14  C   UNL     1       1.406  -2.282   2.583  0.00  0.00    +0.043 C 
ATOM     15  C   UNL     1      -0.727  -2.421   1.287  0.00  0.00    +0.043 C 
ENDBRANCH   1  10
BRANCH   4  16
ATOM     16  C   UNL     1      -0.661  -5.377  -5.353  0.00  0.00    +0.077 C 
ATOM     17  S   UNL     1      -0.602  -4.825  -6.972  0.00  0.00    -0.035 S 
BRANCH  16  18
ATOM     18  N   UNL     1      -1.079  -6.629  -5.082  0.00  0.00    -0.352 N 
ATOM     19  H   UNL     1      -1.112  -6.942  -4.165  0.00  0.00    +0.143 HD
ATOM     20  H   UNL     1      -1.347  -7.218  -5.805  0.00  0.00    +0.143 HD
ENDBRANCH  16  18
ENDBRANCH   4  16
TORSDOF 3
