REMARK  Name = ZINC35321135
REMARK  5 active torsions:
REMARK  status: ('A' for Active; 'I' for Inactive)
REMARK    1  A    between atoms: C_1  and  C_2
REMARK    2  A    between atoms: C_3  and  N_19
REMARK    3  A    between atoms: C_4  and  C_18
REMARK    4  A    between atoms: N_5  and  C_7
REMARK    5  A    between atoms: C_7  and  C_8
REMARK                            x       y       z     vdW  Elec       q    Type
REMARK                         _______ _______ _______ _____ _____    ______ ____
ROOT
ATOM      1  C   UNL     1       0.053  -3.294   1.493  0.00  0.00    +0.239 C 
ENDROOT
BRANCH   1   2
ATOM      2  C   UNL     1       1.481  -3.679   1.784  0.00  0.00    +0.240 C 
ATOM      3  O   UNL     1       2.392  -3.030   1.315  0.00  0.00    -0.273 OA
ATOM      4  N   UNL     1       1.745  -4.745   2.566  0.00  0.00    -0.269 N 
ATOM      5  C   UNL     1       3.062  -5.165   2.750  0.00  0.00    +0.125 A 
ATOM      6  C   UNL     1       3.320  -6.326   3.470  0.00  0.00    +0.045 A 
ATOM      7  C   UNL     1       4.631  -6.732   3.645  0.00  0.00    +0.020 A 
ATOM      8  C   UNL     1       5.644  -5.960   3.091  0.00  0.00    +0.036 A 
ATOM      9  C   UNL     1       5.314  -4.817   2.387  0.00  0.00    +0.128 A 
ATOM     10  N   UNL     1       4.054  -4.458   2.232  0.00  0.00    -0.239 NA
ATOM     11 BR   UNL     1       7.454  -6.465   3.298  0.00  0.00    -0.049 Br
ATOM     12  H   UNL     1       1.020  -5.219   3.001  0.00  0.00    +0.156 HD
ENDBRANCH   1   2
BRANCH   1  17
ATOM     13  C   UNL     1      -0.021   1.499   0.004  0.00  0.00    +0.069 C 
ATOM     14  C   UNL     1       0.001  -0.007  -0.004  0.00  0.00    +0.081 A 
ATOM     15  C   UNL     1       0.008  -0.823  -1.144  0.00  0.00    +0.068 A 
ATOM     16  C   UNL     1       0.028  -2.115  -0.732  0.00  0.00    +0.058 A 
ATOM     17  N   UNL     1       0.033  -2.112   0.628  0.00  0.00    -0.258 N 
ATOM     18  N   UNL     1       0.021  -0.778   1.054  0.00  0.00    -0.174 NA
ATOM     19  C   UNL     1       0.042  -3.333  -1.620  0.00  0.00    +0.067 C 
BRANCH  15  20
ATOM     20  N   UNL     1      -0.004  -0.379  -2.480  0.00  0.00    -0.355 N 
ATOM     21  H   UNL     1      -0.018   0.571  -2.676  0.00  0.00    +0.142 HD
ATOM     22  H   UNL     1       0.003  -1.023  -3.206  0.00  0.00    +0.142 HD
ENDBRANCH  15  20
ENDBRANCH   1  17
TORSDOF 3
