REMARK  Name = ZINC13036414
REMARK  4 active torsions:
REMARK  status: ('A' for Active; 'I' for Inactive)
REMARK    1  A    between atoms: C_1  and  C_2
REMARK    2  A    between atoms: C_6  and  C_7
REMARK    3  A    between atoms: C_26  and  O_29
REMARK    4  A    between atoms: O_29  and  C_30
REMARK                            x       y       z     vdW  Elec       q    Type
REMARK                         _______ _______ _______ _____ _____    ______ ____
ROOT
ATOM      1  C   UNL     1       0.030  -0.179   2.581  0.00  0.00    +0.300 C 
ATOM      2  N   UNL     1      -0.648  -1.109   3.447  0.00  0.00    -0.179 NA
ATOM      3  C   UNL     1      -0.522  -0.688   4.871  0.00  0.00    +0.119 C 
ATOM      4  C   UNL     1      -1.328  -1.841   5.506  0.00  0.00    +0.078 C 
ATOM      5  C   UNL     1      -0.941  -2.989   4.569  0.00  0.00    +0.032 C 
ATOM      6  C   UNL     1      -1.037  -4.354   4.849  0.00  0.00    +0.040 C 
ATOM      7  C   UNL     1      -1.535  -4.803   6.092  0.00  0.00    +0.013 C 
ATOM      8  C   UNL     1      -1.621  -6.135   6.346  0.00  0.00    +0.001 C 
ATOM      9  C   UNL     1      -1.227  -7.082   5.404  0.00  0.00    +0.004 C 
ATOM     10  C   UNL     1      -0.739  -6.716   4.187  0.00  0.00    +0.051 C 
ATOM     11  C   UNL     1      -0.628  -5.355   3.855  0.00  0.00    +0.188 C 
ATOM     12  O   UNL     1      -0.196  -5.011   2.763  0.00  0.00    -0.287 OA
ATOM     13  N   UNL     1      -0.487  -2.434   3.415  0.00  0.00    -0.277 N 
ATOM     14  C   UNL     1      -1.179   0.657   4.962  0.00  0.00    +0.017 A 
ATOM     15  C   UNL     1      -1.759   1.086   6.137  0.00  0.00    +0.009 A 
ATOM     16  C   UNL     1      -2.350   2.334   6.207  0.00  0.00    +0.004 A 
ATOM     17  C   UNL     1      -2.358   3.155   5.094  0.00  0.00    +0.049 A 
ATOM     18  C   UNL     1      -1.782   2.728   3.911  0.00  0.00    +0.162 A 
ATOM     19  C   UNL     1      -1.189   1.468   3.833  0.00  0.00    +0.169 A 
ATOM     20  O   UNL     1      -0.683   1.069   2.647  0.00  0.00    -0.464 OA
ATOM     21  H   UNL     1      -0.101  -2.928   2.675  0.00  0.00    +0.166 HD
ENDROOT
BRANCH   1  27
ATOM     22  C   UNL     1      -0.018   1.503   0.010  0.00  0.00    +0.045 C 
ATOM     23  C   UNL     1       0.002  -0.004   0.002  0.00  0.00    -0.035 A 
ATOM     24  C   UNL     1       0.006  -0.699  -1.193  0.00  0.00    +0.011 A 
ATOM     25  C   UNL     1       0.024  -2.054  -1.165  0.00  0.00    +0.046 A 
ATOM     26  S   UNL     1       0.037  -2.387   0.589  0.00  0.00    -0.096 S 
ATOM     27  C   UNL     1       0.023  -0.698   1.166  0.00  0.00    +0.049 A 
ENDBRANCH   1  27
BRANCH  18  28
ATOM     28  O   UNL     1      -1.793   3.541   2.821  0.00  0.00    -0.491 OA
ATOM     29  C   UNL     1      -2.416   4.818   2.969  0.00  0.00    +0.277 C 
ENDBRANCH  18  28
TORSDOF 2
