REMARK  Name = ZINC39933228
REMARK  12 active torsions:
REMARK  status: ('A' for Active; 'I' for Inactive)
REMARK    1  A    between atoms: C_1  and  C_2
REMARK    2  A    between atoms: C_2  and  C_3
REMARK    3  A    between atoms: C_2  and  C_4
REMARK    4  A    between atoms: C_2  and  C_5
REMARK    5  A    between atoms: C_7  and  C_16
REMARK    6  A    between atoms: C_9  and  C_12
REMARK    7  A    between atoms: C_10  and  O_11
REMARK    8  A    between atoms: C_12  and  C_13
REMARK    9  A    between atoms: C_12  and  C_14
REMARK   10  A    between atoms: C_12  and  C_15
REMARK   11  A    between atoms: N_17  and  N_18
REMARK   12  A    between atoms: N_18  and  C_19
REMARK                            x       y       z     vdW  Elec       q    Type
REMARK                         _______ _______ _______ _____ _____    ______ ____
ROOT
ATOM      1  C   UNL     1       1.274  -0.412  -0.942  0.00  0.00    +0.000 A 
ATOM      2  C   UNL     1       1.380   0.388  -2.059  0.00  0.00    +0.017 A 
ATOM      3  C   UNL     1       2.319   0.082  -3.048  0.00  0.00    -0.005 A 
ATOM      4  C   UNL     1       3.147  -1.033  -2.898  0.00  0.00    +0.017 A 
ATOM      5  C   UNL     1       3.034  -1.828  -1.777  0.00  0.00    +0.000 A 
ATOM      6  C   UNL     1       2.103  -1.517  -0.795  0.00  0.00    +0.124 A 
ENDROOT
BRANCH   1   8
ATOM      7  C   UNL     1      -0.515   1.171  -0.278  0.00  0.00    +0.015 C 
ATOM      8  C   UNL     1       0.262  -0.084   0.125  0.00  0.00    -0.009 C 
ATOM      9  C   UNL     1       0.983   0.167   1.452  0.00  0.00    +0.015 C 
ATOM     10  C   UNL     1      -0.709  -1.256   0.286  0.00  0.00    +0.015 C 
ENDBRANCH   1   8
BRANCH   5  11
ATOM     11  C   UNL     1       3.926  -3.031  -1.615  0.00  0.00    -0.009 C 
ATOM     12  C   UNL     1       4.856  -3.143  -2.824  0.00  0.00    +0.015 C 
ATOM     13  C   UNL     1       4.760  -2.880  -0.342  0.00  0.00    +0.015 C 
ATOM     14  C   UNL     1       3.067  -4.293  -1.514  0.00  0.00    +0.015 C 
ENDBRANCH   5  11
BRANCH   6  15
ATOM     15  O   UNL     1       1.998  -2.300   0.311  0.00  0.00    -0.506 OA
ATOM     16  H   UNL     1       1.370  -3.030   0.218  0.00  0.00    +0.292 HD
ENDBRANCH   6  15
BRANCH   3  17
ATOM     17  C   UNL     1       2.436   0.935  -4.245  0.00  0.00    +0.138 C 
ATOM     18  N   UNL     1       3.104   0.517  -5.276  0.00  0.00    -0.191 NA
BRANCH  18  19
ATOM     19  N   UNL     1       3.245  -0.857  -5.510  0.00  0.00    -0.229 N 
ATOM     20  H   UNL     1       2.768  -1.495  -4.956  0.00  0.00    +0.172 HD
BRANCH  19  21
ATOM     21  C   UNL     1       4.114  -1.331  -6.590  0.00  0.00    +0.283 C 
ATOM     22  N   UNL     1       3.332  -1.524  -7.818  0.00  0.00    -0.347 N 
ATOM     23  C   UNL     1       3.424  -2.781  -8.146  0.00  0.00    +0.061 A 
ATOM     24  C   UNL     1       2.870  -3.566  -9.257  0.00  0.00    +0.027 A 
ATOM     25  C   UNL     1       3.143  -4.884  -9.341  0.00  0.00    +0.002 A 
ATOM     26  C   UNL     1       3.946  -5.553  -8.401  0.00  0.00    +0.002 A 
ATOM     27  C   UNL     1       4.503  -4.928  -7.345  0.00  0.00    +0.027 A 
ATOM     28  C   UNL     1       4.275  -3.489  -7.151  0.00  0.00    +0.061 A 
ATOM     29  N   UNL     1       4.676  -2.643  -6.246  0.00  0.00    -0.347 N 
ATOM     30  H   UNL     1       2.837  -0.841  -8.296  0.00  0.00    +0.163 HD
ATOM     31  H   UNL     1       5.242  -2.844  -5.484  0.00  0.00    +0.163 HD
ENDBRANCH  19  21
ENDBRANCH  18  19
ENDBRANCH   3  17
TORSDOF 6
