REMARK  Name = ZINC41101386
REMARK  7 active torsions:
REMARK  status: ('A' for Active; 'I' for Inactive)
REMARK    1  A    between atoms: C_1  and  C_2
REMARK    2  A    between atoms: C_3  and  N_20
REMARK    3  A    between atoms: C_5  and  C_7
REMARK    4  A    between atoms: C_7  and  O_9
REMARK    5  A    between atoms: O_9  and  C_10
REMARK    6  A    between atoms: C_10  and  C_11
REMARK    7  A    between atoms: N_16  and  C_19
REMARK                            x       y       z     vdW  Elec       q    Type
REMARK                         _______ _______ _______ _____ _____    ______ ____
ROOT
ATOM      1  C   UNL     1       1.081  -3.939  -0.023  0.00  0.00    +0.346 C 
ATOM      2  O   UNL     1       0.351  -4.912  -0.025  0.00  0.00    -0.244 OA
ENDROOT
BRANCH   1   7
ATOM      3  C   UNL     1      -0.018   1.503   0.010  0.00  0.00    +0.053 C 
ATOM      4  C   UNL     1       0.002  -0.004   0.002  0.00  0.00    +0.008 A 
ATOM      5  C   UNL     1      -1.060  -0.854   0.002  0.00  0.00    +0.035 A 
ATOM      6  C   UNL     1      -0.827  -2.211  -0.006  0.00  0.00    +0.045 A 
ATOM      7  C   UNL     1       0.508  -2.593  -0.014  0.00  0.00    +0.098 A 
ATOM      8  S   UNL     1       1.342  -1.017  -0.017  0.00  0.00    -0.085 S 
BRANCH   5   9
ATOM      9  N   UNL     1      -2.376  -0.354   0.011  0.00  0.00    -0.357 N 
ATOM     10  H   UNL     1      -2.530   0.604   0.017  0.00  0.00    +0.142 HD
ATOM     11  H   UNL     1      -3.127  -0.967   0.011  0.00  0.00    +0.142 HD
ENDBRANCH   5   9
ENDBRANCH   1   7
BRANCH   1  12
ATOM     12  O   UNL     1       2.421  -4.102  -0.030  0.00  0.00    -0.451 OA
BRANCH  12  13
ATOM     13  C   UNL     1       2.911  -5.444  -0.039  0.00  0.00    +0.328 C 
BRANCH  13  14
ATOM     14  C   UNL     1       4.418  -5.428  -0.046  0.00  0.00    +0.253 C 
ATOM     15  O   UNL     1       5.013  -4.371  -0.043  0.00  0.00    -0.272 OA
ATOM     16  N   UNL     1       5.104  -6.588  -0.055  0.00  0.00    -0.296 N 
ATOM     17  C   UNL     1       4.402  -7.880  -0.064  0.00  0.00    +0.123 C 
ATOM     18  C   UNL     1       4.970  -8.735  -1.202  0.00  0.00    +0.103 C 
ATOM     19  N   UNL     1       6.429  -8.822  -1.064  0.00  0.00    -0.302 NA
ATOM     20  C   UNL     1       7.057  -7.500  -1.194  0.00  0.00    +0.103 C 
ATOM     21  C   UNL     1       6.575  -6.595  -0.061  0.00  0.00    +0.123 C 
ATOM     22  C   UNL     1       6.994  -9.770  -2.033  0.00  0.00    +0.105 C 
ENDBRANCH  13  14
ENDBRANCH  12  13
ENDBRANCH   1  12
TORSDOF 5
