REMARK  Name = ZINC41067837
REMARK  4 active torsions:
REMARK  status: ('A' for Active; 'I' for Inactive)
REMARK    1  A    between atoms: C_1  and  C_2
REMARK    2  A    between atoms: N_8  and  S_9
REMARK    3  A    between atoms: S_9  and  C_12
REMARK    4  A    between atoms: C_14  and  N_17
REMARK                            x       y       z     vdW  Elec       q    Type
REMARK                         _______ _______ _______ _____ _____    ______ ____
ROOT
ATOM      1  S   UNL     1       0.072  -4.449   2.227  0.00  0.00    +0.107 S 
ATOM      2  O   UNL     1      -1.171  -4.858   1.672  0.00  0.00    -0.146 OA
ATOM      3  O   UNL     1       1.319  -4.825   1.660  0.00  0.00    -0.146 OA
ENDROOT
BRANCH   1  11
ATOM      4  C   UNL     1      -0.018   1.503   0.010  0.00  0.00    +0.044 C 
ATOM      5  C   UNL     1       0.002  -0.004   0.002  0.00  0.00    -0.046 A 
ATOM      6  C   UNL     1       0.006  -0.704  -1.217  0.00  0.00    +0.021 A 
ATOM      7  C   UNL     1       0.024  -2.053  -1.230  0.00  0.00    +0.084 A 
ATOM      8  N   UNL     1       0.039  -2.761  -0.066  0.00  0.00    -0.345 N 
ATOM      9  C   UNL     1       0.036  -2.108   1.143  0.00  0.00    +0.153 A 
ATOM     10  C   UNL     1       0.022  -0.693   1.173  0.00  0.00    +0.051 A 
ATOM     11  N   UNL     1       0.051  -2.794   2.267  0.00  0.00    -0.110 NA
ATOM     12  H   UNL     1       0.052  -3.731  -0.090  0.00  0.00    +0.167 HD
ENDBRANCH   1  11
BRANCH   1  13
ATOM     13  C   UNL     1       0.087  -5.011   3.896  0.00  0.00    +0.152 A 
ATOM     14  C   UNL     1      -0.960  -5.302   4.708  0.00  0.00    +0.059 A 
ATOM     15  C   UNL     1      -0.707  -5.733   6.000  0.00  0.00    +0.034 A 
ATOM     16  C   UNL     1       0.583  -5.850   6.412  0.00  0.00    +0.069 A 
ATOM     17  S   UNL     1       1.484  -5.352   4.954  0.00  0.00    -0.075 S 
BRANCH  15  18
ATOM     18  N   UNL     1      -1.768  -6.044   6.872  0.00  0.00    -0.358 N 
ATOM     19  H   UNL     1      -2.686  -5.957   6.569  0.00  0.00    +0.142 HD
ATOM     20  H   UNL     1      -1.582  -6.345   7.775  0.00  0.00    +0.142 HD
ENDBRANCH  15  18
ENDBRANCH   1  13
TORSDOF 3
