REMARK  Name = ZINC40690459
REMARK  7 active torsions:
REMARK  status: ('A' for Active; 'I' for Inactive)
REMARK    1  A    between atoms: C_1  and  C_2
REMARK    2  A    between atoms: C_2  and  O_4
REMARK    3  A    between atoms: O_4  and  C_5
REMARK    4  A    between atoms: C_7  and  C_33
REMARK    5  A    between atoms: C_9  and  C_32
REMARK    6  A    between atoms: C_24  and  C_31
REMARK    7  A    between atoms: C_27  and  O_30
REMARK                            x       y       z     vdW  Elec       q    Type
REMARK                         _______ _______ _______ _____ _____    ______ ____
ROOT
ATOM      1  C   UNL     1      -1.077  -2.138   0.121  0.00  0.00    +0.216 C 
ATOM      2  C   UNL     1      -1.210  -2.548  -1.368  0.00  0.00    +0.071 C 
ATOM      3  C   UNL     1      -1.588  -4.051  -1.271  0.00  0.00    +0.010 C 
ATOM      4  C   UNL     1      -0.321  -4.838  -0.937  0.00  0.00    +0.010 C 
ATOM      5  C   UNL     1      -0.631  -6.239  -0.432  0.00  0.00    +0.005 C 
ATOM      6  C   UNL     1      -2.129  -6.516  -0.386  0.00  0.00    +0.001 C 
ATOM      7  C   UNL     1      -2.816  -5.485   0.521  0.00  0.00    +0.028 C 
ATOM      8  C   UNL     1      -2.543  -4.104  -0.061  0.00  0.00    +0.109 C 
ATOM      9  C   UNL     1      -2.226  -2.891   0.825  0.00  0.00    +0.193 C 
ATOM     10  O   UNL     1      -3.469  -3.040   0.131  0.00  0.00    -0.360 OA
ATOM     11  C   UNL     1      -4.319  -5.770   0.558  0.00  0.00    +0.007 C 
ATOM     12  C   UNL     1      -4.558  -7.175   1.115  0.00  0.00    +0.004 C 
ATOM     13  C   UNL     1      -3.866  -8.205   0.220  0.00  0.00    -0.002 C 
ATOM     14  C   UNL     1      -2.384  -7.917   0.171  0.00  0.00    -0.026 C 
ATOM     15  C   UNL     1      -1.829  -8.010   1.594  0.00  0.00    +0.010 C 
ATOM     16  C   UNL     1      -2.085  -9.412   2.151  0.00  0.00    +0.032 C 
ATOM     17  C   UNL     1      -3.590  -9.686   2.171  0.00  0.00    +0.115 C 
ATOM     18  C   UNL     1      -4.101  -9.608   0.782  0.00  0.00    +0.035 C 
ATOM     19  C   UNL     1      -1.691  -8.953  -0.717  0.00  0.00    +0.012 C 
ATOM     20  C   UNL     1      -2.265  -4.550  -2.549  0.00  0.00    +0.015 C 
ENDROOT
BRANCH   2  21
ATOM     21  C   UNL     1      -2.303  -1.760  -2.044  0.00  0.00    -0.030 A 
ATOM     22  C   UNL     1      -2.414  -1.750  -3.445  0.00  0.00    +0.042 A 
ATOM     23  C   UNL     1      -3.397  -1.040  -4.037  0.00  0.00    +0.199 A 
ATOM     24  O   UNL     1      -4.277  -0.339  -3.308  0.00  0.00    -0.431 OA
ATOM     25  C   UNL     1      -4.207  -0.321  -1.967  0.00  0.00    +0.337 A 
ATOM     26  O   UNL     1      -5.018   0.324  -1.323  0.00  0.00    -0.245 OA
ATOM     27  C   UNL     1      -3.203  -1.050  -1.304  0.00  0.00    +0.096 A 
ENDBRANCH   2  21
BRANCH  17  28
ATOM     28  O   UNL     1      -3.828 -10.996   2.690  0.00  0.00    -0.392 OA
ATOM     29  H   UNL     1      -3.502 -11.128   3.591  0.00  0.00    +0.210 HD
ENDBRANCH  17  28
BRANCH   1  30
ATOM     30  O   UNL     1      -1.238  -0.726   0.269  0.00  0.00    -0.458 OA
BRANCH  30  32
ATOM     31  C   UNL     1      -0.214   1.516   0.404  0.00  0.00    +0.136 C 
ATOM     32  C   UNL     1      -0.122   0.020   0.253  0.00  0.00    +0.304 C 
ATOM     33  O   UNL     1       0.956  -0.509   0.118  0.00  0.00    -0.251 OA
ENDBRANCH  30  32
ENDBRANCH   1  30
TORSDOF 4
