REMARK  Name = ZINC40750008
REMARK  5 active torsions:
REMARK  status: ('A' for Active; 'I' for Inactive)
REMARK    1  A    between atoms: C_1  and  C_2
REMARK    2  A    between atoms: C_2  and  N_9
REMARK    3  A    between atoms: C_10  and  C_12
REMARK    4  A    between atoms: C_12  and  N_13
REMARK    5  A    between atoms: C_21  and  N_23
REMARK                            x       y       z     vdW  Elec       q    Type
REMARK                         _______ _______ _______ _____ _____    ______ ____
ROOT
ATOM      1  C   UNL     1      -3.844  -0.984  -0.908  0.00  0.00    +0.181 C 
ENDROOT
BRANCH   1   2
ATOM      2  N   UNL     1      -4.532  -0.358  -2.045  0.00  0.00    -0.288 NA
ATOM      3  C   UNL     1      -4.795   1.082  -1.783  0.00  0.00    +0.056 C 
ATOM      4  C   UNL     1      -6.013   1.079  -0.831  0.00  0.00    +0.020 C 
ATOM      5  C   UNL     1      -6.739  -0.251  -1.123  0.00  0.00    +0.020 C 
ATOM      6  C   UNL     1      -5.893  -0.931  -2.224  0.00  0.00    +0.056 C 
ATOM      7  C   UNL     1      -6.416  -0.445  -3.586  0.00  0.00    +0.003 C 
ATOM      8  C   UNL     1      -6.562   1.079  -3.546  0.00  0.00    -0.072 C 
ATOM      9  C   UNL     1      -5.222   1.717  -3.115  0.00  0.00    +0.003 C 
BRANCH   8  10
ATOM     10  N   UNL     1      -7.615   1.444  -2.590  0.00  0.00    +0.380 N 
ATOM     11  H   UNL     1      -7.367   1.107  -1.671  0.00  0.00    -0.090 HD
ATOM     12  H   UNL     1      -7.713   2.448  -2.564  0.00  0.00    -0.090 HD
ATOM     13  H   UNL     1      -8.489   1.028  -2.876  0.00  0.00    -0.090 HD
ENDBRANCH   8  10
ENDBRANCH   1   2
BRANCH   1  15
ATOM     14  N   UNL     1      -1.565  -1.019   0.054  0.00  0.00    -0.307 N 
ATOM     15  C   UNL     1      -2.397  -0.565  -0.905  0.00  0.00    +0.228 C 
ATOM     16  O   UNL     1      -1.979   0.182  -1.765  0.00  0.00    -0.274 OA
ATOM     17  H   UNL     1      -1.899  -1.616   0.742  0.00  0.00    +0.149 HD
BRANCH  14  19
ATOM     18  C   UNL     1      -0.091   0.914   0.164  0.00  0.00    +0.033 C 
ATOM     19  C   UNL     1      -0.158  -0.611   0.057  0.00  0.00    +0.053 C 
ATOM     20  C   UNL     1       0.474  -1.038  -1.267  0.00  0.00    +0.049 C 
ATOM     21  C   UNL     1       1.995  -1.297  -1.079  0.00  0.00    +0.168 C 
ATOM     22  S   UNL     1       1.964  -2.126   0.571  0.00  0.00    -0.029 S 
ATOM     23  O   UNL     1       1.618  -3.494   0.400  0.00  0.00    -0.174 OA
ATOM     24  O   UNL     1       3.142  -1.784   1.289  0.00  0.00    -0.174 OA
ATOM     25  C   UNL     1       0.530  -1.224   1.292  0.00  0.00    +0.191 C 
ENDBRANCH  14  19
ENDBRANCH   1  15
TORSDOF 4
