REMARK  Name = ZINC56362859
REMARK  4 active torsions:
REMARK  status: ('A' for Active; 'I' for Inactive)
REMARK    1  A    between atoms: C_1  and  C_2
REMARK    2  A    between atoms: C_2  and  C_4
REMARK    3  A    between atoms: C_2  and  N_22
REMARK    4  A    between atoms: C_10  and  C_12
REMARK                            x       y       z     vdW  Elec       q    Type
REMARK                         _______ _______ _______ _____ _____    ______ ____
ROOT
ATOM      1  C   UNL     1      -1.391  -0.566   0.128  0.00  0.00    +0.236 C 
ATOM      2  O   UNL     1      -1.700  -1.205   1.111  0.00  0.00    -0.274 OA
ATOM      3  N   UNL     1      -2.294  -0.354  -0.850  0.00  0.00    -0.293 N 
ATOM      4  C   UNL     1      -2.025   0.309  -2.139  0.00  0.00    +0.108 C 
ATOM      5  C   UNL     1      -3.401   0.850  -2.600  0.00  0.00    +0.021 C 
ATOM      6  C   UNL     1      -4.354  -0.280  -2.130  0.00  0.00    +0.029 C 
ATOM      7  C   UNL     1      -3.708  -0.753  -0.811  0.00  0.00    +0.107 C 
ENDROOT
BRANCH   7   8
ATOM      8  C   UNL     1      -3.816  -2.251  -0.692  0.00  0.00    -0.019 A 
ATOM      9  C   UNL     1      -2.762  -3.042  -1.035  0.00  0.00    +0.006 A 
ATOM     10  C   UNL     1      -2.842  -4.429  -0.932  0.00  0.00    +0.001 A 
ATOM     11  C   UNL     1      -3.978  -5.034  -0.487  0.00  0.00    +0.008 A 
ATOM     12  C   UNL     1      -5.086  -4.251  -0.124  0.00  0.00    -0.018 A 
ATOM     13  C   UNL     1      -5.002  -2.839  -0.223  0.00  0.00    -0.013 A 
ATOM     14  C   UNL     1      -6.109  -2.056   0.146  0.00  0.00    +0.009 A 
ATOM     15  C   UNL     1      -7.242  -2.660   0.596  0.00  0.00    +0.001 A 
ATOM     16  C   UNL     1      -7.323  -4.048   0.699  0.00  0.00    +0.001 A 
ATOM     17  C   UNL     1      -6.276  -4.839   0.339  0.00  0.00    +0.008 A 
ENDBRANCH   7   8
BRANCH   1  19
ATOM     18  C   UNL     1       0.023   1.436   0.505  0.00  0.00    +0.038 C 
ATOM     19  C   UNL     1       0.003  -0.008  -0.000  0.00  0.00    +0.157 C 
BRANCH  19  20
ATOM     20  N   UNL     1       0.928  -0.817   0.798  0.00  0.00    -0.289 N 
ATOM     21  C   UNL     1       2.237  -0.859   0.476  0.00  0.00    +0.298 C 
ATOM     22  O   UNL     1       2.649  -0.225  -0.476  0.00  0.00    -0.253 OA
ATOM     23  N   UNL     1       3.087  -1.603   1.210  0.00  0.00    -0.313 N 
ATOM     24  H   UNL     1       0.599  -1.322   1.557  0.00  0.00    +0.151 HD
ATOM     25  H   UNL     1       2.758  -2.108   1.970  0.00  0.00    +0.146 HD
ATOM     26  H   UNL     1       4.029  -1.633   0.978  0.00  0.00    +0.146 HD
ENDBRANCH  19  20
ENDBRANCH   1  19
TORSDOF 3
