REMARK  Name = ZINC59385643
REMARK  8 active torsions:
REMARK  status: ('A' for Active; 'I' for Inactive)
REMARK    1  A    between atoms: C_1  and  C_2
REMARK    2  A    between atoms: C_3  and  C_19
REMARK    3  A    between atoms: C_4  and  C_10
REMARK    4  A    between atoms: C_13  and  N_16
REMARK    5  A    between atoms: N_16  and  C_17
REMARK    6  A    between atoms: N_16  and  C_18
REMARK    7  A    between atoms: N_21  and  N_22
REMARK    8  A    between atoms: C_23  and  C_24
REMARK                            x       y       z     vdW  Elec       q    Type
REMARK                         _______ _______ _______ _____ _____    ______ ____
ROOT
ATOM      1  C   UNL     1      -0.007   1.505  -0.004  0.00  0.00    +0.061 C 
ATOM      2  C   UNL     1       0.017  -0.000  -0.076  0.00  0.00    +0.019 C 
ATOM      3  C   UNL     1      -1.145  -0.685  -0.031  0.00  0.00    +0.057 C 
ATOM      4  C   UNL     1      -1.077  -2.197  -0.107  0.00  0.00    +0.142 C 
ATOM      5  N   UNL     1       0.262  -2.799  -0.223  0.00  0.00    -0.288 N 
ATOM      6  C   UNL     1       1.333  -1.981  -0.256  0.00  0.00    +0.304 C 
ATOM      7  O   UNL     1       2.442  -2.469  -0.352  0.00  0.00    -0.252 OA
ATOM      8  N   UNL     1       1.214  -0.649  -0.191  0.00  0.00    -0.273 N 
ATOM      9  H   UNL     1       0.371  -3.762  -0.275  0.00  0.00    +0.151 HD
ATOM     10  H   UNL     1       2.023  -0.115  -0.223  0.00  0.00    +0.156 HD
ENDROOT
BRANCH   4  11
ATOM     11  C   UNL     1      -1.729  -2.754   1.132  0.00  0.00    -0.022 A 
ATOM     12  C   UNL     1      -1.071  -2.692   2.346  0.00  0.00    +0.007 A 
ATOM     13  C   UNL     1      -1.666  -3.201   3.483  0.00  0.00    +0.023 A 
ATOM     14  C   UNL     1      -2.928  -3.777   3.406  0.00  0.00    +0.029 A 
ATOM     15  C   UNL     1      -3.587  -3.838   2.185  0.00  0.00    +0.023 A 
ATOM     16  C   UNL     1      -2.988  -3.321   1.053  0.00  0.00    +0.007 A 
BRANCH  14  17
ATOM     17  N   UNL     1      -3.533  -4.294   4.554  0.00  0.00    -0.336 N 
ATOM     18  C   UNL     1      -2.890  -4.125   5.860  0.00  0.00    +0.129 C 
ATOM     19  C   UNL     1      -4.810  -5.004   4.453  0.00  0.00    +0.129 C 
ENDBRANCH  14  17
ENDBRANCH   4  11
BRANCH   3  20
ATOM     20  C   UNL     1      -2.387  -0.013   0.083  0.00  0.00    +0.263 C 
ATOM     21  O   UNL     1      -3.082   0.154  -0.904  0.00  0.00    -0.269 OA
ATOM     22  N   UNL     1      -2.800   0.440   1.283  0.00  0.00    -0.203 N 
ATOM     23  H   UNL     1      -2.216   0.373   2.054  0.00  0.00    +0.178 HD
BRANCH  22  24
ATOM     24  N   UNL     1      -4.074   1.009   1.416  0.00  0.00    -0.187 NA
ATOM     25  C   UNL     1      -4.471   1.446   2.571  0.00  0.00    +0.138 C 
BRANCH  25  26
ATOM     26  C   UNL     1      -5.812   2.045   2.712  0.00  0.00    -0.005 A 
ATOM     27  C   UNL     1      -6.657   2.138   1.604  0.00  0.00    +0.012 A 
ATOM     28  C   UNL     1      -7.910   2.700   1.741  0.00  0.00    +0.039 A 
ATOM     29  C   UNL     1      -8.329   3.170   2.975  0.00  0.00    +0.123 A 
ATOM     30  C   UNL     1      -7.495   3.080   4.078  0.00  0.00    +0.039 A 
ATOM     31  C   UNL     1      -6.243   2.516   3.954  0.00  0.00    +0.012 A 
ATOM     32  F   UNL     1      -9.557   3.720   3.103  0.00  0.00    -0.205 F 
ENDBRANCH  25  26
ENDBRANCH  22  24
ENDBRANCH   3  20
TORSDOF 5
