REMARK  Name = ZINC08890069
REMARK  6 active torsions:
REMARK  status: ('A' for Active; 'I' for Inactive)
REMARK    1  A    between atoms: C_1  and  C_2
REMARK    2  A    between atoms: C_2  and  C_3
REMARK    3  A    between atoms: C_3  and  C_5
REMARK    4  A    between atoms: C_3  and  N_12
REMARK    5  A    between atoms: C_13  and  C_15
REMARK    6  A    between atoms: C_15  and  N_16
REMARK                            x       y       z     vdW  Elec       q    Type
REMARK                         _______ _______ _______ _____ _____    ______ ____
ROOT
ATOM      1  N   UNL     1       0.217   5.120   1.144  0.00  0.00    -0.215 N 
ATOM      2  C   UNL     1       1.172   4.187   1.351  0.00  0.00    +0.251 C 
ATOM      3  O   UNL     1       1.708   3.903   2.401  0.00  0.00    -0.272 OA
ATOM      4  C   UNL     1       1.427   3.575  -0.001  0.00  0.00    +0.138 C 
ATOM      5  C   UNL     1       2.889   3.756  -0.427  0.00  0.00    +0.045 C 
ATOM      6  C   UNL     1       3.521   2.410  -0.005  0.00  0.00    +0.038 C 
ATOM      7  C   UNL     1       2.378   1.416  -0.009  0.00  0.00    -0.042 A 
ATOM      8  C   UNL     1       1.169   2.092   0.002  0.00  0.00    -0.012 A 
ATOM      9  C   UNL     1      -0.017   1.377   0.010  0.00  0.00    +0.006 A 
ATOM     10  C   UNL     1       0.002  -0.004   0.002  0.00  0.00    +0.000 A 
ATOM     11  C   UNL     1       1.209  -0.678  -0.013  0.00  0.00    +0.000 A 
ATOM     12  C   UNL     1       2.393   0.032  -0.018  0.00  0.00    +0.004 A 
ATOM     13  N   UNL     1       0.517   4.282  -0.904  0.00  0.00    -0.281 N 
ATOM     14  C   UNL     1      -0.152   5.170  -0.142  0.00  0.00    +0.310 C 
ATOM     15  O   UNL     1      -0.996   5.931  -0.574  0.00  0.00    -0.252 OA
ATOM     16  H   UNL     1       0.416   4.139  -1.858  0.00  0.00    +0.152 HD
ENDROOT
BRANCH   1  17
ATOM     17  C   UNL     1      -0.344   5.971   2.196  0.00  0.00    +0.213 C 
BRANCH  17  19
ATOM     18  N   UNL     1      -2.223   5.891   3.803  0.00  0.00    -0.307 N 
ATOM     19  C   UNL     1      -1.541   5.290   2.808  0.00  0.00    +0.231 C 
ATOM     20  O   UNL     1      -1.891   4.201   2.405  0.00  0.00    -0.274 OA
ATOM     21  H   UNL     1      -1.944   6.762   4.125  0.00  0.00    +0.149 HD
BRANCH  18  22
ATOM     22  C   UNL     1      -3.387   5.229   4.398  0.00  0.00    +0.103 C 
BRANCH  22  23
ATOM     23  C   UNL     1      -3.591   5.737   5.802  0.00  0.00    -0.027 A 
ATOM     24  C   UNL     1      -3.406   7.077   6.085  0.00  0.00    +0.006 A 
ATOM     25  C   UNL     1      -3.597   7.544   7.372  0.00  0.00    +0.015 A 
ATOM     26  C   UNL     1      -3.964   6.669   8.378  0.00  0.00    +0.018 A 
ATOM     27  C   UNL     1      -4.145   5.327   8.095  0.00  0.00    +0.015 A 
ATOM     28  C   UNL     1      -3.958   4.862   6.807  0.00  0.00    +0.006 A 
ATOM     29 BR   UNL     1      -4.220   7.306  10.140  0.00  0.00    -0.050 Br
ENDBRANCH  22  23
BRANCH  22  31
ATOM     30  C   UNL     1      -4.475   4.909   2.171  0.00  0.00    +0.006 C 
ATOM     31  C   UNL     1      -4.630   5.533   3.560  0.00  0.00    +0.024 C 
ENDBRANCH  22  31
ENDBRANCH  18  22
ENDBRANCH  17  19
ENDBRANCH   1  17
TORSDOF 5
