REMARK  Name = ZINC01248511
REMARK  3 active torsions:
REMARK  status: ('A' for Active; 'I' for Inactive)
REMARK    1  A    between atoms: C_10  and  N_11
REMARK    2  A    between atoms: C_12  and  C_14
REMARK    3  A    between atoms: C_14  and  C_15
REMARK                            x       y       z     vdW  Elec       q    Type
REMARK                         _______ _______ _______ _____ _____    ______ ____
ROOT
ATOM      1  N   UNL     1       4.871   0.098  -0.045  0.00  0.00    -0.285 N 
ATOM      2  C   UNL     1       6.047  -0.555   0.042  0.00  0.00    +0.219 C 
ATOM      3  O   UNL     1       6.068  -1.768   0.036  0.00  0.00    -0.275 OA
ATOM      4  H   UNL     1       4.858   1.065  -0.121  0.00  0.00    +0.155 HD
ENDROOT
BRANCH   1  14
ATOM      5  C   UNL     1       0.203   0.945  -1.767  0.00  0.00    +0.001 A 
ATOM      6  C   UNL     1       1.389   1.676  -1.797  0.00  0.00    +0.001 A 
ATOM      7  C   UNL     1       2.529   1.185  -1.236  0.00  0.00    +0.010 A 
ATOM      8  C   UNL     1       2.511  -0.076  -0.618  0.00  0.00    +0.003 A 
ATOM      9  C   UNL     1       1.306  -0.819  -0.587  0.00  0.00    -0.016 A 
ATOM     10  C   UNL     1       0.149  -0.280  -1.177  0.00  0.00    +0.008 A 
ATOM     11  C   UNL     1       1.286  -2.080   0.032  0.00  0.00    +0.008 A 
ATOM     12  C   UNL     1       2.422  -2.578   0.596  0.00  0.00    +0.002 A 
ATOM     13  C   UNL     1       3.612  -1.857   0.572  0.00  0.00    +0.024 A 
ATOM     14  C   UNL     1       3.672  -0.617  -0.026  0.00  0.00    +0.041 A 
ENDBRANCH   1  14
BRANCH   2  15
ATOM     15  C   UNL     1       7.334   0.221   0.146  0.00  0.00    +0.120 C 
BRANCH  15  16
ATOM     16  C   UNL     1       8.511  -0.753   0.231  0.00  0.00    +0.146 C 
ATOM     17  C   UNL     1       9.789   0.015   0.449  0.00  0.00    +0.231 C 
ATOM     18  O   UNL     1      10.224   0.103   1.578  0.00  0.00    -0.274 OA
ATOM     19  N   UNL     1      10.463   0.599  -0.536  0.00  0.00    -0.284 N 
ATOM     20  C   UNL     1      10.189   0.510  -1.897  0.00  0.00    +0.047 A 
ATOM     21  C   UNL     1      10.757   1.438  -2.766  0.00  0.00    +0.024 A 
ATOM     22  C   UNL     1      10.492   1.377  -4.120  0.00  0.00    +0.002 A 
ATOM     23  C   UNL     1       9.660   0.395  -4.628  0.00  0.00    +0.001 A 
ATOM     24  C   UNL     1       9.092  -0.535  -3.777  0.00  0.00    +0.016 A 
ATOM     25  C   UNL     1       9.358  -0.481  -2.419  0.00  0.00    +0.030 A 
ATOM     26  S   UNL     1       8.650  -1.683  -1.326  0.00  0.00    -0.110 S 
ATOM     27  H   UNL     1      11.224   1.144  -0.280  0.00  0.00    +0.155 HD
ENDBRANCH  15  16
ENDBRANCH   2  15
TORSDOF 3
