REMARK  Name = ZINC22151466
REMARK  7 active torsions:
REMARK  status: ('A' for Active; 'I' for Inactive)
REMARK    1  A    between atoms: C_1  and  C_2
REMARK    2  A    between atoms: C_3  and  N_22
REMARK    3  A    between atoms: C_7  and  N_8
REMARK    4  A    between atoms: C_9  and  C_11
REMARK    5  A    between atoms: C_11  and  C_13
REMARK    6  A    between atoms: C_11  and  O_14
REMARK    7  A    between atoms: O_14  and  C_15
REMARK                            x       y       z     vdW  Elec       q    Type
REMARK                         _______ _______ _______ _____ _____    ______ ____
ROOT
ATOM      1  N   UNL     1       5.774   1.731  -1.195  0.00  0.00    -0.282 N 
ATOM      2  C   UNL     1       4.575   1.170  -0.946  0.00  0.00    +0.258 C 
ATOM      3  O   UNL     1       4.315   0.071  -1.389  0.00  0.00    -0.271 OA
ATOM      4  H   UNL     1       6.038   2.694  -0.734  0.00  0.00    +0.155 HD
ENDROOT
BRANCH   1  11
ATOM      5  C   UNL     1       7.430   3.340  -2.856  0.00  0.00    +0.047 C 
ATOM      6  C   UNL     1       7.512   1.835  -2.867  0.00  0.00    -0.009 A 
ATOM      7  C   UNL     1       8.417   1.193  -3.701  0.00  0.00    +0.029 A 
ATOM      8  C   UNL     1       8.486  -0.194  -3.713  0.00  0.00    +0.023 A 
ATOM      9  C   UNL     1       7.657  -0.935  -2.892  0.00  0.00    +0.004 A 
ATOM     10  C   UNL     1       6.758  -0.299  -2.058  0.00  0.00    +0.024 A 
ATOM     11  C   UNL     1       6.685   1.088  -2.041  0.00  0.00    +0.038 A 
BRANCH   7  12
ATOM     12  N   UNL     1       9.255   1.942  -4.531  0.00  0.00    -0.358 N 
ATOM     13  H   UNL     1       9.973   1.433  -5.191  0.00  0.00    +0.142 HD
ATOM     14  H   UNL     1       9.198   3.040  -4.524  0.00  0.00    +0.142 HD
ENDBRANCH   7  12
ENDBRANCH   1  11
BRANCH   2  15
ATOM     15  C   UNL     1       3.556   1.907  -0.115  0.00  0.00    +0.256 C 
ATOM     16  C   UNL     1       4.133   2.180   1.276  0.00  0.00    +0.062 C 
BRANCH  15  17
ATOM     17  O   UNL     1       2.375   1.112   0.007  0.00  0.00    -0.480 OA
BRANCH  17  18
ATOM     18  C   UNL     1       1.189   1.773   0.058  0.00  0.00    +0.123 A 
ATOM     19  C   UNL     1      -0.003   1.063   0.049  0.00  0.00    +0.046 A 
ATOM     20  C   UNL     1      -1.208   1.736   0.102  0.00  0.00    +0.005 A 
ATOM     21  C   UNL     1      -1.228   3.118   0.163  0.00  0.00    +0.020 A 
ATOM     22  C   UNL     1      -0.041   3.829   0.176  0.00  0.00    +0.044 A 
ATOM     23  C   UNL     1       1.168   3.159   0.119  0.00  0.00    +0.065 A 
ATOM     24 CL   UNL     1      -0.068   5.562   0.260  0.00  0.00    -0.083 Cl
ENDBRANCH  17  18
ENDBRANCH  15  17
ENDBRANCH   2  15
TORSDOF 5
