REMARK  Name = ZINC37037152
REMARK  2 active torsions:
REMARK  status: ('A' for Active; 'I' for Inactive)
REMARK    1  A    between atoms: C_4  and  S_6
REMARK    2  A    between atoms: S_6  and  C_7
REMARK                            x       y       z     vdW  Elec       q    Type
REMARK                         _______ _______ _______ _____ _____    ______ ____
ROOT
ATOM      1  C   UNL     1      -0.022   1.782   0.012  0.00  0.00    +0.180 A 
ATOM      2  N   UNL     1       1.267   2.059   0.001  0.00  0.00    -0.125 NA
ATOM      3  N   UNL     1       2.187   1.037  -0.013  0.00  0.00    -0.133 NA
ATOM      4  C   UNL     1       1.776  -0.216  -0.016  0.00  0.00    +0.165 A 
ATOM      5  S   UNL     1       0.002  -0.004   0.002  0.00  0.00    -0.025 S 
ATOM      6  N   UNL     1      -1.109   2.648   0.032  0.00  0.00    -0.336 N 
ATOM      7  H   UNL     1      -2.012   2.293   0.043  0.00  0.00    +0.144 HD
ATOM      8  H   UNL     1      -0.965   3.607   0.035  0.00  0.00    +0.144 HD
ENDROOT
BRANCH   4   9
ATOM      9  S   UNL     1       2.722  -1.703  -0.033  0.00  0.00    -0.027 S 
BRANCH   9  10
ATOM     10  C   UNL     1       4.442  -1.127  -0.046  0.00  0.00    +0.406 C 
ATOM     11  F   UNL     1       4.665  -0.347  -1.186  0.00  0.00    -0.197 F 
ATOM     12  F   UNL     1       4.686  -0.360   1.099  0.00  0.00    -0.197 F 
ENDBRANCH   9  10
ENDBRANCH   4   9
TORSDOF 2
