REMARK  Name = ZINC36327904
REMARK  5 active torsions:
REMARK  status: ('A' for Active; 'I' for Inactive)
REMARK    1  A    between atoms: C_1  and  N_2
REMARK    2  A    between atoms: N_2  and  C_3
REMARK    3  A    between atoms: N_2  and  S_10
REMARK    4  A    between atoms: S_10  and  C_13
REMARK    5  A    between atoms: C_14  and  N_21
REMARK                            x       y       z     vdW  Elec       q    Type
REMARK                         _______ _______ _______ _____ _____    ______ ____
ROOT
ATOM      1  S   UNL     1      -0.088  -1.018  -1.736  0.00  0.00    +0.064 S 
ATOM      2  O   UNL     1      -0.529  -2.312  -1.348  0.00  0.00    -0.153 OA
ATOM      3  O   UNL     1      -0.644  -0.324  -2.845  0.00  0.00    -0.153 OA
ENDROOT
BRANCH   1   4
ATOM      4  C   UNL     1       1.643  -1.145  -2.037  0.00  0.00    +0.144 A 
ATOM      5  C   UNL     1       2.296  -0.158  -2.765  0.00  0.00    +0.054 A 
ATOM      6  C   UNL     1       3.661  -0.261  -3.000  0.00  0.00    +0.044 A 
ATOM      7  C   UNL     1       4.366  -1.344  -2.509  0.00  0.00    +0.044 A 
ATOM      8  C   UNL     1       3.713  -2.325  -1.784  0.00  0.00    +0.042 A 
ATOM      9  C   UNL     1       2.354  -2.222  -1.544  0.00  0.00    +0.070 A 
ATOM     10 CL   UNL     1       1.540  -3.452  -0.627  0.00  0.00    -0.081 Cl
ATOM     11 CL   UNL     1       6.072  -1.474  -2.803  0.00  0.00    -0.083 Cl
BRANCH   5  12
ATOM     12  N   UNL     1       1.582   0.935  -3.261  0.00  0.00    -0.356 N 
ATOM     13  H   UNL     1       0.679   1.106  -2.949  0.00  0.00    +0.142 HD
ATOM     14  H   UNL     1       1.988   1.522  -3.917  0.00  0.00    +0.142 HD
ENDBRANCH   5  12
ENDBRANCH   1   4
BRANCH   1  16
ATOM     15  C   UNL     1      -0.431   1.411  -0.597  0.00  0.00    +0.132 C 
ATOM     16  N   UNL     1      -0.285  -0.035  -0.417  0.00  0.00    -0.176 NA
BRANCH  16  17
ATOM     17  C   UNL     1      -0.314  -0.613   0.928  0.00  0.00    +0.080 C 
ATOM     18  C   UNL     1      -1.696  -0.344   1.558  0.00  0.00    +0.020 C 
ATOM     19  C   UNL     1      -1.915  -1.332   2.672  0.00  0.00    +0.002 C 
ATOM     20  C   UNL     1      -1.498  -0.774   4.046  0.00  0.00    +0.000 C 
ATOM     21  C   UNL     1      -0.177   0.018   3.993  0.00  0.00    +0.000 C 
ATOM     22  C   UNL     1       0.858  -0.646   3.127  0.00  0.00    +0.002 C 
ATOM     23  C   UNL     1       0.772  -0.042   1.710  0.00  0.00    +0.020 C 
ENDBRANCH  16  17
ENDBRANCH   1  16
TORSDOF 4
