REMARK  Name = ZINC55731035
REMARK  5 active torsions:
REMARK  status: ('A' for Active; 'I' for Inactive)
REMARK    1  A    between atoms: C_1  and  C_2
REMARK    2  A    between atoms: C_3  and  C_10
REMARK    3  A    between atoms: C_4  and  C_7
REMARK    4  A    between atoms: C_7  and  C_8
REMARK    5  A    between atoms: C_7  and  C_9
REMARK                            x       y       z     vdW  Elec       q    Type
REMARK                         _______ _______ _______ _____ _____    ______ ____
ROOT
ATOM      1  C   UNL     1      -0.005  -0.429  -2.588  0.00  0.00    +0.252 C 
ATOM      2  O   UNL     1       1.043  -0.234  -3.174  0.00  0.00    -0.270 OA
ATOM      3  N   UNL     1      -1.178  -0.245  -3.225  0.00  0.00    -0.293 N 
ATOM      4  C   UNL     1      -2.457  -0.469  -2.534  0.00  0.00    +0.114 C 
ATOM      5  C   UNL     1      -3.214   0.860  -2.438  0.00  0.00    +0.072 C 
ATOM      6  C   UNL     1      -3.162   1.554  -3.779  0.00  0.00    +0.023 A 
ATOM      7  C   UNL     1      -2.272   1.258  -4.751  0.00  0.00    -0.002 A 
ATOM      8  C   UNL     1      -2.545   2.139  -5.866  0.00  0.00    +0.006 A 
ATOM      9  C   UNL     1      -1.955   2.290  -7.125  0.00  0.00    +0.010 A 
ATOM     10  C   UNL     1      -2.486   3.251  -7.949  0.00  0.00    +0.002 A 
ATOM     11  C   UNL     1      -3.557   4.041  -7.564  0.00  0.00    +0.017 A 
ATOM     12  C   UNL     1      -4.161   3.913  -6.324  0.00  0.00    +0.042 A 
ATOM     13  C   UNL     1      -3.642   2.945  -5.466  0.00  0.00    +0.061 A 
ATOM     14  N   UNL     1      -3.988   2.563  -4.202  0.00  0.00    -0.357 N 
ATOM     15  H   UNL     1      -4.710   2.948  -3.681  0.00  0.00    +0.166 HD
ATOM     16 BR   UNL     1      -5.622   5.002  -5.819  0.00  0.00    -0.048 Br
ATOM     17  C   UNL     1      -1.215   0.192  -4.632  0.00  0.00    +0.145 C 
ENDROOT
BRANCH   1  20
ATOM     18  C   UNL     1      -0.018   1.503   0.010  0.00  0.00    +0.070 C 
ATOM     19  C   UNL     1       0.002  -0.004   0.002  0.00  0.00    +0.093 A 
ATOM     20  C   UNL     1       0.009  -0.867  -1.180  0.00  0.00    +0.102 A 
ATOM     21  C   UNL     1       0.029  -2.155  -0.729  0.00  0.00    +0.152 A 
ATOM     22  O   UNL     1       0.035  -2.126   0.606  0.00  0.00    -0.358 OA
ATOM     23  N   UNL     1       0.023  -0.782   1.044  0.00  0.00    -0.083 NA
BRANCH  21  24
ATOM     24  C   UNL     1       0.042  -3.394  -1.587  0.00  0.00    +0.052 C 
ATOM     25  C   UNL     1       1.304  -4.206  -1.291  0.00  0.00    +0.015 C 
ATOM     26  C   UNL     1      -1.194  -4.242  -1.279  0.00  0.00    +0.015 C 
ENDBRANCH  21  24
ENDBRANCH   1  20
TORSDOF 2
