REMARK  Name = ZINC08014693
REMARK  8 active torsions:
REMARK  status: ('A' for Active; 'I' for Inactive)
REMARK    1  A    between atoms: C_1  and  C_2
REMARK    2  A    between atoms: C_5  and  N_8
REMARK    3  A    between atoms: N_8  and  C_9
REMARK    4  A    between atoms: C_9  and  N_11
REMARK    5  A    between atoms: N_11  and  N_12
REMARK    6  A    between atoms: C_13  and  C_14
REMARK    7  A    between atoms: C_16  and  O_22
REMARK    8  A    between atoms: C_17  and  O_21
REMARK                            x       y       z     vdW  Elec       q    Type
REMARK                         _______ _______ _______ _____ _____    ______ ____
ROOT
ATOM      1  N   UNL     1       0.294  -6.190   1.123  0.00  0.00    -0.218 N 
ATOM      2  H   UNL     1       0.378  -6.679   1.957  0.00  0.00    +0.176 HD
ENDROOT
BRANCH   1   3
ATOM      3  C   UNL     1       0.174  -4.848   1.138  0.00  0.00    +0.154 C 
ATOM      4  S   UNL     1       0.171  -4.005   2.628  0.00  0.00    -0.017 S 
BRANCH   3   5
ATOM      5  N   UNL     1       0.058  -4.169  -0.021  0.00  0.00    -0.296 N 
ATOM      6  H   UNL     1      -0.021  -4.651  -0.859  0.00  0.00    +0.154 HD
BRANCH   5  11
ATOM      7  C   UNL     1       0.030   1.503   0.005  0.00  0.00    +0.044 C 
ATOM      8  C   UNL     1       0.037  -0.004  -0.002  0.00  0.00    -0.050 A 
ATOM      9  C   UNL     1       0.923  -0.693   0.806  0.00  0.00    +0.005 A 
ATOM     10  C   UNL     1       0.933  -2.074   0.802  0.00  0.00    +0.023 A 
ATOM     11  C   UNL     1       0.051  -2.771  -0.014  0.00  0.00    +0.033 A 
ATOM     12  C   UNL     1      -0.838  -2.075  -0.824  0.00  0.00    +0.023 A 
ATOM     13  C   UNL     1      -0.846  -0.694  -0.811  0.00  0.00    +0.005 A 
ENDBRANCH   5  11
ENDBRANCH   3   5
ENDBRANCH   1   3
BRANCH   1  14
ATOM     14  N   UNL     1       0.297  -6.880  -0.096  0.00  0.00    -0.188 NA
ATOM     15  C   UNL     1       0.412  -8.173  -0.110  0.00  0.00    +0.138 C 
BRANCH  15  16
ATOM     16  C   UNL     1       0.415  -8.899  -1.394  0.00  0.00    -0.000 A 
ATOM     17  C   UNL     1       0.532 -10.291  -1.410  0.00  0.00    +0.058 A 
ATOM     18  C   UNL     1       0.534 -10.967  -2.616  0.00  0.00    +0.160 A 
ATOM     19  C   UNL     1       0.420 -10.261  -3.811  0.00  0.00    +0.177 A 
ATOM     20  C   UNL     1       0.303  -8.878  -3.796  0.00  0.00    +0.087 A 
ATOM     21  C   UNL     1       0.294  -8.197  -2.595  0.00  0.00    +0.033 A 
ATOM     22 CL   UNL     1       0.161  -8.004  -5.289  0.00  0.00    -0.080 Cl
BRANCH  19  23
ATOM     23  O   UNL     1       0.423 -10.928  -4.996  0.00  0.00    -0.502 OA
ATOM     24  H   UNL     1      -0.456 -11.197  -5.299  0.00  0.00    +0.292 HD
ENDBRANCH  19  23
BRANCH  18  25
ATOM     25  O   UNL     1       0.649 -12.322  -2.635  0.00  0.00    -0.503 OA
ATOM     26  H   UNL     1      -0.197 -12.789  -2.600  0.00  0.00    +0.292 HD
ENDBRANCH  18  25
ENDBRANCH  15  16
ENDBRANCH   1  14
TORSDOF 7
