REMARK  Name = ZINC03572798
REMARK  4 active torsions:
REMARK  status: ('A' for Active; 'I' for Inactive)
REMARK    1  A    between atoms: C_1  and  C_2
REMARK    2  A    between atoms: C_2  and  C_16
REMARK    3  A    between atoms: N_5  and  C_9
REMARK    4  A    between atoms: C_9  and  C_10
REMARK                            x       y       z     vdW  Elec       q    Type
REMARK                         _______ _______ _______ _____ _____    ______ ____
ROOT
ATOM      1  C   UNL     1      -0.698   2.034   1.278  0.00  0.00    +0.047 C 
ATOM      2  C   UNL     1      -0.018   1.512   0.010  0.00  0.00    +0.135 C 
ATOM      3  C   UNL     1       0.002  -0.004   0.002  0.00  0.00    +0.251 C 
ATOM      4  O   UNL     1      -0.954  -0.749   0.008  0.00  0.00    -0.272 OA
ATOM      5  N   UNL     1       1.304  -0.351  -0.012  0.00  0.00    -0.215 N 
ATOM      6  C   UNL     1       2.101   0.724  -0.014  0.00  0.00    +0.310 C 
ATOM      7  O   UNL     1       3.315   0.665  -0.026  0.00  0.00    -0.252 OA
ATOM      8  N   UNL     1       1.409   1.877  -0.001  0.00  0.00    -0.281 N 
ATOM      9  H   UNL     1       1.777   2.775  -0.000  0.00  0.00    +0.152 HD
ENDROOT
BRANCH   2  10
ATOM     10  C   UNL     1      -0.711   2.039  -1.220  0.00  0.00    -0.015 A 
ATOM     11  C   UNL     1      -1.712   1.299  -1.820  0.00  0.00    +0.007 A 
ATOM     12  C   UNL     1      -2.352   1.785  -2.945  0.00  0.00    +0.020 A 
ATOM     13  C   UNL     1      -1.982   3.007  -3.477  0.00  0.00    +0.041 A 
ATOM     14  C   UNL     1      -0.976   3.745  -2.878  0.00  0.00    +0.020 A 
ATOM     15  C   UNL     1      -0.341   3.261  -1.750  0.00  0.00    +0.007 A 
ATOM     16 CL   UNL     1      -2.780   3.615  -4.893  0.00  0.00    -0.084 Cl
ENDBRANCH   2  10
BRANCH   5  17
ATOM     17  C   UNL     1       1.788  -1.734  -0.024  0.00  0.00    +0.214 C 
BRANCH  17  18
ATOM     18  C   UNL     1       1.940  -2.201  -1.448  0.00  0.00    +0.238 C 
ATOM     19  O   UNL     1       1.671  -1.453  -2.364  0.00  0.00    -0.274 OA
ATOM     20  N   UNL     1       2.375  -3.451  -1.705  0.00  0.00    -0.239 N 
ATOM     21  C   UNL     1       2.511  -3.869  -2.979  0.00  0.00    +0.303 C 
ATOM     22  O   UNL     1       2.241  -3.119  -3.896  0.00  0.00    -0.253 OA
ATOM     23  N   UNL     1       2.946  -5.118  -3.235  0.00  0.00    -0.313 N 
ATOM     24  H   UNL     1       2.590  -4.049  -0.972  0.00  0.00    +0.159 HD
ATOM     25  H   UNL     1       3.161  -5.717  -2.503  0.00  0.00    +0.146 HD
ATOM     26  H   UNL     1       3.043  -5.419  -4.152  0.00  0.00    +0.146 HD
ENDBRANCH  17  18
ENDBRANCH   5  17
TORSDOF 3
