REMARK  Name = ZINC48733495
REMARK  4 active torsions:
REMARK  status: ('A' for Active; 'I' for Inactive)
REMARK    1  A    between atoms: C_6  and  N_7
REMARK    2  A    between atoms: N_7  and  N_8
REMARK    3  A    between atoms: C_9  and  C_11
REMARK    4  A    between atoms: C_14  and  N_16
REMARK                            x       y       z     vdW  Elec       q    Type
REMARK                         _______ _______ _______ _____ _____    ______ ____
ROOT
ATOM      1  N   UNL     1      -1.177  -2.121   0.002  0.00  0.00    -0.236 N 
ATOM      2  C   UNL     1      -2.334  -2.812   0.010  0.00  0.00    +0.234 C 
ATOM      3  O   UNL     1      -3.393  -2.221   0.024  0.00  0.00    -0.274 OA
ATOM      4  H   UNL     1      -0.330  -2.594  -0.009  0.00  0.00    +0.173 HD
ENDROOT
BRANCH   2   5
ATOM      5  C   UNL     1      -2.312  -4.319   0.002  0.00  0.00    +0.108 C 
ATOM      6  C   UNL     1      -2.806  -5.026  -1.262  0.00  0.00    +0.047 C 
ATOM      7  C   UNL     1      -3.659  -5.045   0.009  0.00  0.00    +0.182 C 
BRANCH   7   8
ATOM      8  N   UNL     1      -4.871  -4.223   0.024  0.00  0.00    +0.026 N 
ATOM      9  O   UNL     1      -5.085  -3.445  -0.877  0.00  0.00    -0.131 OA
ATOM     10  O   UNL     1      -5.657  -4.322   0.937  0.00  0.00    -0.131 OA
ENDBRANCH   7   8
ENDBRANCH   2   5
BRANCH   1  11
ATOM     11  N   UNL     1      -1.198  -0.720   0.010  0.00  0.00    -0.264 N 
ATOM     12  H   UNL     1      -2.045  -0.248   0.021  0.00  0.00    +0.170 HD
BRANCH  11  18
ATOM     13  C   UNL     1      -0.017   1.385   0.010  0.00  0.00    +0.025 A 
ATOM     14  C   UNL     1       1.171   2.090   0.002  0.00  0.00    +0.017 A 
ATOM     15  C   UNL     1       2.378   1.415  -0.013  0.00  0.00    +0.018 A 
ATOM     16  C   UNL     1       2.400   0.031  -0.021  0.00  0.00    +0.017 A 
ATOM     17  C   UNL     1       1.216  -0.679  -0.014  0.00  0.00    +0.025 A 
ATOM     18  C   UNL     1       0.002  -0.004   0.002  0.00  0.00    +0.044 A 
ATOM     19 BR   UNL     1       4.002   2.384  -0.023  0.00  0.00    -0.050 Br
ENDBRANCH  11  18
ENDBRANCH   1  11
TORSDOF 4
