REMARK  Name = ZINC39695685
REMARK  6 active torsions:
REMARK  status: ('A' for Active; 'I' for Inactive)
REMARK    1  A    between atoms: C_1  and  C_2
REMARK    2  A    between atoms: C_9  and  C_11
REMARK    3  A    between atoms: C_11  and  C_13
REMARK    4  A    between atoms: C_11  and  N_14
REMARK    5  A    between atoms: C_15  and  C_17
REMARK    6  A    between atoms: C_28  and  C_30
REMARK                            x       y       z     vdW  Elec       q    Type
REMARK                         _______ _______ _______ _____ _____    ______ ____
ROOT
ATOM      1  C   UNL     1      -1.622  -8.776   0.998  0.00  0.00    +0.100 C 
ATOM      2  C   UNL     1      -2.897  -8.240   0.309  0.00  0.00    +0.121 C 
ATOM      3  N   UNL     1      -3.814  -9.403   0.261  0.00  0.00    -0.296 N 
ATOM      4  C   UNL     1      -3.614 -10.085   1.562  0.00  0.00    +0.115 C 
ATOM      5  C   UNL     1      -2.097  -9.986   1.820  0.00  0.00    -0.004 C 
ATOM      6  C   UNL     1      -1.829  -9.755   3.304  0.00  0.00    -0.010 C 
ATOM      7  C   UNL     1      -2.255 -10.995   4.095  0.00  0.00    -0.082 C 
ATOM      8  N   UNL     1      -1.505 -12.164   3.618  0.00  0.00    +0.379 N 
ATOM      9  C   UNL     1      -1.841 -12.435   2.215  0.00  0.00    -0.082 C 
ATOM     10  C   UNL     1      -1.397 -11.256   1.344  0.00  0.00    -0.010 C 
ATOM     11  C   UNL     1      -4.643  -9.761  -0.740  0.00  0.00    +0.248 C 
ATOM     12  O   UNL     1      -4.623  -9.152  -1.792  0.00  0.00    -0.270 OA
ATOM     13  H   UNL     1      -0.516 -11.982   3.697  0.00  0.00    -0.086 HD
ATOM     14  H   UNL     1      -1.743 -12.967   4.180  0.00  0.00    -0.086 HD
ENDROOT
BRANCH  11  15
ATOM     15  C   UNL     1      -5.574 -10.893  -0.559  0.00  0.00    +0.055 A 
ATOM     16  C   UNL     1      -6.158 -11.128   0.688  0.00  0.00    +0.016 A 
ATOM     17  C   UNL     1      -7.027 -12.185   0.852  0.00  0.00    +0.021 A 
ATOM     18  C   UNL     1      -7.322 -13.016  -0.218  0.00  0.00    +0.042 A 
ATOM     19  C   UNL     1      -6.747 -12.789  -1.457  0.00  0.00    +0.040 A 
ATOM     20  C   UNL     1      -5.880 -11.729  -1.635  0.00  0.00    +0.054 A 
ATOM     21 CL   UNL     1      -5.166 -11.441  -3.191  0.00  0.00    -0.083 Cl
ATOM     22 CL   UNL     1      -8.416 -14.346  -0.003  0.00  0.00    -0.083 Cl
ENDBRANCH  11  15
BRANCH   1  24
ATOM     23  N   UNL     1       0.261  -7.801   2.272  0.00  0.00    -0.305 N 
ATOM     24  C   UNL     1      -1.034  -7.725   1.903  0.00  0.00    +0.219 C 
ATOM     25  O   UNL     1      -1.724  -6.811   2.300  0.00  0.00    -0.275 OA
ATOM     26  H   UNL     1       0.813  -8.533   1.954  0.00  0.00    +0.149 HD
BRANCH  23  27
ATOM     27  C   UNL     1       0.833  -6.780   3.152  0.00  0.00    +0.136 C 
ATOM     28  C   UNL     1       0.548  -7.145   4.610  0.00  0.00    +0.036 C 
BRANCH  27  37
ATOM     29  C   UNL     1       8.070  -5.164   2.525  0.00  0.00    +0.044 C 
ATOM     30  C   UNL     1       6.756  -5.901   2.487  0.00  0.00    -0.048 A 
ATOM     31  C   UNL     1       6.716  -7.216   2.045  0.00  0.00    +0.005 A 
ATOM     32  C   UNL     1       5.535  -7.901   2.003  0.00  0.00    +0.030 A 
ATOM     33  C   UNL     1       4.353  -7.276   2.409  0.00  0.00    +0.089 A 
ATOM     34  C   UNL     1       4.393  -5.945   2.857  0.00  0.00    +0.067 A 
ATOM     35  C   UNL     1       5.604  -5.266   2.897  0.00  0.00    +0.031 A 
ATOM     36  N   UNL     1       3.093  -5.613   3.182  0.00  0.00    -0.340 N 
ATOM     37  C   UNL     1       2.322  -6.706   2.934  0.00  0.00    +0.128 A 
ATOM     38  N   UNL     1       3.058  -7.679   2.482  0.00  0.00    -0.231 NA
ATOM     39  H   UNL     1       2.786  -4.759   3.524  0.00  0.00    +0.167 HD
ENDBRANCH  27  37
ENDBRANCH  23  27
ENDBRANCH   1  24
TORSDOF 4
