REMARK  Name = ZINC58714946
REMARK  12 active torsions:
REMARK  status: ('A' for Active; 'I' for Inactive)
REMARK    1  A    between atoms: C_1  and  C_2
REMARK    2  A    between atoms: C_2  and  O_3
REMARK    3  A    between atoms: O_3  and  C_4
REMARK    4  A    between atoms: C_11  and  C_13
REMARK    5  A    between atoms: C_13  and  C_15
REMARK    6  A    between atoms: C_13  and  N_16
REMARK    7  A    between atoms: N_19  and  C_20
REMARK    8  A    between atoms: C_20  and  C_21
REMARK    9  A    between atoms: C_21  and  C_23
REMARK   10  A    between atoms: C_21  and  N_28
REMARK   11  A    between atoms: N_28  and  C_29
REMARK   12  A    between atoms: N_28  and  C_30
REMARK                            x       y       z     vdW  Elec       q    Type
REMARK                         _______ _______ _______ _____ _____    ______ ____
ROOT
ATOM      1  N   UNL     1      -6.600  -1.286   0.975  0.00  0.00    -0.290 N 
ATOM      2  C   UNL     1      -7.795  -1.295   1.599  0.00  0.00    +0.300 C 
ATOM      3  O   UNL     1      -8.550  -2.236   1.452  0.00  0.00    -0.253 OA
ATOM      4  N   UNL     1      -8.151  -0.261   2.387  0.00  0.00    -0.301 N 
ATOM      5  H   UNL     1      -5.997  -0.535   1.093  0.00  0.00    +0.151 HD
ATOM      6  H   UNL     1      -7.548   0.490   2.504  0.00  0.00    +0.150 HD
ENDROOT
BRANCH   1   7
ATOM      7  C   UNL     1      -6.213  -2.410   0.119  0.00  0.00    +0.137 C 
ATOM      8  C   UNL     1      -6.783  -2.202  -1.285  0.00  0.00    +0.036 C 
BRANCH   7  16
ATOM      9  C   UNL     1      -1.389  -1.140  -0.195  0.00  0.00    +0.163 A 
ATOM     10  C   UNL     1      -0.198  -1.843  -0.218  0.00  0.00    +0.049 A 
ATOM     11  C   UNL     1      -0.195  -3.229  -0.152  0.00  0.00    +0.004 A 
ATOM     12  C   UNL     1      -1.380  -3.924  -0.062  0.00  0.00    +0.012 A 
ATOM     13  C   UNL     1      -2.589  -3.228  -0.037  0.00  0.00    +0.024 A 
ATOM     14  C   UNL     1      -2.598  -1.826  -0.099  0.00  0.00    +0.177 A 
ATOM     15  O   UNL     1      -3.887  -1.430  -0.050  0.00  0.00    -0.454 OA
ATOM     16  C   UNL     1      -4.709  -2.489   0.044  0.00  0.00    +0.126 A 
ATOM     17  C   UNL     1      -3.999  -3.626   0.050  0.00  0.00    +0.055 A 
BRANCH   9  18
ATOM     18  O   UNL     1      -1.379   0.218  -0.261  0.00  0.00    -0.489 OA
BRANCH  18  20
ATOM     19  C   UNL     1      -0.293   2.371  -0.422  0.00  0.00    +0.048 C 
ATOM     20  C   UNL     1      -0.103   0.854  -0.359  0.00  0.00    +0.226 C 
ENDBRANCH  18  20
ENDBRANCH   9  18
ENDBRANCH   7  16
ENDBRANCH   1   7
BRANCH   4  21
ATOM     21  C   UNL     1      -9.450  -0.271   3.065  0.00  0.00    +0.095 C 
BRANCH  21  22
ATOM     22  C   UNL     1      -9.558   0.953   3.977  0.00  0.00    -0.014 C 
BRANCH  22  23
ATOM     23  C   UNL     1      -9.541   2.206   3.140  0.00  0.00    -0.022 A 
ATOM     24  C   UNL     1      -8.511   3.050   2.888  0.00  0.00    +0.009 A 
ATOM     25  C   UNL     1      -8.729   4.151   2.080  0.00  0.00    +0.008 A 
ATOM     26  C   UNL     1      -9.967   4.354   1.566  0.00  0.00    +0.045 A 
ATOM     27  S   UNL     1     -10.871   2.960   2.218  0.00  0.00    -0.103 S 
ENDBRANCH  22  23
BRANCH  22  28
ATOM     28  N   UNL     1     -10.813   0.888   4.737  0.00  0.00    +0.382 N 
ATOM     29  C   UNL     1     -10.815  -0.316   5.578  0.00  0.00    -0.096 C 
ATOM     30  C   UNL     1     -10.933   2.080   5.588  0.00  0.00    -0.096 C 
ATOM     31  H   UNL     1     -11.592   0.852   4.097  0.00  0.00    -0.082 HD
ENDBRANCH  22  28
ENDBRANCH  21  22
ENDBRANCH   4  21
TORSDOF 8
