REMARK  Name = ZINC42439110
REMARK  5 active torsions:
REMARK  status: ('A' for Active; 'I' for Inactive)
REMARK    1  A    between atoms: C_1  and  C_2
REMARK    2  A    between atoms: C_5  and  C_9
REMARK    3  A    between atoms: C_6  and  O_8
REMARK    4  A    between atoms: C_13  and  C_20
REMARK    5  A    between atoms: C_17  and  C_19
REMARK                            x       y       z     vdW  Elec       q    Type
REMARK                         _______ _______ _______ _____ _____    ______ ____
ROOT
ATOM      1  C   UNL     1       0.034  -4.252  -0.032  0.00  0.00    +0.250 C 
ATOM      2  O   UNL     1       0.135  -4.869   1.011  0.00  0.00    -0.270 OA
ATOM      3  N   UNL     1      -0.054  -4.916  -1.202  0.00  0.00    -0.294 N 
ATOM      4  C   UNL     1      -0.068  -4.187  -2.478  0.00  0.00    +0.121 C 
ATOM      5  C   UNL     1       1.032  -4.753  -3.381  0.00  0.00    +0.092 C 
ATOM      6  C   UNL     1       0.844  -6.266  -3.520  0.00  0.00    +0.016 C 
ATOM      7  C   UNL     1       0.963  -6.925  -2.144  0.00  0.00    +0.023 C 
ATOM      8  C   UNL     1      -0.132  -6.383  -1.226  0.00  0.00    +0.073 C 
ATOM      9  C   UNL     1       0.070  -6.931   0.188  0.00  0.00    +0.028 C 
ENDROOT
BRANCH   1  14
ATOM     10  C   UNL     1      -0.073   1.502   0.021  0.00  0.00    +0.044 C 
ATOM     11  C   UNL     1      -0.043  -0.004   0.010  0.00  0.00    -0.047 A 
ATOM     12  C   UNL     1      -0.840  -0.703  -0.882  0.00  0.00    +0.004 A 
ATOM     13  C   UNL     1      -0.820  -2.080  -0.901  0.00  0.00    +0.017 A 
ATOM     14  C   UNL     1       0.008  -2.777  -0.018  0.00  0.00    +0.078 A 
ATOM     15  C   UNL     1       0.813  -2.067   0.883  0.00  0.00    +0.129 A 
ATOM     16  C   UNL     1       0.784  -0.680   0.885  0.00  0.00    +0.049 A 
BRANCH  15  17
ATOM     17  O   UNL     1       1.620  -2.733   1.747  0.00  0.00    -0.506 OA
ATOM     18  H   UNL     1       2.506  -2.909   1.401  0.00  0.00    +0.292 HD
ENDBRANCH  15  17
ENDBRANCH   1  14
BRANCH   5  19
ATOM     19  C   UNL     1       0.948  -4.109  -4.741  0.00  0.00    +0.215 C 
ATOM     20  O   UNL     1       0.758  -4.791  -5.725  0.00  0.00    -0.276 OA
ATOM     21  N   UNL     1       1.082  -2.773  -4.863  0.00  0.00    -0.329 N 
ATOM     22  H   UNL     1       1.234  -2.227  -4.075  0.00  0.00    +0.145 HD
ATOM     23  H   UNL     1       1.028  -2.358  -5.738  0.00  0.00    +0.145 HD
ENDBRANCH   5  19
TORSDOF 3
