REMARK  Name = ZINC20414303
REMARK  5 active torsions:
REMARK  status: ('A' for Active; 'I' for Inactive)
REMARK    1  A    between atoms: C_1  and  C_2
REMARK    2  A    between atoms: C_4  and  C_5
REMARK    3  A    between atoms: C_4  and  C_16
REMARK    4  A    between atoms: C_5  and  C_6
REMARK    5  A    between atoms: C_27  and  C_29
REMARK                            x       y       z     vdW  Elec       q    Type
REMARK                         _______ _______ _______ _____ _____    ______ ____
ROOT
ATOM      1  C   UNL     1       0.718   0.681   1.492  0.00  0.00    +0.250 C 
ATOM      2  O   UNL     1       0.660   1.827   1.886  0.00  0.00    -0.270 OA
ATOM      3  N   UNL     1       1.899   0.033   1.476  0.00  0.00    -0.256 N 
ATOM      4  C   UNL     1       3.046   0.675   1.903  0.00  0.00    +0.160 C 
ATOM      5  N   UNL     1       3.005   1.937   2.220  0.00  0.00    -0.375 N 
ATOM      6  N   UNL     1       4.229  -0.019   1.992  0.00  0.00    -0.302 N 
ATOM      7  C   UNL     1       4.300  -1.431   1.593  0.00  0.00    +0.126 C 
ATOM      8  C   UNL     1       5.410  -1.583   0.539  0.00  0.00    +0.127 C 
ATOM      9  N   UNL     1       6.625  -0.927   1.041  0.00  0.00    -0.292 N 
ATOM     10  C   UNL     1       6.553   0.484   1.446  0.00  0.00    +0.127 C 
ATOM     11  C   UNL     1       5.444   0.637   2.494  0.00  0.00    +0.126 C 
ATOM     12  C   UNL     1       7.785  -1.607   1.129  0.00  0.00    +0.282 C 
ATOM     13  O   UNL     1       7.808  -2.803   0.905  0.00  0.00    -0.267 OA
ATOM     14  H   UNL     1       1.950  -1.008   1.123  0.00  0.00    +0.158 HD
ATOM     15  H   UNL     1       3.918   2.448   2.560  0.00  0.00    +0.158 HD
ATOM     16  H   UNL     1       2.058   2.492   2.149  0.00  0.00    +0.158 HD
ENDROOT
BRANCH  12  17
ATOM     17  C   UNL     1       9.020  -0.906   1.496  0.00  0.00    +0.189 A 
ATOM     18  C   UNL     1      10.224  -1.491   1.767  0.00  0.00    +0.054 A 
ATOM     19  C   UNL     1      11.118  -0.452   2.069  0.00  0.00    +0.042 A 
ATOM     20  C   UNL     1      10.430   0.707   1.970  0.00  0.00    +0.196 A 
ATOM     21  O   UNL     1       9.167   0.429   1.619  0.00  0.00    -0.458 OA
ENDBRANCH  12  17
BRANCH   1  25
ATOM     22  C   UNL     1      -0.217  -2.573   1.448  0.00  0.00    +0.091 C 
ATOM     23  C   UNL     1      -0.775  -1.238   1.870  0.00  0.00    +0.161 C 
ATOM     24  O   UNL     1      -1.418  -1.147   2.888  0.00  0.00    -0.293 OA
ATOM     25  C   UNL     1      -0.532  -0.017   1.021  0.00  0.00    +0.061 C 
BRANCH  25  26
ATOM     26  C   UNL     1      -1.724   0.934   1.142  0.00  0.00    +0.079 C 
BRANCH  26  27
ATOM     27  C   UNL     1      -2.933   0.309   0.496  0.00  0.00    -0.035 A 
ATOM     28  C   UNL     1      -3.864  -0.327   1.259  0.00  0.00    +0.004 A 
ATOM     29  C   UNL     1      -4.989  -0.912   0.680  0.00  0.00    +0.001 A 
ATOM     30  C   UNL     1      -5.189  -0.863  -0.666  0.00  0.00    +0.008 A 
ATOM     31  C   UNL     1      -4.250  -0.215  -1.486  0.00  0.00    -0.018 A 
ATOM     32  C   UNL     1      -3.109   0.384  -0.896  0.00  0.00    -0.014 A 
ATOM     33  C   UNL     1      -2.167   1.028  -1.717  0.00  0.00    +0.009 A 
ATOM     34  C   UNL     1      -2.368   1.077  -3.062  0.00  0.00    +0.001 A 
ATOM     35  C   UNL     1      -3.492   0.491  -3.641  0.00  0.00    +0.001 A 
ATOM     36  C   UNL     1      -4.423  -0.145  -2.879  0.00  0.00    +0.008 A 
ENDBRANCH  26  27
ENDBRANCH  25  26
ENDBRANCH   1  25
TORSDOF 4
