REMARK  Name = ZINC53067871
REMARK  7 active torsions:
REMARK  status: ('A' for Active; 'I' for Inactive)
REMARK    1  A    between atoms: C_1  and  C_2
REMARK    2  A    between atoms: C_3  and  C_12
REMARK    3  A    between atoms: C_12  and  C_13
REMARK    4  A    between atoms: C_13  and  C_14
REMARK    5  A    between atoms: N_16  and  C_17
REMARK    6  A    between atoms: C_17  and  C_22
REMARK    7  A    between atoms: C_22  and  O_23
REMARK                            x       y       z     vdW  Elec       q    Type
REMARK                         _______ _______ _______ _____ _____    ______ ____
ROOT
ATOM      1  C   UNL     1      -2.979   0.429  -1.158  0.00  0.00    +0.100 C 
ENDROOT
BRANCH   1   2
ATOM      2  C   UNL     1      -4.333   1.084  -1.261  0.00  0.00    +0.214 C 
ATOM      3  O   UNL     1      -4.879   1.508  -0.265  0.00  0.00    -0.276 OA
ATOM      4  N   UNL     1      -4.936   1.199  -2.461  0.00  0.00    -0.308 N 
ATOM      5  H   UNL     1      -4.469   0.929  -3.267  0.00  0.00    +0.149 HD
BRANCH   4   6
ATOM      6  C   UNL     1      -6.298   1.732  -2.548  0.00  0.00    +0.058 C 
ATOM      7  C   UNL     1      -6.759   1.803  -4.025  0.00  0.00    +0.028 C 
ATOM      8  C   UNL     1      -6.099   3.111  -4.526  0.00  0.00    +0.002 C 
ATOM      9  C   UNL     1      -6.210   4.075  -3.326  0.00  0.00    +0.002 C 
ATOM     10  C   UNL     1      -6.336   3.197  -2.068  0.00  0.00    +0.028 C 
BRANCH   6  11
ATOM     11  C   UNL     1      -7.261   0.874  -1.724  0.00  0.00    +0.181 C 
BRANCH  11  12
ATOM     12  O   UNL     1      -7.161  -0.489  -2.142  0.00  0.00    -0.393 OA
ATOM     13  H   UNL     1      -7.745  -1.092  -1.661  0.00  0.00    +0.209 HD
ENDBRANCH  11  12
ENDBRANCH   6  11
ENDBRANCH   4   6
ENDBRANCH   1   2
BRANCH   1  14
ATOM     14  C   UNL     1      -2.524   0.428   0.302  0.00  0.00    +0.051 C 
BRANCH  14  17
ATOM     15  C   UNL     1      -0.135   2.020   0.278  0.00  0.00    +0.064 C 
ATOM     16  C   UNL     1      -0.046   0.520   0.395  0.00  0.00    +0.026 A 
ATOM     17  C   UNL     1      -1.171  -0.227   0.406  0.00  0.00    +0.036 A 
ATOM     18  C   UNL     1      -1.061  -1.634   0.516  0.00  0.00    +0.257 A 
ATOM     19  O   UNL     1      -2.061  -2.329   0.528  0.00  0.00    -0.267 OA
ATOM     20  N   UNL     1       0.160  -2.198   0.607  0.00  0.00    -0.275 N 
ATOM     21  H   UNL     1       0.243  -3.162   0.683  0.00  0.00    +0.173 HD
ATOM     22  C   UNL     1       1.265  -1.429   0.594  0.00  0.00    +0.327 A 
ATOM     23  O   UNL     1       2.360  -1.951   0.677  0.00  0.00    -0.247 OA
ATOM     24  N   UNL     1       1.175  -0.091   0.484  0.00  0.00    -0.311 N 
ATOM     25  H   UNL     1       1.983   0.446   0.472  0.00  0.00    +0.170 HD
ENDBRANCH  14  17
ENDBRANCH   1  14
TORSDOF 6
