REMARK  Name = ZINC63251833
REMARK  7 active torsions:
REMARK  status: ('A' for Active; 'I' for Inactive)
REMARK    1  A    between atoms: C_1  and  C_2
REMARK    2  A    between atoms: C_2  and  C_3
REMARK    3  A    between atoms: C_2  and  C_4
REMARK    4  A    between atoms: C_2  and  C_5
REMARK    5  A    between atoms: C_8  and  N_11
REMARK    6  A    between atoms: N_11  and  C_12
REMARK    7  A    between atoms: C_20  and  N_27
REMARK                            x       y       z     vdW  Elec       q    Type
REMARK                         _______ _______ _______ _____ _____    ______ ____
ROOT
ATOM      1  C   UNL     1       5.010  -2.070  -1.415  0.00  0.00    -0.045 C 
ATOM      2  C   UNL     1       5.692  -2.771  -2.595  0.00  0.00    -0.013 C 
ATOM      3  C   UNL     1       5.520  -4.286  -2.513  0.00  0.00    +0.003 C 
ATOM      4  C   UNL     1       6.219  -4.831  -1.255  0.00  0.00    +0.033 C 
ATOM      5  C   UNL     1       5.726  -4.003  -0.095  0.00  0.00    -0.040 C 
ATOM      6  C   UNL     1       5.214  -4.348   1.080  0.00  0.00    +0.001 A 
ATOM      7  C   UNL     1       5.050  -5.658   1.732  0.00  0.00    +0.042 A 
ATOM      8  C   UNL     1       4.453  -5.649   2.953  0.00  0.00    +0.127 A 
ATOM      9  C   UNL     1       4.008  -4.483   3.583  0.00  0.00    +0.035 A 
ATOM     10  C   UNL     1       4.126  -3.236   3.062  0.00  0.00    +0.028 A 
ATOM     11  C   UNL     1       4.747  -3.115   1.784  0.00  0.00    +0.043 A 
ATOM     12  N   UNL     1       5.010  -2.058   1.073  0.00  0.00    -0.379 N 
ATOM     13  C   UNL     1       5.728  -2.475  -0.126  0.00  0.00    +0.092 C 
ATOM     14  H   UNL     1       4.769  -1.147   1.301  0.00  0.00    +0.160 HD
ENDROOT
BRANCH   1  15
ATOM     15  N   UNL     1       3.601  -2.478  -1.345  0.00  0.00    +0.384 N 
ATOM     16  H   UNL     1       3.178  -2.086  -0.517  0.00  0.00    -0.085 HD
ATOM     17  H   UNL     1       3.544  -3.485  -1.307  0.00  0.00    -0.085 HD
BRANCH  15  21
ATOM     18  C   UNL     1       0.718  -0.497  -1.257  0.00  0.00    -0.006 C 
ATOM     19  C   UNL     1       0.739  -2.027  -1.265  0.00  0.00    +0.002 C 
ATOM     20  C   UNL     1       1.455  -2.521  -2.524  0.00  0.00    -0.015 C 
ATOM     21  C   UNL     1       2.890  -1.991  -2.535  0.00  0.00    -0.071 C 
ATOM     22  C   UNL     1       2.870  -0.461  -2.526  0.00  0.00    -0.015 C 
ATOM     23  C   UNL     1       2.154   0.032  -1.268  0.00  0.00    +0.002 C 
BRANCH  18  25
ATOM     24  C   UNL     1      -0.019   1.526   0.010  0.00  0.00    +0.011 C 
ATOM     25  C   UNL     1       0.002  -0.004   0.002  0.00  0.00    -0.035 C 
ATOM     26  C   UNL     1       0.742  -0.511   1.242  0.00  0.00    +0.011 C 
ATOM     27  C   UNL     1      -1.433  -0.534   0.013  0.00  0.00    +0.011 C 
ENDBRANCH  18  25
ENDBRANCH  15  21
ENDBRANCH   1  15
BRANCH   8  28
ATOM     28  N   UNL     1       4.264  -6.940   3.651  0.00  0.00    +0.056 N 
ATOM     29  O   UNL     1       4.638  -7.967   3.134  0.00  0.00    -0.126 OA
ATOM     30  O   UNL     1       3.737  -6.968   4.738  0.00  0.00    -0.126 OA
ENDBRANCH   8  28
TORSDOF 4
