REMARK  Name = ZINC33790149
REMARK  4 active torsions:
REMARK  status: ('A' for Active; 'I' for Inactive)
REMARK    1  A    between atoms: C_4  and  C_28
REMARK    2  A    between atoms: C_5  and  C_7
REMARK    3  A    between atoms: C_9  and  C_26
REMARK    4  A    between atoms: C_10  and  N_25
REMARK                            x       y       z     vdW  Elec       q    Type
REMARK                         _______ _______ _______ _____ _____    ______ ____
ROOT
ATOM      1  C   UNL     1       0.023   7.330  -0.600  0.00  0.00    +0.105 C 
ATOM      2  C   UNL     1      -0.971   7.872   0.390  0.00  0.00    +0.098 C 
ATOM      3  C   UNL     1      -1.310   7.152   1.487  0.00  0.00    +0.198 C 
ATOM      4  O   UNL     1      -0.774   5.944   1.727  0.00  0.00    -0.444 OA
ATOM      5  C   UNL     1      -0.227   5.243   0.717  0.00  0.00    +0.129 C 
ATOM      6  C   UNL     1       0.176   5.842  -0.415  0.00  0.00    +0.088 C 
ATOM      7  C   UNL     1       0.762   5.079  -1.458  0.00  0.00    +0.340 C 
ATOM      8  O   UNL     1       1.113   5.628  -2.485  0.00  0.00    -0.245 OA
ATOM      9  O   UNL     1       0.931   3.749  -1.317  0.00  0.00    -0.453 OA
ATOM     10  C   UNL     1       1.104   3.266   0.020  0.00  0.00    +0.214 C 
ATOM     11  C   UNL     1      -0.069   3.749   0.874  0.00  0.00    +0.123 C 
ATOM     12  C   UNL     1      -1.334   3.061   0.436  0.00  0.00    -0.012 C 
ATOM     13  C   UNL     1      -1.296   1.798   0.018  0.00  0.00    -0.004 C 
ATOM     14  C   UNL     1      -0.013   1.076   0.008  0.00  0.00    -0.001 C 
ATOM     15  C   UNL     1       1.127   1.759   0.001  0.00  0.00    +0.018 C 
ENDROOT
BRANCH   1  20
ATOM     16  C   UNL     1       3.222   8.506   1.024  0.00  0.00    +0.000 A 
ATOM     17  C   UNL     1       3.801   9.232  -0.000  0.00  0.00    +0.001 A 
ATOM     18  C   UNL     1       3.157   9.343  -1.218  0.00  0.00    +0.012 A 
ATOM     19  C   UNL     1       1.934   8.727  -1.412  0.00  0.00    +0.059 A 
ATOM     20  C   UNL     1       1.356   8.001  -0.388  0.00  0.00    -0.023 A 
ATOM     21  C   UNL     1       1.998   7.894   0.832  0.00  0.00    +0.005 A 
BRANCH  19  22
ATOM     22  C   UNL     1       1.232   8.849  -2.740  0.00  0.00    +0.418 C 
ATOM     23  F   UNL     1       2.006   9.626  -3.608  0.00  0.00    -0.166 F 
ATOM     24  F   UNL     1       1.051   7.575  -3.290  0.00  0.00    -0.166 F 
ATOM     25  F   UNL     1      -0.014   9.458  -2.554  0.00  0.00    -0.166 F 
ENDBRANCH  19  22
ENDBRANCH   1  20
BRANCH   3  26
ATOM     26  N   UNL     1      -2.222   7.668   2.373  0.00  0.00    -0.328 N 
ATOM     27  H   UNL     1      -2.506   7.094   3.267  0.00  0.00    +0.145 HD
ATOM     28  H   UNL     1      -2.670   8.656   2.188  0.00  0.00    +0.145 HD
ENDBRANCH   3  26
BRANCH   2  29
ATOM     29  C   UNL     1      -1.562   9.158   0.173  0.00  0.00    +0.101 C 
ATOM     30  N   UNL     1      -2.032  10.178   0.001  0.00  0.00    -0.191 NA
ENDBRANCH   2  29
TORSDOF 4
