REMARK  Name = ZINC43409207
REMARK  4 active torsions:
REMARK  status: ('A' for Active; 'I' for Inactive)
REMARK    1  A    between atoms: C_5  and  O_7
REMARK    2  A    between atoms: O_7  and  C_8
REMARK    3  A    between atoms: C_9  and  C_17
REMARK    4  A    between atoms: C_17  and  N_19
REMARK                            x       y       z     vdW  Elec       q    Type
REMARK                         _______ _______ _______ _____ _____    ______ ____
ROOT
ATOM      1  C   UNL     1       0.053  -2.696   0.067  0.00  0.00    +0.230 A 
ATOM      2  C   UNL     1       0.040  -4.094   0.196  0.00  0.00    +0.065 A 
ATOM      3  C   UNL     1      -1.192  -4.743   0.331  0.00  0.00    +0.021 A 
ATOM      4  C   UNL     1      -2.346  -3.978   0.332  0.00  0.00    -0.025 A 
ATOM      5  C   UNL     1      -2.256  -2.603   0.201  0.00  0.00    +0.048 A 
ATOM      6  N   UNL     1      -1.077  -2.014   0.080  0.00  0.00    -0.217 NA
ATOM      7  C   UNL     1      -3.646  -2.000   0.232  0.00  0.00    +0.056 C 
ATOM      8  C   UNL     1      -4.605  -3.176  -0.046  0.00  0.00    +0.011 C 
ATOM      9  C   UNL     1      -3.796  -4.390   0.458  0.00  0.00    +0.037 C 
ENDROOT
BRANCH   2  10
ATOM     10  C   UNL     1       1.298  -4.861   0.189  0.00  0.00    +0.082 C 
ATOM     11  S   UNL     1       2.801  -4.042   0.178  0.00  0.00    -0.035 S 
BRANCH  10  12
ATOM     12  N   UNL     1       1.266  -6.209   0.191  0.00  0.00    -0.352 N 
ATOM     13  H   UNL     1       0.418  -6.673   0.271  0.00  0.00    +0.143 HD
ATOM     14  H   UNL     1       2.090  -6.714   0.113  0.00  0.00    +0.143 HD
ENDBRANCH  10  12
ENDBRANCH   2  10
BRANCH   1  15
ATOM     15  O   UNL     1       1.232  -2.043  -0.065  0.00  0.00    -0.436 OA
BRANCH  15  20
ATOM     16  C   UNL     1       1.239   1.379  -1.303  0.00  0.00    +0.004 A 
ATOM     17  C   UNL     1       1.168   2.083  -0.114  0.00  0.00    +0.001 A 
ATOM     18  C   UNL     1       1.118   1.407   1.091  0.00  0.00    +0.019 A 
ATOM     19  C   UNL     1       1.139   0.025   1.110  0.00  0.00    +0.060 A 
ATOM     20  C   UNL     1       1.211  -0.684  -0.081  0.00  0.00    +0.144 A 
ATOM     21  C   UNL     1       1.260  -0.003  -1.289  0.00  0.00    +0.047 A 
ATOM     22 BR   UNL     1       1.073  -0.899   2.759  0.00  0.00    -0.046 Br
ENDBRANCH  15  20
ENDBRANCH   1  15
TORSDOF 4
