REMARK  Name = ZINC06256667
REMARK  8 active torsions:
REMARK  status: ('A' for Active; 'I' for Inactive)
REMARK    1  A    between atoms: C_1  and  C_2
REMARK    2  A    between atoms: C_6  and  N_8
REMARK    3  A    between atoms: C_9  and  N_29
REMARK    4  A    between atoms: C_14  and  S_15
REMARK    5  A    between atoms: S_15  and  C_16
REMARK    6  A    between atoms: C_16  and  C_18
REMARK    7  A    between atoms: C_16  and  C_19
REMARK    8  A    between atoms: N_21  and  C_22
REMARK                            x       y       z     vdW  Elec       q    Type
REMARK                         _______ _______ _______ _____ _____    ______ ____
ROOT
ATOM      1  N   UNL     1      -0.460  -2.743   2.358  0.00  0.00    -0.277 N 
ATOM      2  C   UNL     1      -0.379  -2.047   3.538  0.00  0.00    +0.108 A 
ATOM      3  C   UNL     1      -0.214  -2.736   4.705  0.00  0.00    +0.114 A 
ATOM      4  C   UNL     1      -0.133  -4.142   4.660  0.00  0.00    +0.276 A 
ATOM      5  O   UNL     1       0.015  -4.781   5.691  0.00  0.00    -0.266 OA
ATOM      6  N   UNL     1      -0.217  -4.777   3.480  0.00  0.00    -0.185 NA
ATOM      7  C   UNL     1      -0.382  -4.106   2.360  0.00  0.00    +0.179 A 
ENDROOT
BRANCH   1  13
ATOM      8  C   UNL     1       1.363   0.218  -1.119  0.00  0.00    +0.044 C 
ATOM      9  C   UNL     1       0.237  -0.612  -0.557  0.00  0.00    -0.048 A 
ATOM     10  C   UNL     1      -0.966  -0.694  -1.235  0.00  0.00    +0.003 A 
ATOM     11  C   UNL     1      -2.000  -1.454  -0.724  0.00  0.00    +0.002 A 
ATOM     12  C   UNL     1      -1.836  -2.135   0.467  0.00  0.00    +0.026 A 
ATOM     13  C   UNL     1      -0.630  -2.054   1.150  0.00  0.00    +0.050 A 
ATOM     14  C   UNL     1       0.409  -1.294   0.631  0.00  0.00    +0.029 A 
ENDBRANCH   1  13
BRANCH   2  15
ATOM     15  N   UNL     1      -0.463  -0.673   3.545  0.00  0.00    -0.344 N 
ATOM     16  H   UNL     1      -0.670  -0.196   2.726  0.00  0.00    +0.144 HD
ATOM     17  H   UNL     1      -0.314  -0.182   4.368  0.00  0.00    +0.144 HD
ENDBRANCH   2  15
BRANCH   7  18
ATOM     18  S   UNL     1      -0.495  -4.981   0.835  0.00  0.00    -0.075 S 
BRANCH  18  19
ATOM     19  C   UNL     1      -0.343  -6.723   1.317  0.00  0.00    +0.137 C 
ATOM     20  C   UNL     1       1.051  -6.972   1.897  0.00  0.00    +0.029 C 
BRANCH  19  21
ATOM     21  C   UNL     1      -0.547  -7.599   0.107  0.00  0.00    +0.230 C 
ATOM     22  O   UNL     1      -0.324  -7.162  -1.002  0.00  0.00    -0.274 OA
ATOM     23  N   UNL     1      -0.978  -8.867   0.258  0.00  0.00    -0.285 N 
ATOM     24  H   UNL     1      -1.222  -9.195   1.137  0.00  0.00    +0.155 HD
BRANCH  23  25
ATOM     25  C   UNL     1      -1.072  -9.710  -0.855  0.00  0.00    +0.035 A 
ATOM     26  C   UNL     1      -2.074 -10.671  -0.916  0.00  0.00    +0.023 A 
ATOM     27  C   UNL     1      -2.166 -11.502  -2.015  0.00  0.00    +0.003 A 
ATOM     28  C   UNL     1      -1.262 -11.379  -3.054  0.00  0.00    +0.020 A 
ATOM     29  C   UNL     1      -0.263 -10.424  -2.997  0.00  0.00    +0.043 A 
ATOM     30  C   UNL     1      -0.169  -9.585  -1.902  0.00  0.00    +0.043 A 
ATOM     31 CL   UNL     1       0.870 -10.273  -4.304  0.00  0.00    -0.083 Cl
ENDBRANCH  23  25
ENDBRANCH  19  21
ENDBRANCH  18  19
ENDBRANCH   7  18
TORSDOF 6
