REMARK  Name = ZINC63488944
REMARK  11 active torsions:
REMARK  status: ('A' for Active; 'I' for Inactive)
REMARK    1  A    between atoms: C_1  and  C_2
REMARK    2  A    between atoms: C_3  and  C_4
REMARK    3  A    between atoms: C_7  and  O_12
REMARK    4  A    between atoms: C_8  and  O_10
REMARK    5  A    between atoms: O_10  and  C_11
REMARK    6  A    between atoms: O_12  and  C_13
REMARK    7  A    between atoms: C_13  and  C_14
REMARK    8  A    between atoms: N_16  and  C_17
REMARK    9  A    between atoms: C_17  and  C_18
REMARK   10  A    between atoms: C_17  and  C_19
REMARK   11  A    between atoms: C_23  and  C_25
REMARK                            x       y       z     vdW  Elec       q    Type
REMARK                         _______ _______ _______ _____ _____    ______ ____
ROOT
ATOM      1  C   UNL     1       0.141  -8.417  -0.096  0.00  0.00    +0.251 C 
ATOM      2  O   UNL     1       0.702  -8.870  -1.071  0.00  0.00    -0.272 OA
ATOM      3  N   UNL     1      -0.379  -9.247   0.829  0.00  0.00    -0.303 N 
ATOM      4  H   UNL     1      -0.828  -8.884   1.609  0.00  0.00    +0.149 HD
ENDROOT
BRANCH   3   5
ATOM      5  C   UNL     1      -0.266 -10.698   0.658  0.00  0.00    +0.134 C 
ATOM      6  C   UNL     1      -1.413 -11.198  -0.222  0.00  0.00    +0.036 C 
BRANCH   5   7
ATOM      7  C   UNL     1      -0.336 -11.370   2.005  0.00  0.00    +0.105 A 
ATOM      8  N   UNL     1      -1.018 -10.909   3.077  0.00  0.00    -0.348 N 
ATOM      9  H   UNL     1      -1.545 -10.096   3.116  0.00  0.00    +0.167 HD
ATOM     10  C   UNL     1      -0.830 -11.801   4.096  0.00  0.00    +0.110 A 
ATOM     11  C   UNL     1      -0.032 -12.786   3.609  0.00  0.00    +0.064 A 
ATOM     12  N   UNL     1       0.247 -12.491   2.323  0.00  0.00    -0.342 N 
ATOM     13  H   UNL     1       0.795 -13.027   1.730  0.00  0.00    +0.167 HD
BRANCH  11  14
ATOM     14  C   UNL     1       0.444 -13.977   4.357  0.00  0.00    -0.000 A 
ATOM     15  C   UNL     1       1.268 -14.911   3.733  0.00  0.00    +0.010 A 
ATOM     16  C   UNL     1       1.707 -16.016   4.433  0.00  0.00    +0.001 A 
ATOM     17  C   UNL     1       1.330 -16.198   5.751  0.00  0.00    +0.000 A 
ATOM     18  C   UNL     1       0.512 -15.274   6.376  0.00  0.00    +0.001 A 
ATOM     19  C   UNL     1       0.072 -14.161   5.687  0.00  0.00    +0.010 A 
ENDBRANCH  11  14
ENDBRANCH   5   7
ENDBRANCH   3   5
BRANCH   1  20
ATOM     20  C   UNL     1       0.024  -6.925   0.080  0.00  0.00    +0.324 C 
BRANCH  20  21
ATOM     21  O   UNL     1       0.647  -6.264  -1.024  0.00  0.00    -0.479 OA
BRANCH  21  25
ATOM     22  C   UNL     1       0.596  -2.131  -1.010  0.00  0.00    -0.022 A 
ATOM     23  C   UNL     1       0.006  -2.845   0.035  0.00  0.00    +0.012 A 
ATOM     24  C   UNL     1       0.025  -4.224   0.026  0.00  0.00    +0.050 A 
ATOM     25  C   UNL     1       0.630  -4.905  -1.020  0.00  0.00    +0.163 A 
ATOM     26  C   UNL     1       1.220  -4.199  -2.066  0.00  0.00    +0.162 A 
ATOM     27  C   UNL     1       1.199  -2.817  -2.065  0.00  0.00    +0.057 A 
BRANCH  22  30
ATOM     28  C   UNL     1      -0.018   1.503   0.010  0.00  0.00    +0.035 C 
ATOM     29  C   UNL     1       0.002  -0.004   0.002  0.00  0.00    -0.030 C 
ATOM     30  C   UNL     1       0.576  -0.654  -1.002  0.00  0.00    +0.003 C 
ENDBRANCH  22  30
BRANCH  26  31
ATOM     31  O   UNL     1       1.812  -4.870  -3.090  0.00  0.00    -0.491 OA
ATOM     32  C   UNL     1       2.397  -4.083  -4.129  0.00  0.00    +0.277 C 
ENDBRANCH  26  31
ENDBRANCH  21  25
ENDBRANCH  20  21
ENDBRANCH   1  20
TORSDOF 8
