REMARK  Name = ZINC40349281
REMARK  8 active torsions:
REMARK  status: ('A' for Active; 'I' for Inactive)
REMARK    1  A    between atoms: C_1  and  C_2
REMARK    2  A    between atoms: C_2  and  S_3
REMARK    3  A    between atoms: S_3  and  C_4
REMARK    4  A    between atoms: C_9  and  N_10
REMARK    5  A    between atoms: N_10  and  S_11
REMARK    6  A    between atoms: S_11  and  C_14
REMARK    7  A    between atoms: C_17  and  O_21
REMARK    8  A    between atoms: C_18  and  N_20
REMARK                            x       y       z     vdW  Elec       q    Type
REMARK                         _______ _______ _______ _____ _____    ______ ____
ROOT
ATOM      1  S   UNL     1       1.990  -3.334  -4.913  0.00  0.00    +0.072 S 
ATOM      2  O   UNL     1       2.761  -2.534  -5.799  0.00  0.00    -0.150 OA
ATOM      3  O   UNL     1       2.306  -4.693  -4.644  0.00  0.00    -0.150 OA
ENDROOT
BRANCH   1   4
ATOM      4  C   UNL     1       0.338  -3.314  -5.526  0.00  0.00    +0.110 A 
ATOM      5  C   UNL     1      -0.529  -4.342  -5.205  0.00  0.00    +0.032 A 
ATOM      6  C   UNL     1      -1.827  -4.331  -5.682  0.00  0.00    +0.049 A 
ATOM      7  C   UNL     1      -2.262  -3.289  -6.484  0.00  0.00    +0.137 A 
ATOM      8  C   UNL     1      -1.389  -2.253  -6.807  0.00  0.00    +0.068 A 
ATOM      9  C   UNL     1      -0.090  -2.267  -6.321  0.00  0.00    +0.055 A 
BRANCH   8  10
ATOM     10  N   UNL     1      -1.823  -1.197  -7.617  0.00  0.00    -0.355 N 
ATOM     11  H   UNL     1      -2.733  -1.186  -7.954  0.00  0.00    +0.142 HD
ATOM     12  H   UNL     1      -1.214  -0.476  -7.842  0.00  0.00    +0.142 HD
ENDBRANCH   8  10
BRANCH   7  13
ATOM     13  O   UNL     1      -3.538  -3.277  -6.954  0.00  0.00    -0.505 OA
ATOM     14  H   UNL     1      -4.168  -2.830  -6.372  0.00  0.00    +0.292 HD
ENDBRANCH   7  13
ENDBRANCH   1   4
BRANCH   1  15
ATOM     15  N   UNL     1       1.981  -2.552  -3.454  0.00  0.00    -0.215 N 
ATOM     16  H   UNL     1       2.518  -1.754  -3.328  0.00  0.00    +0.174 HD
BRANCH  15  22
ATOM     17  C   UNL     1       0.585  -2.156  -1.515  0.00  0.00    +0.030 A 
ATOM     18  C   UNL     1      -0.195  -2.648  -0.478  0.00  0.00    +0.016 A 
ATOM     19  C   UNL     1      -0.358  -4.012  -0.323  0.00  0.00    +0.001 A 
ATOM     20  C   UNL     1       0.254  -4.889  -1.199  0.00  0.00    +0.002 A 
ATOM     21  C   UNL     1       1.033  -4.408  -2.235  0.00  0.00    +0.025 A 
ATOM     22  C   UNL     1       1.197  -3.042  -2.402  0.00  0.00    +0.061 A 
BRANCH  17  23
ATOM     23  S   UNL     1       0.795  -0.418  -1.715  0.00  0.00    -0.124 S 
BRANCH  23  25
ATOM     24  C   UNL     1      -0.071   1.826  -0.411  0.00  0.00    +0.015 C 
ATOM     25  C   UNL     1      -0.168   0.300  -0.355  0.00  0.00    +0.071 C 
ENDBRANCH  23  25
ENDBRANCH  17  23
ENDBRANCH  15  22
ENDBRANCH   1  15
TORSDOF 7
