REMARK  Name = ZINC50014570
REMARK  4 active torsions:
REMARK  status: ('A' for Active; 'I' for Inactive)
REMARK    1  A    between atoms: C_1  and  N_2
REMARK    2  A    between atoms: N_2  and  C_3
REMARK    3  A    between atoms: C_8  and  N_9
REMARK    4  A    between atoms: C_10  and  C_12
REMARK                            x       y       z     vdW  Elec       q    Type
REMARK                         _______ _______ _______ _____ _____    ______ ____
ROOT
ATOM      1  C   UNL     1       0.882   1.289  -0.105  0.00  0.00    +0.138 C 
ATOM      2  N   UNL     1       0.431  -0.104  -0.064  0.00  0.00    -0.269 N 
ATOM      3  C   UNL     1      -0.102  -0.673  -1.163  0.00  0.00    +0.253 C 
ATOM      4  O   UNL     1      -0.563  -1.796  -1.104  0.00  0.00    -0.270 OA
ENDROOT
BRANCH   3   5
ATOM      5  C   UNL     1      -0.124   0.068  -2.441  0.00  0.00    +0.072 A 
ATOM      6  C   UNL     1       0.997   0.793  -2.851  0.00  0.00    +0.016 A 
ATOM      7  C   UNL     1       0.970   1.482  -4.045  0.00  0.00    +0.001 A 
ATOM      8  C   UNL     1      -0.166   1.459  -4.837  0.00  0.00    +0.003 A 
ATOM      9  C   UNL     1      -1.280   0.745  -4.439  0.00  0.00    +0.039 A 
ATOM     10  C   UNL     1      -1.266   0.043  -3.248  0.00  0.00    +0.135 A 
ATOM     11  F   UNL     1      -2.353  -0.660  -2.862  0.00  0.00    -0.205 F 
ENDBRANCH   3   5
BRANCH   2  12
ATOM     12  C   UNL     1       0.552  -0.845   1.119  0.00  0.00    +0.057 A 
ATOM     13  C   UNL     1      -0.482  -0.853   2.044  0.00  0.00    +0.025 A 
ATOM     14  C   UNL     1      -0.360  -1.585   3.210  0.00  0.00    +0.002 A 
ATOM     15  C   UNL     1       0.791  -2.310   3.460  0.00  0.00    +0.002 A 
ATOM     16  C   UNL     1       1.826  -2.307   2.544  0.00  0.00    +0.024 A 
ATOM     17  C   UNL     1       1.710  -1.581   1.368  0.00  0.00    +0.046 A 
BRANCH  17  18
ATOM     18  N   UNL     1       2.754  -1.582   0.437  0.00  0.00    -0.357 N 
ATOM     19  H   UNL     1       2.674  -1.070  -0.383  0.00  0.00    +0.142 HD
ATOM     20  H   UNL     1       3.559  -2.094   0.611  0.00  0.00    +0.142 HD
ENDBRANCH  17  18
ENDBRANCH   2  12
TORSDOF 3
