REMARK  Name = ZINC03233191
REMARK  10 active torsions:
REMARK  status: ('A' for Active; 'I' for Inactive)
REMARK    1  A    between atoms: C_1  and  C_2
REMARK    2  A    between atoms: C_4  and  S_10
REMARK    3  A    between atoms: C_5  and  C_9
REMARK    4  A    between atoms: S_10  and  C_11
REMARK    5  A    between atoms: C_11  and  C_12
REMARK    6  A    between atoms: N_14  and  N_15
REMARK    7  A    between atoms: C_16  and  C_17
REMARK    8  A    between atoms: C_20  and  O_25
REMARK    9  A    between atoms: C_21  and  O_24
REMARK   10  A    between atoms: C_22  and  O_23
REMARK                            x       y       z     vdW  Elec       q    Type
REMARK                         _______ _______ _______ _____ _____    ______ ____
ROOT
ATOM      1  C   UNL     1       0.006  -2.263  -5.363  0.00  0.00    +0.242 C 
ATOM      2  O   UNL     1       0.022  -3.470  -5.483  0.00  0.00    -0.273 OA
ATOM      3  N   UNL     1      -0.011  -1.477  -6.457  0.00  0.00    -0.206 N 
ATOM      4  H   UNL     1      -0.024  -0.512  -6.361  0.00  0.00    +0.177 HD
ENDROOT
BRANCH   3   5
ATOM      5  N   UNL     1      -0.009  -2.054  -7.734  0.00  0.00    -0.188 NA
ATOM      6  C   UNL     1      -0.025  -1.297  -8.789  0.00  0.00    +0.142 C 
BRANCH   6   7
ATOM      7  C   UNL     1      -0.024  -1.904 -10.131  0.00  0.00    +0.040 A 
ATOM      8  C   UNL     1      -0.035  -1.091 -11.268  0.00  0.00    +0.017 A 
ATOM      9  C   UNL     1      -0.034  -1.661 -12.523  0.00  0.00    +0.050 A 
ATOM     10  C   UNL     1      -0.021  -3.042 -12.664  0.00  0.00    +0.162 A 
ATOM     11  C   UNL     1      -0.009  -3.861 -11.541  0.00  0.00    +0.201 A 
ATOM     12  C   UNL     1      -0.005  -3.298 -10.273  0.00  0.00    +0.171 A 
BRANCH  12  13
ATOM     13  O   UNL     1       0.011  -4.095  -9.172  0.00  0.00    -0.503 OA
ATOM     14  H   UNL     1      -0.867  -4.338  -8.849  0.00  0.00    +0.292 HD
ENDBRANCH  12  13
BRANCH  11  15
ATOM     15  O   UNL     1       0.003  -5.215 -11.684  0.00  0.00    -0.501 OA
ATOM     16  H   UNL     1       0.890  -5.597 -11.729  0.00  0.00    +0.292 HD
ENDBRANCH  11  15
BRANCH  10  17
ATOM     17  O   UNL     1      -0.020  -3.596 -13.906  0.00  0.00    -0.503 OA
ATOM     18  H   UNL     1       0.864  -3.748 -14.268  0.00  0.00    +0.292 HD
ENDBRANCH  10  17
ENDBRANCH   6   7
ENDBRANCH   3   5
BRANCH   1  19
ATOM     19  C   UNL     1       0.004  -1.643  -3.989  0.00  0.00    +0.171 C 
BRANCH  19  20
ATOM     20  S   UNL     1       0.029  -2.952  -2.734  0.00  0.00    -0.116 S 
BRANCH  20  24
ATOM     21  C   UNL     1      -0.018   1.503   0.010  0.00  0.00    +0.045 C 
ATOM     22  C   UNL     1       0.002  -0.004   0.002  0.00  0.00    -0.035 A 
ATOM     23  C   UNL     1       0.006  -0.687  -1.198  0.00  0.00    +0.019 A 
ATOM     24  C   UNL     1       0.025  -2.077  -1.205  0.00  0.00    +0.012 A 
ATOM     25  C   UNL     1       0.041  -2.774  -0.003  0.00  0.00    -0.036 A 
ATOM     26  C   UNL     1       0.037  -2.085   1.193  0.00  0.00    +0.020 A 
ATOM     27  C   UNL     1       0.023  -0.702   1.197  0.00  0.00    +0.021 A 
ATOM     28 BR   UNL     1       0.025   0.238   2.838  0.00  0.00    -0.050 Br
ATOM     29  C   UNL     1       0.061  -4.281  -0.006  0.00  0.00    +0.045 C 
ENDBRANCH  20  24
ENDBRANCH  19  20
ENDBRANCH   1  19
TORSDOF 8
