REMARK  Name = ZINC40302530
REMARK  6 active torsions:
REMARK  status: ('A' for Active; 'I' for Inactive)
REMARK    1  A    between atoms: C_1  and  N_2
REMARK    2  A    between atoms: N_2  and  C_3
REMARK    3  A    between atoms: N_2  and  C_4
REMARK    4  A    between atoms: C_7  and  N_21
REMARK    5  A    between atoms: C_9  and  C_10
REMARK    6  A    between atoms: N_12  and  C_13
REMARK                            x       y       z     vdW  Elec       q    Type
REMARK                         _______ _______ _______ _____ _____    ______ ____
ROOT
ATOM      1  C   UNL     1      -1.204  -0.695   0.010  0.00  0.00    +0.042 A 
ATOM      2  C   UNL     1      -1.817  -1.041  -1.188  0.00  0.00    +0.025 A 
ATOM      3  C   UNL     1      -3.004  -1.743  -1.182  0.00  0.00    +0.024 A 
ATOM      4  C   UNL     1      -3.598  -2.110   0.022  0.00  0.00    +0.025 A 
ATOM      5  C   UNL     1      -3.001  -1.773   1.224  0.00  0.00    +0.037 A 
ATOM      6  C   UNL     1      -1.794  -1.067   1.227  0.00  0.00    +0.060 A 
ENDROOT
BRANCH   6   7
ATOM      7  C   UNL     1      -1.149  -0.710   2.503  0.00  0.00    +0.250 C 
ATOM      8  O   UNL     1      -0.102  -0.091   2.503  0.00  0.00    -0.270 OA
ATOM      9  N   UNL     1      -1.719  -1.070   3.671  0.00  0.00    -0.280 N 
ATOM     10  H   UNL     1      -2.585  -1.506   3.673  0.00  0.00    +0.155 HD
BRANCH   9  11
ATOM     11  C   UNL     1      -1.060  -0.814   4.879  0.00  0.00    +0.052 A 
ATOM     12  C   UNL     1      -0.289   0.332   5.022  0.00  0.00    +0.026 A 
ATOM     13  C   UNL     1       0.359   0.582   6.215  0.00  0.00    +0.017 A 
ATOM     14  C   UNL     1       0.242  -0.308   7.268  0.00  0.00    +0.019 A 
ATOM     15  C   UNL     1      -0.525  -1.451   7.129  0.00  0.00    +0.037 A 
ATOM     16  C   UNL     1      -1.182  -1.703   5.940  0.00  0.00    +0.063 A 
ATOM     17 CL   UNL     1      -2.151  -3.134   5.768  0.00  0.00    -0.082 Cl
ATOM     18 BR   UNL     1       1.133   0.038   8.900  0.00  0.00    -0.050 Br
ENDBRANCH   9  11
ENDBRANCH   6   7
BRANCH   1  20
ATOM     19  C   UNL     1      -0.022   1.478   0.020  0.00  0.00    +0.129 C 
ATOM     20  N   UNL     1      -0.007   0.014   0.003  0.00  0.00    -0.335 N 
ATOM     21  C   UNL     1       1.270  -0.705  -0.022  0.00  0.00    +0.129 C 
ENDBRANCH   1  20
BRANCH   4  22
ATOM     22  N   UNL     1      -4.803  -2.822   0.017  0.00  0.00    -0.358 N 
ATOM     23  H   UNL     1      -5.223  -3.059  -0.825  0.00  0.00    +0.142 HD
ATOM     24  H   UNL     1      -5.218  -3.079   0.855  0.00  0.00    +0.142 HD
ENDBRANCH   4  22
TORSDOF 4
