REMARK  Name = ZINC16545038
REMARK  4 active torsions:
REMARK  status: ('A' for Active; 'I' for Inactive)
REMARK    1  A    between atoms: C_10  and  N_11
REMARK    2  A    between atoms: N_11  and  N_12
REMARK    3  A    between atoms: N_12  and  C_13
REMARK    4  A    between atoms: N_19  and  C_22
REMARK                            x       y       z     vdW  Elec       q    Type
REMARK                         _______ _______ _______ _____ _____    ______ ____
ROOT
ATOM      1  C   UNL     1       7.246   0.103  -0.015  0.00  0.00    +0.106 C 
ATOM      2  C   UNL     1       8.454  -0.567   0.049  0.00  0.00    +0.116 C 
ATOM      3  C   UNL     1       9.737   0.160   0.130  0.00  0.00    +0.278 C 
ATOM      4  N   UNL     1      10.873  -0.555   0.189  0.00  0.00    -0.123 NA
ATOM      5  C   UNL     1      10.870  -1.865   0.178  0.00  0.00    +0.340 C 
ATOM      6  O   UNL     1      12.054  -2.504   0.242  0.00  0.00    -0.250 OA
ATOM      7  N   UNL     1       9.738  -2.615   0.106  0.00  0.00    -0.188 N 
ATOM      8  C   UNL     1       8.519  -2.038   0.046  0.00  0.00    +0.265 C 
ATOM      9  O   UNL     1       7.507  -2.712  -0.014  0.00  0.00    -0.269 OA
ATOM     10  O   UNL     1       9.765   1.379   0.141  0.00  0.00    -0.268 OA
ENDROOT
BRANCH   7  11
ATOM     11  C   UNL     1       9.838  -4.013   0.100  0.00  0.00    +0.047 A 
ATOM     12  C   UNL     1       9.476  -4.731  -1.032  0.00  0.00    +0.024 A 
ATOM     13  C   UNL     1       9.576  -6.109  -1.036  0.00  0.00    +0.003 A 
ATOM     14  C   UNL     1      10.036  -6.774   0.085  0.00  0.00    +0.020 A 
ATOM     15  C   UNL     1      10.398  -6.061   1.215  0.00  0.00    +0.043 A 
ATOM     16  C   UNL     1      10.306  -4.682   1.222  0.00  0.00    +0.044 A 
ATOM     17 CL   UNL     1      10.974  -6.900   2.622  0.00  0.00    -0.083 Cl
ENDBRANCH   7  11
BRANCH   1  18
ATOM     18  N   UNL     1       6.089  -0.585   0.050  0.00  0.00    -0.273 N 
ATOM     19  H   UNL     1       6.102  -1.555   0.067  0.00  0.00    +0.169 HD
BRANCH  18  20
ATOM     20  N   UNL     1       4.868   0.100   0.093  0.00  0.00    -0.266 N 
ATOM     21  H   UNL     1       4.855   1.070   0.076  0.00  0.00    +0.170 HD
BRANCH  20  31
ATOM     22  C   UNL     1      -0.011   1.371   0.293  0.00  0.00    +0.001 A 
ATOM     23  C   UNL     1       1.173   2.102   0.227  0.00  0.00    +0.001 A 
ATOM     24  C   UNL     1       2.381   1.475   0.183  0.00  0.00    +0.010 A 
ATOM     25  C   UNL     1       2.438   0.073   0.204  0.00  0.00    +0.004 A 
ATOM     26  C   UNL     1       1.234  -0.671   0.272  0.00  0.00    -0.016 A 
ATOM     27  C   UNL     1       0.006   0.010   0.316  0.00  0.00    +0.008 A 
ATOM     28  C   UNL     1       1.290  -2.075   0.295  0.00  0.00    +0.008 A 
ATOM     29  C   UNL     1       2.494  -2.709   0.251  0.00  0.00    +0.002 A 
ATOM     30  C   UNL     1       3.683  -1.990   0.185  0.00  0.00    +0.025 A 
ATOM     31  C   UNL     1       3.672  -0.611   0.161  0.00  0.00    +0.052 A 
ENDBRANCH  20  31
ENDBRANCH  18  20
ENDBRANCH   1  18
TORSDOF 4
