REMARK  Name = ZINC04095177
REMARK  4 active torsions:
REMARK  status: ('A' for Active; 'I' for Inactive)
REMARK    1  A    between atoms: C_1  and  C_2
REMARK    2  A    between atoms: C_9  and  N_26
REMARK    3  A    between atoms: C_10  and  C_24
REMARK    4  A    between atoms: C_11  and  C_13
REMARK                            x       y       z     vdW  Elec       q    Type
REMARK                         _______ _______ _______ _____ _____    ______ ____
ROOT
ATOM      1  C   UNL     1      -0.018   1.503   0.010  0.00  0.00    +0.068 C 
ATOM      2  C   UNL     1       0.002  -0.004   0.002  0.00  0.00    +0.068 A 
ATOM      3  C   UNL     1       0.008  -0.813  -1.126  0.00  0.00    +0.049 A 
ATOM      4  C   UNL     1       0.027  -2.116  -0.713  0.00  0.00    +0.222 A 
ATOM      5  N   UNL     1       0.034  -2.116   0.629  0.00  0.00    -0.246 N 
ATOM      6  H   UNL     1       0.048  -2.900   1.201  0.00  0.00    +0.192 HD
ATOM      7  N   UNL     1       0.023  -0.780   1.060  0.00  0.00    -0.176 NA
ATOM      8  O   UNL     1       0.034  -3.159  -1.580  0.00  0.00    -0.423 OA
ATOM      9  C   UNL     1      -0.255  -2.900  -2.872  0.00  0.00    +0.200 C 
ATOM     10  C   UNL     1      -0.291  -1.656  -3.399  0.00  0.00    +0.098 C 
ATOM     11  C   UNL     1      -0.002  -0.421  -2.581  0.00  0.00    +0.107 C 
ENDROOT
BRANCH  11  12
ATOM     12  C   UNL     1       1.341   0.142  -2.966  0.00  0.00    +0.042 A 
ATOM     13  C   UNL     1       2.478  -0.638  -2.846  0.00  0.00    +0.168 A 
ATOM     14  C   UNL     1       3.715  -0.121  -3.199  0.00  0.00    +0.197 A 
ATOM     15  C   UNL     1       3.812   1.178  -3.673  0.00  0.00    +0.199 A 
ATOM     16  C   UNL     1       2.674   1.958  -3.792  0.00  0.00    +0.197 A 
ATOM     17  C   UNL     1       1.437   1.437  -3.444  0.00  0.00    +0.168 A 
ATOM     18  F   UNL     1       0.326   2.196  -3.566  0.00  0.00    -0.202 F 
ATOM     19  F   UNL     1       2.768   3.224  -4.254  0.00  0.00    -0.199 F 
ATOM     20  F   UNL     1       5.017   1.683  -4.017  0.00  0.00    -0.199 F 
ATOM     21  F   UNL     1       4.824  -0.882  -3.082  0.00  0.00    -0.199 F 
ATOM     22  F   UNL     1       2.383  -1.904  -2.384  0.00  0.00    -0.202 F 
ENDBRANCH  11  12
BRANCH   9  23
ATOM     23  N   UNL     1      -0.527  -3.961  -3.699  0.00  0.00    -0.328 N 
ATOM     24  H   UNL     1      -0.509  -4.865  -3.349  0.00  0.00    +0.145 HD
ATOM     25  H   UNL     1      -0.738  -3.806  -4.633  0.00  0.00    +0.145 HD
ENDBRANCH   9  23
BRANCH  10  26
ATOM     26  C   UNL     1      -0.615  -1.504  -4.786  0.00  0.00    +0.101 C 
ATOM     27  N   UNL     1      -0.872  -1.384  -5.886  0.00  0.00    -0.191 NA
ENDBRANCH  10  26
TORSDOF 3
