REMARK  Name = ZINC37963228
REMARK  4 active torsions:
REMARK  status: ('A' for Active; 'I' for Inactive)
REMARK    1  A    between atoms: C_1  and  C_2
REMARK    2  A    between atoms: C_2  and  C_3
REMARK    3  A    between atoms: C_2  and  C_12
REMARK    4  A    between atoms: C_2  and  N_15
REMARK                            x       y       z     vdW  Elec       q    Type
REMARK                         _______ _______ _______ _____ _____    ______ ____
ROOT
ATOM      1  C   UNL     1       0.006   1.519   0.152  0.00  0.00    +0.045 C 
ATOM      2  C   UNL     1       0.002  -0.004   0.002  0.00  0.00    +0.146 C 
ENDROOT
BRANCH   2   3
ATOM      3  C   UNL     1       0.852  -0.618   1.085  0.00  0.00    -0.013 A 
ATOM      4  C   UNL     1       1.056   0.064   2.270  0.00  0.00    +0.010 A 
ATOM      5  C   UNL     1       1.834  -0.494   3.267  0.00  0.00    +0.050 A 
ATOM      6  C   UNL     1       2.411  -1.740   3.080  0.00  0.00    +0.166 A 
ATOM      7  C   UNL     1       2.205  -2.427   1.886  0.00  0.00    +0.167 A 
ATOM      8  C   UNL     1       1.420  -1.863   0.894  0.00  0.00    +0.055 A 
ATOM      9  O   UNL     1       2.872  -3.616   1.946  0.00  0.00    -0.453 OA
ATOM     10  C   UNL     1       3.819  -3.472   3.021  0.00  0.00    +0.466 C 
ATOM     11  O   UNL     1       3.207  -2.499   3.889  0.00  0.00    -0.453 OA
ENDBRANCH   2   3
BRANCH   2  12
ATOM     12  N   UNL     1       0.547  -0.368  -1.313  0.00  0.00    -0.288 NA
ATOM     13  C   UNL     1       1.981  -0.057  -1.393  0.00  0.00    +0.066 C 
ATOM     14  C   UNL     1       2.522  -0.504  -2.752  0.00  0.00    -0.067 C 
ATOM     15  N   UNL     1       1.793   0.189  -3.822  0.00  0.00    +0.381 N 
ATOM     16  C   UNL     1       0.366  -0.150  -3.744  0.00  0.00    -0.067 C 
ATOM     17  C   UNL     1      -0.193   0.300  -2.393  0.00  0.00    +0.066 C 
ATOM     18  H   UNL     1       1.908   1.186  -3.715  0.00  0.00    -0.086 HD
ATOM     19  H   UNL     1       2.158  -0.097  -4.718  0.00  0.00    -0.086 HD
ENDBRANCH   2  12
BRANCH   2  20
ATOM     20  C   UNL     1      -1.410  -0.517   0.120  0.00  0.00    +0.380 C 
ATOM     21  O   UNL     1      -1.915  -1.129  -0.806  0.00  0.00    -0.244 OA
ATOM     22  O   UNL     1      -2.047  -0.320   1.141  0.00  0.00    -0.244 OA
ENDBRANCH   2  20
TORSDOF 3
