REMARK  Name = ZINC02543992
REMARK  5 active torsions:
REMARK  status: ('A' for Active; 'I' for Inactive)
REMARK    1  A    between atoms: C_5  and  C_7
REMARK    2  A    between atoms: C_7  and  O_9
REMARK    3  A    between atoms: O_9  and  C_10
REMARK    4  A    between atoms: C_15  and  C_16
REMARK    5  A    between atoms: N_17  and  N_18
REMARK                            x       y       z     vdW  Elec       q    Type
REMARK                         _______ _______ _______ _____ _____    ______ ____
ROOT
ATOM      1  C   UNL     1       0.841   3.149   0.045  0.00  0.00    +0.141 A 
ATOM      2  C   UNL     1       1.996   3.849  -0.262  0.00  0.00    +0.048 A 
ATOM      3  C   UNL     1       3.219   3.205  -0.259  0.00  0.00    +0.019 A 
ATOM      4  C   UNL     1       3.300   1.858   0.056  0.00  0.00    +0.019 A 
ATOM      5  C   UNL     1       2.159   1.147   0.369  0.00  0.00    +0.028 A 
ATOM      6  C   UNL     1       0.918   1.788   0.369  0.00  0.00    +0.038 A 
ATOM      7 BR   UNL     1       4.980   0.991   0.056  0.00  0.00    -0.050 Br
ENDROOT
BRANCH   6   8
ATOM      8  C   UNL     1      -0.304   1.034   0.702  0.00  0.00    +0.142 C 
ATOM      9  N   UNL     1      -1.466   1.603   0.597  0.00  0.00    -0.186 NA
BRANCH   9  10
ATOM     10  N   UNL     1      -2.616   0.934   1.035  0.00  0.00    -0.191 N 
ATOM     11  C   UNL     1      -3.832   1.480   0.832  0.00  0.00    +0.317 C 
ATOM     12  O   UNL     1      -4.822   0.944   1.291  0.00  0.00    -0.251 OA
ATOM     13  N   UNL     1      -3.949   2.618   0.121  0.00  0.00    -0.312 N 
ATOM     14  H   UNL     1      -2.537   0.078   1.485  0.00  0.00    +0.179 HD
ATOM     15  H   UNL     1      -3.170   3.004  -0.309  0.00  0.00    +0.147 HD
ATOM     16  H   UNL     1      -4.813   3.052   0.039  0.00  0.00    +0.147 HD
ENDBRANCH   9  10
ENDBRANCH   6   8
BRANCH   1  17
ATOM     17  O   UNL     1      -0.362   3.780   0.037  0.00  0.00    -0.422 OA
BRANCH  17  18
ATOM     18  C   UNL     1      -0.805   4.267   1.213  0.00  0.00    +0.346 C 
ATOM     19  O   UNL     1      -0.176   4.059   2.232  0.00  0.00    -0.244 OA
BRANCH  18  24
ATOM     20  C   UNL     1      -3.884   6.125   0.136  0.00  0.00    +0.001 A 
ATOM     21  C   UNL     1      -4.400   6.523   1.357  0.00  0.00    +0.001 A 
ATOM     22  C   UNL     1      -3.751   6.189   2.532  0.00  0.00    +0.021 A 
ATOM     23  C   UNL     1      -2.581   5.456   2.493  0.00  0.00    +0.055 A 
ATOM     24  C   UNL     1      -2.055   5.051   1.263  0.00  0.00    +0.078 A 
ATOM     25  C   UNL     1      -2.714   5.397   0.082  0.00  0.00    +0.016 A 
ATOM     26 CL   UNL     1      -1.766   5.038   3.968  0.00  0.00    -0.083 Cl
ENDBRANCH  18  24
ENDBRANCH  17  18
ENDBRANCH   1  17
TORSDOF 5
