REMARK  Name = ZINC11592290
REMARK  6 active torsions:
REMARK  status: ('A' for Active; 'I' for Inactive)
REMARK    1  A    between atoms: C_5  and  C_7
REMARK    2  A    between atoms: C_9  and  C_12
REMARK    3  A    between atoms: C_12  and  S_13
REMARK    4  A    between atoms: S_13  and  C_14
REMARK    5  A    between atoms: C_17  and  C_20
REMARK    6  A    between atoms: N_18  and  N_19
REMARK                            x       y       z     vdW  Elec       q    Type
REMARK                         _______ _______ _______ _____ _____    ______ ____
ROOT
ATOM      1  S   UNL     1       3.530   8.001  -0.397  0.00  0.00    -0.078 S 
ENDROOT
BRANCH   1   2
ATOM      2  C   UNL     1       2.172   6.907  -0.142  0.00  0.00    +0.209 A 
ATOM      3  N   UNL     1       0.953   7.246   0.210  0.00  0.00    -0.121 NA
ATOM      4  N   UNL     1       0.212   6.201   0.307  0.00  0.00    -0.126 NA
ATOM      5  C   UNL     1       0.914   5.126   0.021  0.00  0.00    +0.188 A 
ATOM      6  N   UNL     1       2.193   5.545  -0.271  0.00  0.00    -0.223 N 
BRANCH   5   7
ATOM      7  C   UNL     1       0.426   3.737   0.018  0.00  0.00    +0.058 A 
ATOM      8  C   UNL     1      -0.866   3.275   0.028  0.00  0.00    +0.019 A 
ATOM      9  C   UNL     1      -1.081   1.915   0.017  0.00  0.00    +0.008 A 
ATOM     10  C   UNL     1      -0.013   1.076   0.008  0.00  0.00    +0.046 A 
ATOM     11  S   UNL     1       1.361   2.216   0.001  0.00  0.00    -0.093 S 
ENDBRANCH   5   7
BRANCH   6  12
ATOM     12  N   UNL     1       3.259   4.765  -0.618  0.00  0.00    -0.295 N 
ATOM     13  H   UNL     1       3.307   4.643  -1.619  0.00  0.00    +0.163 HD
ATOM     14  H   UNL     1       4.120   5.149  -0.259  0.00  0.00    +0.163 HD
ENDBRANCH   6  12
ENDBRANCH   1   2
BRANCH   1  15
ATOM     15  C   UNL     1       2.729   9.584  -0.036  0.00  0.00    +0.133 C 
BRANCH  15  18
ATOM     16  C   UNL     1       5.340  12.063   0.719  0.00  0.00    +0.110 A 
ATOM     17  N   UNL     1       4.450  11.087   0.832  0.00  0.00    -0.243 NA
ATOM     18  C   UNL     1       3.730  10.700  -0.194  0.00  0.00    +0.059 A 
ATOM     19  C   UNL     1       3.883  11.311  -1.399  0.00  0.00    +0.071 A 
ATOM     20  S   UNL     1       5.153  12.507  -1.003  0.00  0.00    -0.075 S 
BRANCH  16  25
ATOM     21  C   UNL     1       7.946  14.205   2.370  0.00  0.00    +0.001 A 
ATOM     22  C   UNL     1       7.928  13.706   3.660  0.00  0.00    +0.001 A 
ATOM     23  C   UNL     1       7.072  12.674   3.998  0.00  0.00    +0.020 A 
ATOM     24  C   UNL     1       6.223  12.138   3.048  0.00  0.00    +0.051 A 
ATOM     25  C   UNL     1       6.241  12.634   1.743  0.00  0.00    +0.025 A 
ATOM     26  C   UNL     1       7.109  13.676   1.410  0.00  0.00    +0.012 A 
ATOM     27 CL   UNL     1       5.143  10.848   3.474  0.00  0.00    -0.083 Cl
ENDBRANCH  16  25
ENDBRANCH  15  18
ENDBRANCH   1  15
TORSDOF 6
