REMARK  Name = ZINC07505954
REMARK  7 active torsions:
REMARK  status: ('A' for Active; 'I' for Inactive)
REMARK    1  A    between atoms: C_1  and  C_2
REMARK    2  A    between atoms: C_2  and  C_4
REMARK    3  A    between atoms: C_2  and  O_15
REMARK    4  A    between atoms: N_6  and  C_7
REMARK    5  A    between atoms: O_15  and  C_16
REMARK    6  A    between atoms: C_16  and  C_18
REMARK    7  A    between atoms: C_23  and  O_24
REMARK                            x       y       z     vdW  Elec       q    Type
REMARK                         _______ _______ _______ _____ _____    ______ ____
ROOT
ATOM      1  C   UNL     1       4.501   5.728   1.014  0.00  0.00    +0.062 C 
ATOM      2  C   UNL     1       3.630   6.000  -0.215  0.00  0.00    +0.259 C 
ENDROOT
BRANCH   2   3
ATOM      3  C   UNL     1       2.338   5.235  -0.093  0.00  0.00    +0.258 C 
ATOM      4  O   UNL     1       1.280   5.828  -0.081  0.00  0.00    -0.271 OA
ATOM      5  N   UNL     1       2.357   3.890   0.001  0.00  0.00    -0.281 N 
ATOM      6  H   UNL     1       3.204   3.420   0.056  0.00  0.00    +0.155 HD
BRANCH   5   7
ATOM      7  C   UNL     1       1.155   3.173   0.019  0.00  0.00    +0.053 A 
ATOM      8  C   UNL     1       0.034   3.709   0.638  0.00  0.00    +0.044 A 
ATOM      9  C   UNL     1      -1.151   2.998   0.654  0.00  0.00    +0.043 A 
ATOM     10  C   UNL     1      -1.222   1.754   0.050  0.00  0.00    +0.021 A 
ATOM     11  C   UNL     1      -0.105   1.215  -0.561  0.00  0.00    +0.023 A 
ATOM     12  C   UNL     1       1.082   1.922  -0.582  0.00  0.00    +0.062 A 
ATOM     13 CL   UNL     1       2.482   1.247  -1.356  0.00  0.00    -0.082 Cl
ATOM     14 CL   UNL     1      -2.554   3.668   1.427  0.00  0.00    -0.083 Cl
ENDBRANCH   5   7
ENDBRANCH   2   3
BRANCH   2  15
ATOM     15  O   UNL     1       3.345   7.421  -0.301  0.00  0.00    -0.449 OA
BRANCH  15  16
ATOM     16  C   UNL     1       4.212   8.178  -1.002  0.00  0.00    +0.343 C 
ATOM     17  O   UNL     1       5.180   7.664  -1.527  0.00  0.00    -0.245 OA
BRANCH  16  18
ATOM     18  C   UNL     1       3.986   9.629  -1.132  0.00  0.00    +0.102 A 
ATOM     19  C   UNL     1       2.871  10.223  -0.534  0.00  0.00    +0.038 A 
ATOM     20  C   UNL     1       2.669  11.581  -0.655  0.00  0.00    +0.042 A 
ATOM     21  C   UNL     1       3.561  12.359  -1.376  0.00  0.00    +0.023 A 
ATOM     22  C   UNL     1       4.663  11.784  -1.976  0.00  0.00    +0.047 A 
ATOM     23  C   UNL     1       4.885  10.420  -1.860  0.00  0.00    +0.131 A 
ATOM     24 CL   UNL     1       1.288  12.319   0.094  0.00  0.00    -0.084 Cl
BRANCH  23  25
ATOM     25  O   UNL     1       5.968   9.853  -2.449  0.00  0.00    -0.506 OA
ATOM     26  H   UNL     1       5.811   9.550  -3.354  0.00  0.00    +0.292 HD
ENDBRANCH  23  25
ENDBRANCH  16  18
ENDBRANCH  15  16
ENDBRANCH   2  15
TORSDOF 6
