REMARK  Name = ZINC67095640
REMARK  10 active torsions:
REMARK  status: ('A' for Active; 'I' for Inactive)
REMARK    1  A    between atoms: C_1  and  C_2
REMARK    2  A    between atoms: C_4  and  C_25
REMARK    3  A    between atoms: C_5  and  C_9
REMARK    4  A    between atoms: C_6  and  C_8
REMARK    5  A    between atoms: C_9  and  N_10
REMARK    6  A    between atoms: N_10  and  C_11
REMARK    7  A    between atoms: C_14  and  S_21
REMARK    8  A    between atoms: C_16  and  S_17
REMARK    9  A    between atoms: S_17  and  C_20
REMARK   10  A    between atoms: S_21  and  N_24
REMARK                            x       y       z     vdW  Elec       q    Type
REMARK                         _______ _______ _______ _____ _____    ______ ____
ROOT
ATOM      1  C   UNL     1       1.720  -6.115  -0.041  0.00  0.00    +0.053 A 
ATOM      2  C   UNL     1       0.677  -7.033  -0.046  0.00  0.00    +0.027 A 
ATOM      3  C   UNL     1       0.950  -8.387  -0.055  0.00  0.00    +0.030 A 
ATOM      4  C   UNL     1       2.260  -8.829  -0.059  0.00  0.00    +0.107 A 
ATOM      5  C   UNL     1       3.301  -7.919  -0.053  0.00  0.00    +0.057 A 
ATOM      6  C   UNL     1       3.034  -6.563  -0.050  0.00  0.00    +0.110 A 
ENDROOT
BRANCH   6   7
ATOM      7  S   UNL     1       4.361  -5.404  -0.051  0.00  0.00    -0.004 S 
ATOM      8  O   UNL     1       4.071  -4.520   1.023  0.00  0.00    -0.170 OA
ATOM      9  O   UNL     1       5.538  -6.199  -0.038  0.00  0.00    -0.170 OA
ATOM     10  C   UNL     1       4.216  -4.530  -1.635  0.00  0.00    +0.200 C 
ENDBRANCH   6   7
BRANCH   4  11
ATOM     11  S   UNL     1       2.605 -10.557  -0.070  0.00  0.00    +0.056 S 
ATOM     12  O   UNL     1       3.906 -10.716   0.478  0.00  0.00    -0.153 OA
ATOM     13  O   UNL     1       1.463 -11.202   0.477  0.00  0.00    -0.153 OA
BRANCH  11  14
ATOM     14  N   UNL     1       2.699 -11.027  -1.655  0.00  0.00    -0.204 NA
ATOM     15  H   UNL     1       2.570 -10.376  -2.363  0.00  0.00    +0.144 HD
ATOM     16  H   UNL     1       2.884 -11.954  -1.876  0.00  0.00    +0.144 HD
ENDBRANCH  11  14
ENDBRANCH   4  11
BRANCH   1  17
ATOM     17  N   UNL     1       1.447  -4.746  -0.032  0.00  0.00    -0.338 N 
ATOM     18  H   UNL     1       2.176  -4.106  -0.032  0.00  0.00    +0.146 HD
BRANCH  17  19
ATOM     19  C   UNL     1       0.059  -4.275  -0.021  0.00  0.00    +0.137 C 
BRANCH  19  24
ATOM     20  C   UNL     1      -0.018   1.503   0.010  0.00  0.00    +0.044 C 
ATOM     21  C   UNL     1       0.002  -0.004   0.002  0.00  0.00    -0.050 A 
ATOM     22  C   UNL     1       0.006  -0.689  -1.199  0.00  0.00    +0.007 A 
ATOM     23  C   UNL     1       0.025  -2.071  -1.206  0.00  0.00    -0.045 A 
ATOM     24  C   UNL     1       0.040  -2.768  -0.013  0.00  0.00    -0.025 A 
ATOM     25  C   UNL     1       0.037  -2.084   1.188  0.00  0.00    -0.045 A 
ATOM     26  C   UNL     1       0.023  -0.702   1.195  0.00  0.00    +0.007 A 
ATOM     27  C   UNL     1       0.054  -2.844   2.489  0.00  0.00    +0.044 C 
ATOM     28  C   UNL     1       0.027  -2.817  -2.516  0.00  0.00    +0.044 C 
ENDBRANCH  19  24
ENDBRANCH  17  19
ENDBRANCH   1  17
TORSDOF 6
