REMARK  Name = ZINC50014746
REMARK  4 active torsions:
REMARK  status: ('A' for Active; 'I' for Inactive)
REMARK    1  A    between atoms: C_1  and  N_2
REMARK    2  A    between atoms: N_2  and  C_3
REMARK    3  A    between atoms: C_8  and  N_9
REMARK    4  A    between atoms: C_10  and  C_12
REMARK                            x       y       z     vdW  Elec       q    Type
REMARK                         _______ _______ _______ _____ _____    ______ ____
ROOT
ATOM      1  C   UNL     1       0.828   1.309  -0.093  0.00  0.00    +0.138 C 
ATOM      2  N   UNL     1       0.405  -0.094  -0.057  0.00  0.00    -0.269 N 
ATOM      3  C   UNL     1      -0.102  -0.673  -1.163  0.00  0.00    +0.252 C 
ATOM      4  O   UNL     1      -0.540  -1.806  -1.110  0.00  0.00    -0.270 OA
ENDROOT
BRANCH   3   5
ATOM      5  C   UNL     1      -0.124   0.068  -2.441  0.00  0.00    +0.057 A 
ATOM      6  C   UNL     1       0.997   0.793  -2.851  0.00  0.00    +0.029 A 
ATOM      7  C   UNL     1       0.969   1.483  -4.046  0.00  0.00    +0.019 A 
ATOM      8  C   UNL     1      -0.167   1.458  -4.838  0.00  0.00    +0.017 A 
ATOM      9  C   UNL     1      -1.280   0.742  -4.439  0.00  0.00    +0.022 A 
ATOM     10  C   UNL     1      -1.265   0.043  -3.247  0.00  0.00    +0.053 A 
ATOM     11 CL   UNL     1      -2.662  -0.860  -2.750  0.00  0.00    -0.083 Cl
ATOM     12 BR   UNL     1       2.486   2.465  -4.603  0.00  0.00    -0.050 Br
ENDBRANCH   3   5
BRANCH   2  13
ATOM     13  C   UNL     1       0.527  -0.832   1.127  0.00  0.00    +0.057 A 
ATOM     14  C   UNL     1      -0.517  -0.863   2.039  0.00  0.00    +0.025 A 
ATOM     15  C   UNL     1      -0.395  -1.592   3.207  0.00  0.00    +0.002 A 
ATOM     16  C   UNL     1       0.768  -2.292   3.470  0.00  0.00    +0.002 A 
ATOM     17  C   UNL     1       1.814  -2.268   2.567  0.00  0.00    +0.024 A 
ATOM     18  C   UNL     1       1.698  -1.544   1.390  0.00  0.00    +0.046 A 
BRANCH  18  19
ATOM     19  N   UNL     1       2.753  -1.522   0.472  0.00  0.00    -0.357 N 
ATOM     20  H   UNL     1       2.671  -1.012  -0.349  0.00  0.00    +0.142 HD
ATOM     21  H   UNL     1       3.566  -2.018   0.656  0.00  0.00    +0.142 HD
ENDBRANCH  18  19
ENDBRANCH   2  13
TORSDOF 3
