REMARK  Name = ZINC39686608
REMARK  12 active torsions:
REMARK  status: ('A' for Active; 'I' for Inactive)
REMARK    1  A    between atoms: C_1  and  C_2
REMARK    2  A    between atoms: C_3  and  C_12
REMARK    3  A    between atoms: C_7  and  O_8
REMARK    4  A    between atoms: O_8  and  C_9
REMARK    5  A    between atoms: C_9  and  C_11
REMARK    6  A    between atoms: C_16  and  C_25
REMARK    7  A    between atoms: N_27  and  C_28
REMARK    8  A    between atoms: C_28  and  C_30
REMARK    9  A    between atoms: C_28  and  C_31
REMARK   10  A    between atoms: C_31  and  C_32
REMARK   11  A    between atoms: C_37  and  O_38
REMARK   12  A    between atoms: O_38  and  C_39
REMARK                            x       y       z     vdW  Elec       q    Type
REMARK                         _______ _______ _______ _____ _____    ______ ____
ROOT
ATOM      1  C   UNL     1      -1.788  -1.401  -2.752  0.00  0.00    +0.247 C 
ATOM      2  O   UNL     1      -2.112  -0.230  -2.775  0.00  0.00    -0.270 OA
ATOM      3  N   UNL     1      -1.292  -1.985  -3.860  0.00  0.00    -0.296 N 
ATOM      4  C   UNL     1      -0.947  -3.413  -4.058  0.00  0.00    +0.121 C 
ATOM      5  C   UNL     1      -1.406  -3.730  -5.498  0.00  0.00    +0.100 C 
ATOM      6  C   UNL     1      -1.417  -2.369  -6.215  0.00  0.00    -0.004 C 
ATOM      7  C   UNL     1      -0.974  -1.346  -5.160  0.00  0.00    +0.115 C 
ATOM      8  C   UNL     1      -2.824  -2.040  -6.703  0.00  0.00    -0.010 C 
ATOM      9  C   UNL     1      -2.798  -0.710  -7.462  0.00  0.00    -0.082 C 
ATOM     10  N   UNL     1      -1.875  -0.812  -8.600  0.00  0.00    +0.379 N 
ATOM     11  C   UNL     1      -0.508  -1.037  -8.117  0.00  0.00    -0.082 C 
ATOM     12  C   UNL     1      -0.437  -2.380  -7.385  0.00  0.00    -0.010 C 
ATOM     13  H   UNL     1      -2.154  -1.583  -9.189  0.00  0.00    -0.086 HD
ATOM     14  H   UNL     1      -1.906   0.044  -9.133  0.00  0.00    -0.086 HD
ENDROOT
BRANCH   1  17
ATOM     15  C   UNL     1      -4.094  -0.970  -1.058  0.00  0.00    +0.048 C 
ATOM     16  C   UNL     1      -3.046  -1.986  -0.683  0.00  0.00    +0.004 A 
ATOM     17  C   UNL     1      -1.938  -2.185  -1.507  0.00  0.00    +0.043 A 
ATOM     18  C   UNL     1      -0.971  -3.128  -1.152  0.00  0.00    +0.013 A 
ATOM     19  C   UNL     1      -1.115  -3.858   0.010  0.00  0.00    +0.004 A 
ATOM     20  C   UNL     1      -2.213  -3.659   0.826  0.00  0.00    +0.047 A 
ATOM     21  C   UNL     1      -3.177  -2.720   0.483  0.00  0.00    +0.135 A 
BRANCH  21  22
ATOM     22  O   UNL     1      -4.253  -2.525   1.292  0.00  0.00    -0.426 OA
BRANCH  22  23
ATOM     23  C   UNL     1      -4.217  -1.494   2.150  0.00  0.00    +0.309 C 
ATOM     24  O   UNL     1      -3.222  -0.814   2.237  0.00  0.00    -0.251 OA
ATOM     25  C   UNL     1      -5.419  -1.183   3.005  0.00  0.00    +0.136 C 
ENDBRANCH  22  23
ENDBRANCH  21  22
ENDBRANCH   1  17
BRANCH   5  26
ATOM     26  C   UNL     1      -0.434  -4.669  -6.165  0.00  0.00    +0.218 C 
ATOM     27  O   UNL     1       0.726  -4.692  -5.811  0.00  0.00    -0.275 OA
ATOM     28  N   UNL     1      -0.854  -5.484  -7.153  0.00  0.00    -0.312 N 
ATOM     29  H   UNL     1      -1.763  -5.415  -7.485  0.00  0.00    +0.149 HD
BRANCH  28  30
ATOM     30  C   UNL     1       0.063  -6.472  -7.727  0.00  0.00    +0.074 C 
ATOM     31  C   UNL     1       0.900  -5.813  -8.825  0.00  0.00    +0.028 C 
BRANCH  30  32
ATOM     32  C   UNL     1      -0.742  -7.628  -8.324  0.00  0.00    +0.060 C 
BRANCH  32  33
ATOM     33  C   UNL     1      -1.464  -8.359  -7.221  0.00  0.00    -0.004 A 
ATOM     34  C   UNL     1      -0.878  -9.456  -6.619  0.00  0.00    +0.007 A 
ATOM     35  C   UNL     1      -1.540 -10.127  -5.608  0.00  0.00    +0.000 A 
ATOM     36  C   UNL     1      -2.790  -9.702  -5.197  0.00  0.00    +0.004 A 
ATOM     37  C   UNL     1      -3.380  -8.606  -5.795  0.00  0.00    +0.046 A 
ATOM     38  C   UNL     1      -2.716  -7.928  -6.806  0.00  0.00    +0.123 A 
BRANCH  38  39
ATOM     39  O   UNL     1      -3.292  -6.845  -7.393  0.00  0.00    -0.495 OA
ATOM     40  C   UNL     1      -4.530  -6.391  -6.842  0.00  0.00    +0.277 C 
ENDBRANCH  38  39
ENDBRANCH  32  33
ENDBRANCH  30  32
ENDBRANCH  28  30
ENDBRANCH   5  26
TORSDOF 8
