REMARK  Name = ZINC41548967
REMARK  4 active torsions:
REMARK  status: ('A' for Active; 'I' for Inactive)
REMARK    1  A    between atoms: C_1  and  C_2
REMARK    2  A    between atoms: C_2  and  C_14
REMARK    3  A    between atoms: N_20  and  C_22
REMARK    4  A    between atoms: C_22  and  C_23
REMARK                            x       y       z     vdW  Elec       q    Type
REMARK                         _______ _______ _______ _____ _____    ______ ____
ROOT
ATOM      1  C   UNL     1       0.709  -0.489  -1.237  0.00  0.00    +0.271 C 
ATOM      2  O   UNL     1       0.070  -0.781  -2.226  0.00  0.00    -0.270 OA
ATOM      3  N   UNL     1       2.053  -0.599  -1.247  0.00  0.00    -0.265 N 
ATOM      4  C   UNL     1       2.710  -1.051  -2.399  0.00  0.00    +0.147 A 
ATOM      5  C   UNL     1       2.098  -1.415  -3.609  0.00  0.00    +0.065 A 
ATOM      6  C   UNL     1       3.071  -1.792  -4.470  0.00  0.00    +0.110 A 
ATOM      7  N   UNL     1       4.255  -1.673  -3.833  0.00  0.00    -0.265 N 
ATOM      8  N   UNL     1       4.006  -1.201  -2.538  0.00  0.00    -0.156 NA
ATOM      9  H   UNL     1       2.564  -0.366  -0.456  0.00  0.00    +0.156 HD
ENDROOT
BRANCH   1  11
ATOM     10  C   UNL     1      -0.019   1.526   0.010  0.00  0.00    +0.076 C 
ATOM     11  C   UNL     1       0.002  -0.004   0.002  0.00  0.00    +0.258 C 
ATOM     12  C   UNL     1      -1.413  -0.525   0.008  0.00  0.00    +0.270 C 
ATOM     13  O   UNL     1      -2.310   0.144  -0.460  0.00  0.00    -0.271 OA
ATOM     14  N   UNL     1      -1.677  -1.739   0.535  0.00  0.00    -0.279 N 
ATOM     15  C   UNL     1      -0.651  -2.442   1.182  0.00  0.00    +0.077 A 
ATOM     16  C   UNL     1      -0.820  -3.772   1.531  0.00  0.00    +0.047 A 
ATOM     17  C   UNL     1       0.207  -4.455   2.158  0.00  0.00    +0.043 A 
ATOM     18  C   UNL     1       1.401  -3.813   2.436  0.00  0.00    +0.024 A 
ATOM     19  C   UNL     1       1.573  -2.484   2.094  0.00  0.00    +0.049 A 
ATOM     20  C   UNL     1       0.547  -1.793   1.472  0.00  0.00    +0.144 A 
ATOM     21  O   UNL     1       0.694  -0.477   1.160  0.00  0.00    -0.465 OA
ATOM     22 CL   UNL     1      -0.003  -6.121   2.597  0.00  0.00    -0.083 Cl
ATOM     23  H   UNL     1      -2.566  -2.121   0.467  0.00  0.00    +0.155 HD
ENDBRANCH   1  11
BRANCH   7  24
ATOM     24  C   UNL     1       5.571  -1.978  -4.400  0.00  0.00    +0.178 C 
BRANCH  24  25
ATOM     25  C   UNL     1       6.467  -0.774  -4.268  0.00  0.00    -0.026 A 
ATOM     26  C   UNL     1       6.503   0.174  -5.274  0.00  0.00    +0.008 A 
ATOM     27  C   UNL     1       7.324   1.279  -5.154  0.00  0.00    +0.038 A 
ATOM     28  C   UNL     1       8.110   1.438  -4.025  0.00  0.00    +0.123 A 
ATOM     29  C   UNL     1       8.072   0.488  -3.018  0.00  0.00    +0.038 A 
ATOM     30  C   UNL     1       7.247  -0.614  -3.138  0.00  0.00    +0.008 A 
ATOM     31  F   UNL     1       8.913   2.518  -3.906  0.00  0.00    -0.205 F 
ENDBRANCH  24  25
ENDBRANCH   7  24
TORSDOF 3
