REMARK  Name = ZINC63573446
REMARK  7 active torsions:
REMARK  status: ('A' for Active; 'I' for Inactive)
REMARK    1  A    between atoms: C_1  and  C_2
REMARK    2  A    between atoms: C_2  and  C_3
REMARK    3  A    between atoms: C_8  and  N_9
REMARK    4  A    between atoms: C_18  and  O_34
REMARK    5  A    between atoms: C_25  and  C_27
REMARK    6  A    between atoms: C_30  and  C_33
REMARK    7  A    between atoms: O_34  and  C_35
REMARK                            x       y       z     vdW  Elec       q    Type
REMARK                         _______ _______ _______ _____ _____    ______ ____
ROOT
ATOM      1  N   UNL     1      -1.870  -2.064   2.421  0.00  0.00    -0.269 N 
ATOM      2  C   UNL     1      -2.392  -1.716   3.614  0.00  0.00    +0.307 C 
ATOM      3  O   UNL     1      -1.819  -2.024   4.642  0.00  0.00    -0.252 OA
ATOM      4  N   UNL     1      -3.549  -1.026   3.668  0.00  0.00    -0.276 N 
ATOM      5  C   UNL     1      -4.308  -0.785   2.437  0.00  0.00    +0.114 C 
ATOM      6  C   UNL     1      -4.496   0.730   2.239  0.00  0.00    +0.052 C 
ATOM      7  C   UNL     1      -4.918   1.291   3.575  0.00  0.00    -0.035 C 
ATOM      8  C   UNL     1      -5.942   2.062   3.919  0.00  0.00    +0.003 A 
ATOM      9  C   UNL     1      -6.975   2.738   3.119  0.00  0.00    +0.055 A 
ATOM     10  C   UNL     1      -7.911   3.449   3.806  0.00  0.00    +0.121 A 
ATOM     11  C   UNL     1      -7.938   3.565   5.204  0.00  0.00    +0.047 A 
ATOM     12  C   UNL     1      -7.031   2.991   6.035  0.00  0.00    +0.029 A 
ATOM     13  C   UNL     1      -5.963   2.201   5.408  0.00  0.00    +0.043 A 
ATOM     14  N   UNL     1      -4.962   1.566   5.938  0.00  0.00    -0.375 N 
ATOM     15  C   UNL     1      -4.150   1.001   4.859  0.00  0.00    +0.131 C 
ATOM     16  C   UNL     1      -4.039  -0.529   4.963  0.00  0.00    +0.134 C 
ATOM     17  H   UNL     1      -2.283  -1.751   1.601  0.00  0.00    +0.156 HD
ATOM     18  H   UNL     1      -4.782   1.481   6.888  0.00  0.00    +0.160 HD
ENDROOT
BRANCH  16  19
ATOM     19  C   UNL     1      -3.068  -0.899   6.054  0.00  0.00    -0.025 A 
ATOM     20  C   UNL     1      -1.789  -0.375   6.048  0.00  0.00    +0.006 A 
ATOM     21  C   UNL     1      -0.897  -0.715   7.048  0.00  0.00    +0.004 A 
ATOM     22  C   UNL     1      -1.286  -1.579   8.055  0.00  0.00    -0.050 A 
ATOM     23  C   UNL     1      -2.565  -2.103   8.062  0.00  0.00    +0.004 A 
ATOM     24  C   UNL     1      -3.457  -1.759   7.064  0.00  0.00    +0.006 A 
ATOM     25  C   UNL     1      -0.314  -1.951   9.146  0.00  0.00    +0.044 C 
ENDBRANCH  16  19
BRANCH   1  31
ATOM     26  C   UNL     1      -0.514  -3.694   1.264  0.00  0.00    -0.026 A 
ATOM     27  C   UNL     1       0.612  -4.492   1.209  0.00  0.00    +0.005 A 
ATOM     28  C   UNL     1       1.518  -4.483   2.253  0.00  0.00    +0.000 A 
ATOM     29  C   UNL     1       1.300  -3.676   3.355  0.00  0.00    +0.002 A 
ATOM     30  C   UNL     1       0.176  -2.877   3.416  0.00  0.00    +0.023 A 
ATOM     31  C   UNL     1      -0.733  -2.878   2.366  0.00  0.00    +0.038 A 
BRANCH  26  33
ATOM     32  C   UNL     1      -1.179  -2.562  -0.840  0.00  0.00    +0.009 C 
ATOM     33  C   UNL     1      -1.502  -3.704   0.125  0.00  0.00    +0.033 C 
ENDBRANCH  26  33
ENDBRANCH   1  31
BRANCH  10  34
ATOM     34  O   UNL     1      -8.878   4.086   3.094  0.00  0.00    -0.495 OA
ATOM     35  C   UNL     1      -9.850   4.826   3.837  0.00  0.00    +0.277 C 
ENDBRANCH  10  34
TORSDOF 4
