REMARK  Name = ZINC08789436
REMARK  6 active torsions:
REMARK  status: ('A' for Active; 'I' for Inactive)
REMARK    1  A    between atoms: C_1  and  C_2
REMARK    2  A    between atoms: C_2  and  O_4
REMARK    3  A    between atoms: O_4  and  C_5
REMARK    4  A    between atoms: C_8  and  N_11
REMARK    5  A    between atoms: C_16  and  C_32
REMARK    6  A    between atoms: C_32  and  C_33
REMARK                            x       y       z     vdW  Elec       q    Type
REMARK                         _______ _______ _______ _____ _____    ______ ____
ROOT
ATOM      1  N   UNL     1       2.115   1.682   3.046  0.00  0.00    -0.210 N 
ATOM      2  C   UNL     1       1.434   0.810   2.294  0.00  0.00    +0.228 C 
ATOM      3  O   UNL     1       1.926   0.019   1.519  0.00  0.00    -0.275 OA
ATOM      4  C   UNL     1      -0.046   0.966   2.561  0.00  0.00    +0.074 C 
ATOM      5  C   UNL     1      -0.734   1.540   1.305  0.00  0.00    -0.049 C 
ATOM      6  C   UNL     1      -0.806   3.265   2.880  0.00  0.00    +0.050 C 
ATOM      7  C   UNL     1      -0.103   2.112   3.608  0.00  0.00    +0.088 C 
ATOM      8  C   UNL     1       1.353   2.460   3.823  0.00  0.00    +0.229 C 
ATOM      9  O   UNL     1       1.765   3.311   4.582  0.00  0.00    -0.275 OA
ATOM     10  C   UNL     1      -2.266   3.329   3.231  0.00  0.00    -0.028 A 
ATOM     11  C   UNL     1      -3.310   2.440   3.111  0.00  0.00    +0.004 A 
ATOM     12  C   UNL     1      -4.577   2.798   3.537  0.00  0.00    +0.000 A 
ATOM     13  C   UNL     1      -4.791   4.051   4.082  0.00  0.00    +0.002 A 
ATOM     14  C   UNL     1      -3.748   4.945   4.205  0.00  0.00    +0.023 A 
ATOM     15  C   UNL     1      -2.469   4.592   3.780  0.00  0.00    +0.036 A 
ATOM     16  N   UNL     1      -1.271   5.309   3.799  0.00  0.00    -0.286 N 
ATOM     17  C   UNL     1      -0.245   4.599   3.290  0.00  0.00    +0.211 C 
ATOM     18  O   UNL     1       0.906   4.964   3.182  0.00  0.00    -0.277 OA
ATOM     19  H   UNL     1      -1.186   6.213   4.140  0.00  0.00    +0.155 HD
ATOM     20  N   UNL     1      -0.615   2.991   1.466  0.00  0.00    +0.394 N 
ATOM     21  H   UNL     1      -1.334   3.470   0.911  0.00  0.00    -0.083 HD
ATOM     22  H   UNL     1       0.315   3.306   1.165  0.00  0.00    -0.083 HD
ENDROOT
BRANCH   1  26
ATOM     23  C   UNL     1       6.277   1.954   2.974  0.00  0.00    +0.132 A 
ATOM     24  C   UNL     1       5.665   0.811   3.467  0.00  0.00    +0.048 A 
ATOM     25  C   UNL     1       4.288   0.720   3.491  0.00  0.00    +0.027 A 
ATOM     26  C   UNL     1       3.515   1.774   3.022  0.00  0.00    +0.044 A 
ATOM     27  C   UNL     1       4.128   2.915   2.523  0.00  0.00    +0.027 A 
ATOM     28  C   UNL     1       5.505   3.007   2.504  0.00  0.00    +0.048 A 
BRANCH  23  29
ATOM     29  O   UNL     1       7.634   2.043   2.951  0.00  0.00    -0.426 OA
BRANCH  29  31
ATOM     30  C   UNL     1       9.779   1.301   1.980  0.00  0.00    +0.136 C 
ATOM     31  C   UNL     1       8.273   1.351   1.994  0.00  0.00    +0.309 C 
ATOM     32  O   UNL     1       7.641   0.769   1.145  0.00  0.00    -0.251 OA
ENDBRANCH  29  31
ENDBRANCH  23  29
ENDBRANCH   1  26
BRANCH   5  33
ATOM     33  C   UNL     1      -0.021   1.058   0.040  0.00  0.00    +0.080 C 
BRANCH  33  34
ATOM     34  C   UNL     1      -0.759   1.560  -1.175  0.00  0.00    +0.209 C 
ATOM     35  O   UNL     1      -1.757   2.237  -1.041  0.00  0.00    -0.276 OA
ATOM     36  N   UNL     1      -0.310   1.257  -2.409  0.00  0.00    -0.329 N 
ATOM     37  H   UNL     1       0.488   0.716  -2.515  0.00  0.00    +0.145 HD
ATOM     38  H   UNL     1      -0.785   1.580  -3.190  0.00  0.00    +0.145 HD
ENDBRANCH  33  34
ENDBRANCH   5  33
TORSDOF 5
