REMARK  Name = ZINC63530674
REMARK  7 active torsions:
REMARK  status: ('A' for Active; 'I' for Inactive)
REMARK    1  A    between atoms: C_1  and  C_2
REMARK    2  A    between atoms: C_6  and  S_28
REMARK    3  A    between atoms: C_7  and  C_12
REMARK    4  A    between atoms: N_14  and  C_15
REMARK    5  A    between atoms: C_15  and  C_17
REMARK    6  A    between atoms: C_15  and  C_18
REMARK    7  A    between atoms: S_28  and  C_29
REMARK                            x       y       z     vdW  Elec       q    Type
REMARK                         _______ _______ _______ _____ _____    ______ ____
ROOT
ATOM      1  C   UNL     1      -0.152   1.215   1.210  0.00  0.00    +0.044 C 
ATOM      2  C   UNL     1      -0.128  -0.266   0.934  0.00  0.00    -0.048 A 
ATOM      3  C   UNL     1       0.025  -0.709  -0.380  0.00  0.00    +0.004 A 
ATOM      4  C   UNL     1       0.053  -2.032  -0.686  0.00  0.00    +0.011 A 
ATOM      5  C   UNL     1      -0.073  -2.991   0.342  0.00  0.00    +0.010 A 
ATOM      6  C   UNL     1      -0.080  -4.383   0.333  0.00  0.00    +0.030 C 
ATOM      7  C   UNL     1      -0.252  -4.801   1.776  0.00  0.00    +0.204 C 
ATOM      8  N   UNL     1      -0.336  -3.558   2.550  0.00  0.00    -0.369 N 
ATOM      9  C   UNL     1      -0.234  -2.529   1.729  0.00  0.00    +0.044 A 
ATOM     10  C   UNL     1      -0.249  -1.132   1.971  0.00  0.00    +0.029 A 
ATOM     11  H   UNL     1      -0.450  -3.502   3.512  0.00  0.00    +0.161 HD
ENDROOT
BRANCH   7  12
ATOM     12  C   UNL     1      -1.519  -5.601   1.937  0.00  0.00    +0.241 C 
ATOM     13  O   UNL     1      -2.520  -5.071   2.369  0.00  0.00    -0.273 OA
ATOM     14  N   UNL     1      -1.539  -6.906   1.600  0.00  0.00    -0.310 N 
ATOM     15  H   UNL     1      -0.738  -7.330   1.254  0.00  0.00    +0.149 HD
BRANCH  14  16
ATOM     16  C   UNL     1      -2.771  -7.684   1.756  0.00  0.00    +0.076 C 
ATOM     17  C   UNL     1      -2.867  -8.204   3.192  0.00  0.00    +0.028 C 
BRANCH  16  18
ATOM     18  C   UNL     1      -2.754  -8.866   0.785  0.00  0.00    -0.010 C 
ATOM     19  C   UNL     1      -1.547  -9.756   1.087  0.00  0.00    +0.012 C 
ATOM     20  C   UNL     1      -1.530 -10.939   0.117  0.00  0.00    -0.010 C 
ATOM     21  C   UNL     1      -2.816 -11.751   0.280  0.00  0.00    +0.007 C 
ATOM     22  C   UNL     1      -4.023 -10.861  -0.022  0.00  0.00    -0.010 C 
ATOM     23  C   UNL     1      -4.040  -9.678   0.949  0.00  0.00    +0.012 C 
ATOM     24  C   UNL     1      -3.927 -10.341  -1.458  0.00  0.00    +0.007 C 
ATOM     25  C   UNL     1      -2.641  -9.528  -1.621  0.00  0.00    -0.010 C 
ATOM     26  C   UNL     1      -1.434 -10.419  -1.319  0.00  0.00    +0.007 C 
ATOM     27  C   UNL     1      -2.658  -8.346  -0.650  0.00  0.00    +0.012 C 
ENDBRANCH  16  18
ENDBRANCH  14  16
ENDBRANCH   7  12
BRANCH   6  28
ATOM     28  S   UNL     1       0.070  -5.377  -0.988  0.00  0.00    -0.091 S 
BRANCH  28  29
ATOM     29  C   UNL     1       1.631  -6.160  -0.758  0.00  0.00    +0.013 A 
ATOM     30  C   UNL     1       2.459  -5.768   0.286  0.00  0.00    +0.016 A 
ATOM     31  C   UNL     1       3.682  -6.383   0.464  0.00  0.00    +0.021 A 
ATOM     32  C   UNL     1       4.083  -7.391  -0.396  0.00  0.00    +0.041 A 
ATOM     33  C   UNL     1       3.260  -7.783  -1.438  0.00  0.00    +0.021 A 
ATOM     34  C   UNL     1       2.034  -7.175  -1.617  0.00  0.00    +0.016 A 
ATOM     35 CL   UNL     1       5.622  -8.162  -0.170  0.00  0.00    -0.084 Cl
ENDBRANCH  28  29
ENDBRANCH   6  28
TORSDOF 5
