REMARK  Name = ZINC67335565
REMARK  6 active torsions:
REMARK  status: ('A' for Active; 'I' for Inactive)
REMARK    1  A    between atoms: C_1  and  O_2
REMARK    2  A    between atoms: O_2  and  C_3
REMARK    3  A    between atoms: C_6  and  S_20
REMARK    4  A    between atoms: C_8  and  C_9
REMARK    5  A    between atoms: N_11  and  C_12
REMARK    6  A    between atoms: S_20  and  N_23
REMARK                            x       y       z     vdW  Elec       q    Type
REMARK                         _______ _______ _______ _____ _____    ______ ____
ROOT
ATOM      1  C   UNL     1       0.581  -0.606  -1.065  0.00  0.00    +0.132 A 
ATOM      2  C   UNL     1       1.139   0.160  -2.078  0.00  0.00    +0.048 A 
ATOM      3  C   UNL     1       1.748  -0.453  -3.154  0.00  0.00    +0.032 A 
ATOM      4  C   UNL     1       1.808  -1.835  -3.232  0.00  0.00    +0.106 A 
ATOM      5  C   UNL     1       1.259  -2.612  -2.235  0.00  0.00    +0.045 A 
ATOM      6  C   UNL     1       0.645  -2.004  -1.137  0.00  0.00    +0.080 A 
ENDROOT
BRANCH   6   7
ATOM      7  C   UNL     1       0.061  -2.829  -0.063  0.00  0.00    +0.252 C 
ATOM      8  O   UNL     1      -0.478  -2.297   0.889  0.00  0.00    -0.270 OA
ATOM      9  N   UNL     1       0.124  -4.174  -0.136  0.00  0.00    -0.279 N 
ATOM     10  H   UNL     1       0.495  -4.600  -0.924  0.00  0.00    +0.155 HD
BRANCH   9  11
ATOM     11  C   UNL     1      -0.346  -4.955   0.926  0.00  0.00    +0.072 A 
ATOM     12  C   UNL     1      -1.445  -4.537   1.664  0.00  0.00    +0.026 A 
ATOM     13  C   UNL     1      -1.908  -5.309   2.712  0.00  0.00    +0.005 A 
ATOM     14  C   UNL     1      -1.277  -6.499   3.029  0.00  0.00    +0.041 A 
ATOM     15  C   UNL     1      -0.180  -6.920   2.297  0.00  0.00    +0.160 A 
ATOM     16  C   UNL     1       0.284  -6.154   1.241  0.00  0.00    +0.179 A 
ATOM     17  F   UNL     1       1.351  -6.567   0.522  0.00  0.00    -0.201 F 
ATOM     18  F   UNL     1       0.434  -8.083   2.609  0.00  0.00    -0.202 F 
ENDBRANCH   9  11
ENDBRANCH   6   7
BRANCH   4  19
ATOM     19  S   UNL     1       2.590  -2.603  -4.612  0.00  0.00    +0.056 S 
ATOM     20  O   UNL     1       2.034  -3.907  -4.719  0.00  0.00    -0.153 OA
ATOM     21  O   UNL     1       2.544  -1.665  -5.678  0.00  0.00    -0.153 OA
BRANCH  19  22
ATOM     22  N   UNL     1       4.187  -2.800  -4.223  0.00  0.00    -0.204 NA
ATOM     23  H   UNL     1       4.516  -2.505  -3.359  0.00  0.00    +0.144 HD
ATOM     24  H   UNL     1       4.794  -3.210  -4.859  0.00  0.00    +0.144 HD
ENDBRANCH  19  22
ENDBRANCH   4  19
BRANCH   1  26
ATOM     25  C   UNL     1      -0.045   1.424  -0.003  0.00  0.00    +0.277 C 
ATOM     26  O   UNL     1      -0.019  -0.004  -0.007  0.00  0.00    -0.494 OA
ENDBRANCH   1  26
TORSDOF 5
