REMARK  Name = ZINC04340016
REMARK  4 active torsions:
REMARK  status: ('A' for Active; 'I' for Inactive)
REMARK    1  A    between atoms: C_4  and  C_17
REMARK    2  A    between atoms: C_11  and  O_12
REMARK    3  A    between atoms: O_12  and  C_13
REMARK    4  A    between atoms: C_13  and  C_14
REMARK                            x       y       z     vdW  Elec       q    Type
REMARK                         _______ _______ _______ _____ _____    ______ ____
ROOT
ATOM      1  C   UNL     1      -1.606   6.414   3.360  0.00  0.00    +0.046 A 
ATOM      2  C   UNL     1      -1.104   5.707   2.304  0.00  0.00    +0.016 A 
ATOM      3  C   UNL     1      -0.616   6.384   1.185  0.00  0.00    +0.026 A 
ATOM      4  C   UNL     1      -0.068   5.648   0.032  0.00  0.00    +0.006 A 
ATOM      5  C   UNL     1       0.403   6.386  -1.041  0.00  0.00    +0.101 A 
ATOM      6  C   UNL     1       0.336   7.786  -1.000  0.00  0.00    +0.338 A 
ATOM      7  O   UNL     1       0.748   8.427  -1.951  0.00  0.00    -0.245 OA
ATOM      8  O   UNL     1      -0.168   8.440   0.059  0.00  0.00    -0.422 OA
ATOM      9  C   UNL     1      -0.642   7.788   1.143  0.00  0.00    +0.143 A 
ATOM     10  C   UNL     1      -1.155   8.492   2.222  0.00  0.00    +0.092 A 
ATOM     11  C   UNL     1      -1.635   7.806   3.326  0.00  0.00    +0.125 A 
ENDROOT
BRANCH   4  12
ATOM     12  C   UNL     1      -0.018   4.174   0.025  0.00  0.00    +0.068 A 
ATOM     13  C   UNL     1       1.196   3.511   0.009  0.00  0.00    +0.027 A 
ATOM     14  C   UNL     1       1.199   2.093   0.002  0.00  0.00    +0.020 A 
ATOM     15  C   UNL     1       2.413   1.391  -0.013  0.00  0.00    +0.031 A 
ATOM     16  C   UNL     1       2.406   0.015  -0.020  0.00  0.00    +0.042 A 
ATOM     17  C   UNL     1       1.203  -0.680  -0.013  0.00  0.00    +0.023 A 
ATOM     18  C   UNL     1       0.002  -0.004   0.002  0.00  0.00    +0.048 A 
ATOM     19  C   UNL     1      -0.017   1.386   0.010  0.00  0.00    +0.139 A 
ATOM     20  O   UNL     1      -1.198   2.042   0.019  0.00  0.00    -0.422 OA
ATOM     21  C   UNL     1      -1.254   3.384   0.032  0.00  0.00    +0.345 A 
ATOM     22  O   UNL     1      -2.334   3.945   0.045  0.00  0.00    -0.245 OA
ATOM     23 CL   UNL     1       3.907  -0.857  -0.039  0.00  0.00    -0.084 Cl
ENDBRANCH   4  12
BRANCH  11  24
ATOM     24  O   UNL     1      -2.137   8.496   4.382  0.00  0.00    -0.483 OA
BRANCH  24  25
ATOM     25  C   UNL     1      -2.616   7.729   5.489  0.00  0.00    +0.324 C 
BRANCH  25  26
ATOM     26  C   UNL     1      -3.132   8.658   6.557  0.00  0.00    +0.248 C 
ATOM     27  O   UNL     1      -3.093   9.858   6.388  0.00  0.00    -0.272 OA
ATOM     28  N   UNL     1      -3.636   8.155   7.702  0.00  0.00    -0.327 N 
ATOM     29  H   UNL     1      -3.667   7.195   7.837  0.00  0.00    +0.145 HD
ATOM     30  H   UNL     1      -3.968   8.753   8.389  0.00  0.00    +0.145 HD
ENDBRANCH  25  26
ENDBRANCH  24  25
ENDBRANCH  11  24
TORSDOF 4
