REMARK  Name = ZINC06003269
REMARK  8 active torsions:
REMARK  status: ('A' for Active; 'I' for Inactive)
REMARK    1  A    between atoms: C_1  and  C_2
REMARK    2  A    between atoms: C_2  and  C_3
REMARK    3  A    between atoms: C_3  and  C_5
REMARK    4  A    between atoms: C_3  and  S_6
REMARK    5  A    between atoms: S_6  and  C_7
REMARK    6  A    between atoms: C_18  and  C_20
REMARK    7  A    between atoms: C_28  and  C_30
REMARK    8  A    between atoms: C_28  and  C_31
REMARK                            x       y       z     vdW  Elec       q    Type
REMARK                         _______ _______ _______ _____ _____    ______ ____
ROOT
ATOM      1  C   UNL     1      -1.201   1.629   0.017  0.00  0.00    +0.171 A 
ATOM      2  N   UNL     1      -0.011   0.966   0.007  0.00  0.00    -0.302 N 
ATOM      3  H   UNL     1       0.005  -0.134   0.006  0.00  0.00    +0.171 HD
ATOM      4  C   UNL     1       1.149   1.655   0.000  0.00  0.00    +0.258 A 
ATOM      5  O   UNL     1       2.221   1.069  -0.014  0.00  0.00    -0.267 OA
ATOM      6  C   UNL     1       1.101   3.054   0.008  0.00  0.00    +0.069 A 
ATOM      7  C   UNL     1      -0.133   3.679   0.021  0.00  0.00    +0.135 A 
ATOM      8  N   UNL     1      -1.251   2.946   0.028  0.00  0.00    -0.208 NA
ATOM      9  N   UNL     1      -0.201   5.059   0.024  0.00  0.00    -0.302 N 
ATOM     10  C   UNL     1       0.872   5.811  -0.371  0.00  0.00    +0.017 C 
ATOM     11  C   UNL     1       2.114   5.283  -0.407  0.00  0.00    +0.025 C 
ATOM     12  C   UNL     1       2.368   3.856   0.008  0.00  0.00    +0.099 C 
ATOM     13  C   UNL     1       3.214   6.051  -0.829  0.00  0.00    +0.162 C 
ATOM     14  O   UNL     1       4.321   5.548  -0.841  0.00  0.00    -0.292 OA
ATOM     15  C   UNL     1       3.049   7.480  -1.266  0.00  0.00    +0.086 C 
ATOM     16  C   UNL     1       1.638   7.669  -1.832  0.00  0.00    -0.023 C 
ATOM     17  C   UNL     1       0.627   7.248  -0.762  0.00  0.00    +0.058 C 
ATOM     18  C   UNL     1       1.462   6.799  -3.078  0.00  0.00    +0.011 C 
ATOM     19  C   UNL     1       1.421   9.139  -2.196  0.00  0.00    +0.011 C 
ATOM     20  H   UNL     1      -1.124   5.563   0.345  0.00  0.00    +0.153 HD
ENDROOT
BRANCH  12  21
ATOM     21  C   UNL     1       2.961   3.844   1.393  0.00  0.00    +0.002 A 
ATOM     22  C   UNL     1       4.168   3.381   1.801  0.00  0.00    +0.012 A 
ATOM     23  C   UNL     1       4.506   3.477   3.138  0.00  0.00    +0.008 A 
ATOM     24  C   UNL     1       3.616   4.021   4.003  0.00  0.00    +0.045 A 
ATOM     25  S   UNL     1       2.252   4.426   2.925  0.00  0.00    -0.101 S 
ENDBRANCH  12  21
BRANCH   1  26
ATOM     26  S   UNL     1      -2.703   0.708   0.021  0.00  0.00    -0.085 S 
BRANCH  26  27
ATOM     27  C   UNL     1      -3.903   2.063   0.033  0.00  0.00    +0.051 C 
ATOM     28  C   UNL     1      -3.777   2.844   1.343  0.00  0.00    +0.019 C 
BRANCH  27  30
ATOM     29  C   UNL     1      -5.481   0.820  -1.452  0.00  0.00    +0.005 C 
ATOM     30  C   UNL     1      -5.317   1.493  -0.088  0.00  0.00    +0.011 C 
ENDBRANCH  27  30
ENDBRANCH  26  27
ENDBRANCH   1  26
TORSDOF 4
