REMARK  Name = ZINC06220491
REMARK  6 active torsions:
REMARK  status: ('A' for Active; 'I' for Inactive)
REMARK    1  A    between atoms: C_3  and  C_11
REMARK    2  A    between atoms: C_5  and  C_7
REMARK    3  A    between atoms: N_13  and  N_14
REMARK    4  A    between atoms: C_15  and  C_16
REMARK    5  A    between atoms: C_19  and  O_23
REMARK    6  A    between atoms: C_21  and  O_22
REMARK                            x       y       z     vdW  Elec       q    Type
REMARK                         _______ _______ _______ _____ _____    ______ ____
ROOT
ATOM      1  C   UNL     1      -0.070   5.323   0.030  0.00  0.00    +0.263 C 
ATOM      2  O   UNL     1      -1.131   5.916   0.043  0.00  0.00    -0.268 OA
ATOM      3  N   UNL     1       1.088   6.012   0.024  0.00  0.00    -0.203 N 
ATOM      4  H   UNL     1       1.934   5.539   0.013  0.00  0.00    +0.178 HD
ENDROOT
BRANCH   1   7
ATOM      5  C   UNL     1       1.178   1.781   0.000  0.00  0.00    +0.001 A 
ATOM      6  C   UNL     1       1.166   3.160   0.007  0.00  0.00    +0.013 A 
ATOM      7  C   UNL     1      -0.050   3.845   0.022  0.00  0.00    +0.039 A 
ATOM      8  C   UNL     1      -1.248   3.127   0.030  0.00  0.00    +0.025 A 
ATOM      9  C   UNL     1      -1.222   1.748   0.017  0.00  0.00    +0.056 A 
ATOM     10  C   UNL     1      -0.013   1.076   0.008  0.00  0.00    +0.012 A 
BRANCH   9  11
ATOM     11  C   UNL     1      -2.514   0.972   0.019  0.00  0.00    +0.417 C 
ATOM     12  F   UNL     1      -2.234  -0.399   0.011  0.00  0.00    -0.166 F 
ATOM     13  F   UNL     1      -3.248   1.291   1.167  0.00  0.00    -0.166 F 
ATOM     14  F   UNL     1      -3.259   1.303  -1.118  0.00  0.00    -0.166 F 
ENDBRANCH   9  11
ENDBRANCH   1   7
BRANCH   3  15
ATOM     15  N   UNL     1       1.069   7.413   0.031  0.00  0.00    -0.187 NA
ATOM     16  C   UNL     1       2.184   8.078   0.025  0.00  0.00    +0.142 C 
BRANCH  16  17
ATOM     17  C   UNL     1       2.164   9.550   0.033  0.00  0.00    +0.037 A 
ATOM     18  C   UNL     1       3.364  10.268   0.031  0.00  0.00    +0.032 A 
ATOM     19  C   UNL     1       3.340  11.646   0.033  0.00  0.00    +0.060 A 
ATOM     20  C   UNL     1       2.127  12.326   0.048  0.00  0.00    +0.134 A 
ATOM     21  C   UNL     1       0.932  11.622   0.055  0.00  0.00    +0.092 A 
ATOM     22  C   UNL     1       0.942  10.238   0.048  0.00  0.00    +0.129 A 
ATOM     23 BR   UNL     1       4.963  12.617   0.023  0.00  0.00    -0.047 Br
BRANCH  22  24
ATOM     24  O   UNL     1      -0.227   9.547   0.055  0.00  0.00    -0.506 OA
ATOM     25  H   UNL     1      -0.558   9.343   0.941  0.00  0.00    +0.292 HD
ENDBRANCH  22  24
BRANCH  20  26
ATOM     26  O   UNL     1       2.112  13.684   0.055  0.00  0.00    -0.506 OA
ATOM     27  H   UNL     1       2.116  14.073   0.941  0.00  0.00    +0.292 HD
ENDBRANCH  20  26
ENDBRANCH  16  17
ENDBRANCH   3  15
TORSDOF 6
