REMARK  Name = ZINC50252295
REMARK  9 active torsions:
REMARK  status: ('A' for Active; 'I' for Inactive)
REMARK    1  A    between atoms: C_1  and  C_2
REMARK    2  A    between atoms: C_3  and  S_9
REMARK    3  A    between atoms: C_4  and  C_8
REMARK    4  A    between atoms: N_5  and  C_7
REMARK    5  A    between atoms: S_9  and  N_12
REMARK    6  A    between atoms: N_12  and  C_13
REMARK    7  A    between atoms: C_13  and  C_15
REMARK    8  A    between atoms: C_13  and  C_17
REMARK    9  A    between atoms: C_15  and  N_16
REMARK                            x       y       z     vdW  Elec       q    Type
REMARK                         _______ _______ _______ _____ _____    ______ ____
ROOT
ATOM      1  N   UNL     1       1.569  -0.086  -3.280  0.00  0.00    -0.188 NA
ATOM      2  H   UNL     1       1.914   0.793  -3.500  0.00  0.00    +0.148 HD
ENDROOT
BRANCH   1   3
ATOM      3  S   UNL     1      -0.009  -0.263  -2.808  0.00  0.00    +0.062 S 
ATOM      4  O   UNL     1      -0.549  -1.324  -3.583  0.00  0.00    -0.153 OA
ATOM      5  O   UNL     1      -0.578   1.039  -2.797  0.00  0.00    -0.153 OA
BRANCH   3   8
ATOM      6  C   UNL     1      -0.018   1.503   0.010  0.00  0.00    +0.069 C 
ATOM      7  C   UNL     1       0.002  -0.004   0.002  0.00  0.00    +0.086 A 
ATOM      8  C   UNL     1       0.008  -0.818  -1.135  0.00  0.00    +0.148 A 
ATOM      9  C   UNL     1       0.028  -2.107  -0.725  0.00  0.00    +0.062 A 
ATOM     10  N   UNL     1       0.034  -2.109   0.625  0.00  0.00    -0.269 N 
ATOM     11  N   UNL     1       0.023  -0.777   1.058  0.00  0.00    -0.174 NA
ATOM     12  C   UNL     1       0.055  -3.295   1.485  0.00  0.00    +0.172 C 
ATOM     13  C   UNL     1       0.040  -3.323  -1.615  0.00  0.00    +0.067 C 
ENDBRANCH   3   8
ENDBRANCH   1   3
BRANCH   1  14
ATOM     14  C   UNL     1       2.443  -1.258  -3.367  0.00  0.00    +0.062 C 
BRANCH  14  15
ATOM     15  C   UNL     1       3.864  -0.866  -2.958  0.00  0.00    +0.006 C 
ATOM     16  C   UNL     1       4.777  -2.090  -3.048  0.00  0.00    +0.005 C 
ATOM     17  C   UNL     1       6.198  -1.698  -2.638  0.00  0.00    +0.000 C 
ATOM     18  C   UNL     1       6.189  -1.174  -1.201  0.00  0.00    +0.000 C 
ATOM     19  C   UNL     1       5.275   0.050  -1.111  0.00  0.00    +0.000 C 
ATOM     20  C   UNL     1       3.854  -0.342  -1.520  0.00  0.00    +0.005 C 
ENDBRANCH  14  15
BRANCH  14  21
ATOM     21  C   UNL     1       2.453  -1.783  -4.804  0.00  0.00    -0.066 C 
BRANCH  21  22
ATOM     22  N   UNL     1       1.075  -2.046  -5.239  0.00  0.00    +0.379 N 
ATOM     23  H   UNL     1       0.539  -1.192  -5.196  0.00  0.00    -0.090 HD
ATOM     24  H   UNL     1       1.081  -2.392  -6.186  0.00  0.00    -0.090 HD
ATOM     25  H   UNL     1       0.657  -2.736  -4.632  0.00  0.00    -0.090 HD
ENDBRANCH  21  22
ENDBRANCH  14  21
ENDBRANCH   1  14
TORSDOF 6
