REMARK  Name = ZINC06919504
REMARK  4 active torsions:
REMARK  status: ('A' for Active; 'I' for Inactive)
REMARK    1  A    between atoms: C_1  and  C_2
REMARK    2  A    between atoms: C_5  and  N_8
REMARK    3  A    between atoms: N_8  and  S_9
REMARK    4  A    between atoms: S_9  and  C_12
REMARK                            x       y       z     vdW  Elec       q    Type
REMARK                         _______ _______ _______ _____ _____    ______ ____
ROOT
ATOM      1  S   UNL     1       4.092  -0.804  -0.028  0.00  0.00    +0.072 S 
ATOM      2  O   UNL     1       5.240  -0.077   0.388  0.00  0.00    -0.150 OA
ATOM      3  O   UNL     1       3.701  -2.025   0.585  0.00  0.00    -0.150 OA
ENDROOT
BRANCH   1   4
ATOM      4  C   UNL     1       2.721   0.294   0.118  0.00  0.00    +0.110 A 
ATOM      5  C   UNL     1       2.939   1.657   0.190  0.00  0.00    +0.030 A 
ATOM      6  C   UNL     1       1.865   2.522   0.303  0.00  0.00    +0.018 A 
ATOM      7  C   UNL     1       0.576   2.019   0.342  0.00  0.00    +0.030 A 
ATOM      8  C   UNL     1       0.349   0.643   0.273  0.00  0.00    +0.049 A 
ATOM      9  C   UNL     1       1.438  -0.214   0.159  0.00  0.00    +0.053 A 
ATOM     10  N   UNL     1      -0.938   0.114   0.321  0.00  0.00    -0.284 N 
ATOM     11  C   UNL     1      -2.065   0.758   0.029  0.00  0.00    +0.227 C 
ATOM     12  O   UNL     1      -3.111   0.148   0.112  0.00  0.00    -0.275 OA
ATOM     13  C   UNL     1      -2.114   2.200  -0.396  0.00  0.00    +0.170 C 
ATOM     14  S   UNL     1      -0.804   3.112   0.472  0.00  0.00    -0.114 S 
ATOM     15  H   UNL     1      -1.020  -0.814   0.592  0.00  0.00    +0.155 HD
ENDBRANCH   1   4
BRANCH   1  16
ATOM     16  N   UNL     1       4.293  -1.126  -1.639  0.00  0.00    -0.216 N 
ATOM     17  H   UNL     1       4.179  -2.030  -1.971  0.00  0.00    +0.174 HD
BRANCH  16  22
ATOM     18  C   UNL     1       5.644   3.059  -5.220  0.00  0.00    +0.044 C 
ATOM     19  C   UNL     1       5.285   1.946  -4.269  0.00  0.00    -0.050 A 
ATOM     20  C   UNL     1       6.239   1.444  -3.404  0.00  0.00    +0.005 A 
ATOM     21  C   UNL     1       5.914   0.425  -2.530  0.00  0.00    +0.025 A 
ATOM     22  C   UNL     1       4.625  -0.095  -2.521  0.00  0.00    +0.048 A 
ATOM     23  C   UNL     1       3.671   0.409  -3.395  0.00  0.00    +0.025 A 
ATOM     24  C   UNL     1       4.002   1.431  -4.262  0.00  0.00    +0.005 A 
ENDBRANCH  16  22
ENDBRANCH   1  16
TORSDOF 3
