REMARK  Name = ZINC51892818
REMARK  6 active torsions:
REMARK  status: ('A' for Active; 'I' for Inactive)
REMARK    1  A    between atoms: C_1  and  C_2
REMARK    2  A    between atoms: C_2  and  C_4
REMARK    3  A    between atoms: C_2  and  N_16
REMARK    4  A    between atoms: C_10  and  C_13
REMARK    5  A    between atoms: C_13  and  C_14
REMARK    6  A    between atoms: C_14  and  O_15
REMARK                            x       y       z     vdW  Elec       q    Type
REMARK                         _______ _______ _______ _____ _____    ______ ____
ROOT
ATOM      1  C   UNL     1      -1.391  -0.566   0.128  0.00  0.00    +0.236 C 
ATOM      2  O   UNL     1      -1.701  -1.203   1.113  0.00  0.00    -0.274 OA
ATOM      3  N   UNL     1      -2.294  -0.354  -0.850  0.00  0.00    -0.300 N 
ATOM      4  C   UNL     1      -1.904   0.321  -2.095  0.00  0.00    +0.108 C 
ATOM      5  C   UNL     1      -2.851   1.502  -2.332  0.00  0.00    +0.019 C 
ATOM      6  C   UNL     1      -4.298   1.002  -2.314  0.00  0.00    +0.006 C 
ATOM      7  C   UNL     1      -4.613   0.397  -0.944  0.00  0.00    +0.009 C 
ATOM      8  C   UNL     1      -3.685  -0.801  -0.694  0.00  0.00    +0.111 C 
ENDROOT
BRANCH   1  10
ATOM      9  C   UNL     1       0.023   1.440   0.482  0.00  0.00    +0.038 C 
ATOM     10  C   UNL     1       0.004  -0.011  -0.002  0.00  0.00    +0.157 C 
BRANCH  10  11
ATOM     11  N   UNL     1       0.925  -0.809   0.812  0.00  0.00    -0.289 N 
ATOM     12  C   UNL     1       2.235  -0.857   0.497  0.00  0.00    +0.298 C 
ATOM     13  O   UNL     1       2.652  -0.237  -0.463  0.00  0.00    -0.253 OA
ATOM     14  N   UNL     1       3.082  -1.591   1.245  0.00  0.00    -0.313 N 
ATOM     15  H   UNL     1       0.592  -1.303   1.577  0.00  0.00    +0.151 HD
ATOM     16  H   UNL     1       2.749  -2.085   2.010  0.00  0.00    +0.146 HD
ATOM     17  H   UNL     1       4.024  -1.625   1.018  0.00  0.00    +0.146 HD
ENDBRANCH  10  11
ENDBRANCH   1  10
BRANCH   7  18
ATOM     18  C   UNL     1      -6.069  -0.072  -0.916  0.00  0.00    +0.033 C 
BRANCH  18  19
ATOM     19  C   UNL     1      -6.997   1.137  -1.048  0.00  0.00    +0.156 C 
BRANCH  19  20
ATOM     20  O   UNL     1      -8.357   0.699  -1.022  0.00  0.00    -0.395 OA
ATOM     21  H   UNL     1      -9.003   1.415  -1.101  0.00  0.00    +0.209 HD
ENDBRANCH  19  20
ENDBRANCH  18  19
ENDBRANCH   7  18
TORSDOF 5
