REMARK  Name = ZINC42800457
REMARK  7 active torsions:
REMARK  status: ('A' for Active; 'I' for Inactive)
REMARK    1  A    between atoms: C_1  and  C_2
REMARK    2  A    between atoms: C_7  and  C_8
REMARK    3  A    between atoms: C_8  and  C_10
REMARK    4  A    between atoms: C_8  and  N_11
REMARK    5  A    between atoms: N_14  and  N_15
REMARK    6  A    between atoms: N_15  and  C_16
REMARK    7  A    between atoms: C_16  and  C_23
REMARK                            x       y       z     vdW  Elec       q    Type
REMARK                         _______ _______ _______ _____ _____    ______ ____
ROOT
ATOM      1  N   UNL     1      -0.537  -0.808   3.554  0.00  0.00    -0.292 N 
ATOM      2  C   UNL     1      -1.190  -0.255   4.595  0.00  0.00    +0.314 C 
ATOM      3  O   UNL     1      -1.312   0.953   4.663  0.00  0.00    -0.252 OA
ATOM      4  N   UNL     1      -1.707  -1.040   5.561  0.00  0.00    -0.234 N 
ATOM      5  H   UNL     1      -0.440  -1.772   3.500  0.00  0.00    +0.151 HD
ATOM      6  H   UNL     1      -2.177  -0.641   6.310  0.00  0.00    +0.171 HD
ENDROOT
BRANCH   1   7
ATOM      7  C   UNL     1       0.025   0.045   2.504  0.00  0.00    +0.102 C 
ATOM      8  C   UNL     1       1.455   0.440   2.880  0.00  0.00    +0.033 C 
BRANCH   7  15
ATOM      9  C   UNL     1      -0.099   1.488   0.004  0.00  0.00    +0.044 C 
ATOM     10  C   UNL     1      -0.021  -0.017   0.003  0.00  0.00    -0.046 A 
ATOM     11  C   UNL     1      -0.003  -0.707  -1.195  0.00  0.00    +0.004 A 
ATOM     12  C   UNL     1       0.069  -2.088  -1.197  0.00  0.00    +0.000 A 
ATOM     13  C   UNL     1       0.123  -2.778  -0.000  0.00  0.00    +0.000 A 
ATOM     14  C   UNL     1       0.106  -2.088   1.197  0.00  0.00    +0.006 A 
ATOM     15  C   UNL     1       0.039  -0.708   1.199  0.00  0.00    -0.025 A 
ENDBRANCH   7  15
ENDBRANCH   1   7
BRANCH   4  16
ATOM     16  N   UNL     1      -1.570  -2.397   5.484  0.00  0.00    -0.232 NA
ATOM     17  H   UNL     1      -1.941  -2.749   4.615  0.00  0.00    +0.145 HD
BRANCH  16  18
ATOM     18  C   UNL     1      -2.204  -3.056   6.634  0.00  0.00    +0.054 C 
ATOM     19  C   UNL     1      -3.669  -2.624   6.699  0.00  0.00    +0.047 C 
ATOM     20  C   UNL     1      -4.555  -3.602   5.877  0.00  0.00    +0.168 C 
ATOM     21  S   UNL     1      -3.743  -5.200   6.320  0.00  0.00    -0.029 S 
ATOM     22  O   UNL     1      -4.216  -5.628   7.590  0.00  0.00    -0.174 OA
ATOM     23  O   UNL     1      -3.813  -6.083   5.210  0.00  0.00    -0.174 OA
ATOM     24  C   UNL     1      -2.018  -4.579   6.494  0.00  0.00    +0.189 C 
ATOM     25  C   UNL     1      -1.503  -2.591   7.912  0.00  0.00    +0.031 C 
ENDBRANCH  16  18
ENDBRANCH   4  16
TORSDOF 4
