REMARK  Name = ZINC25426985
REMARK  8 active torsions:
REMARK  status: ('A' for Active; 'I' for Inactive)
REMARK    1  A    between atoms: C_1  and  C_2
REMARK    2  A    between atoms: C_2  and  O_3
REMARK    3  A    between atoms: O_3  and  C_4
REMARK    4  A    between atoms: C_9  and  N_12
REMARK    5  A    between atoms: N_12  and  C_13
REMARK    6  A    between atoms: C_13  and  C_15
REMARK    7  A    between atoms: C_13  and  C_21
REMARK    8  A    between atoms: N_23  and  C_24
REMARK                            x       y       z     vdW  Elec       q    Type
REMARK                         _______ _______ _______ _____ _____    ______ ____
ROOT
ATOM      1  C   UNL     1       2.422  -4.239  -0.260  0.00  0.00    +0.047 C 
ENDROOT
BRANCH   1   2
ATOM      2  C   UNL     1       1.783  -4.848   0.961  0.00  0.00    -0.053 A 
ATOM      3  C   UNL     1       2.510  -4.976   2.130  0.00  0.00    +0.002 A 
ATOM      4  C   UNL     1       1.924  -5.531   3.252  0.00  0.00    +0.000 A 
ATOM      5  C   UNL     1       0.613  -5.966   3.202  0.00  0.00    +0.000 A 
ATOM      6  C   UNL     1      -0.113  -5.843   2.032  0.00  0.00    +0.000 A 
ATOM      7  C   UNL     1       0.472  -5.284   0.912  0.00  0.00    +0.002 A 
ENDBRANCH   1   2
BRANCH   1   8
ATOM      8  C   UNL     1       2.407  -2.737  -0.138  0.00  0.00    +0.207 C 
ATOM      9  O   UNL     1       3.450  -2.118  -0.144  0.00  0.00    -0.277 OA
ATOM     10  N   UNL     1       1.236  -2.081  -0.021  0.00  0.00    -0.287 N 
ATOM     11  H   UNL     1       0.296  -2.646   0.072  0.00  0.00    +0.155 HD
BRANCH  10  12
ATOM     12  C   UNL     1       1.214  -0.681  -0.019  0.00  0.00    +0.034 A 
ATOM     13  C   UNL     1       2.138   0.030  -0.773  0.00  0.00    +0.026 A 
ATOM     14  C   UNL     1       2.115   1.411  -0.769  0.00  0.00    +0.040 A 
ATOM     15  C   UNL     1       1.171   2.087  -0.013  0.00  0.00    +0.124 A 
ATOM     16  C   UNL     1       0.249   1.379   0.740  0.00  0.00    +0.040 A 
ATOM     17  C   UNL     1       0.269  -0.002   0.738  0.00  0.00    +0.026 A 
ATOM     18  F   UNL     1       1.151   3.437  -0.011  0.00  0.00    -0.205 F 
ENDBRANCH  10  12
ENDBRANCH   1   8
BRANCH   1  19
ATOM     19  N   UNL     1       3.809  -4.707  -0.373  0.00  0.00    +0.391 N 
ATOM     20  H   UNL     1       4.230  -4.810   0.638  0.00  0.00    -0.084 HD
ATOM     21  H   UNL     1       4.388  -3.962  -0.938  0.00  0.00    -0.084 HD
BRANCH  19  27
ATOM     22  C   UNL     1       5.747  -9.646  -1.359  0.00  0.00    +0.403 C 
ATOM     23  O   UNL     1       6.789  -9.720  -1.980  0.00  0.00    -0.226 OA
ATOM     24  N   UNL     1       4.937  -8.582  -1.528  0.00  0.00    -0.268 N 
ATOM     25  C   UNL     1       5.300  -7.504  -2.459  0.00  0.00    +0.109 C 
ATOM     26  C   UNL     1       5.249  -6.168  -1.711  0.00  0.00    +0.003 C 
ATOM     27  C   UNL     1       3.873  -6.003  -1.064  0.00  0.00    -0.067 C 
ATOM     28  C   UNL     1       3.642  -7.130  -0.055  0.00  0.00    +0.003 C 
ATOM     29  C   UNL     1       3.674  -8.477  -0.784  0.00  0.00    +0.109 C 
BRANCH  22  30
ATOM     30  O   UNL     1       5.402 -10.626  -0.503  0.00  0.00    -0.451 OA
BRANCH  30  32
ATOM     31  C   UNL     1       5.764 -12.746   0.637  0.00  0.00    +0.048 C 
ATOM     32  C   UNL     1       6.322 -11.741  -0.372  0.00  0.00    +0.230 C 
ENDBRANCH  30  32
ENDBRANCH  22  30
ENDBRANCH  19  27
ENDBRANCH   1  19
TORSDOF 7
