REMARK  Name = ZINC49340005
REMARK  5 active torsions:
REMARK  status: ('A' for Active; 'I' for Inactive)
REMARK    1  A    between atoms: C_4  and  C_7
REMARK    2  A    between atoms: C_8  and  C_9
REMARK    3  A    between atoms: C_9  and  N_10
REMARK    4  A    between atoms: N_13  and  C_14
REMARK    5  A    between atoms: C_14  and  C_15
REMARK                            x       y       z     vdW  Elec       q    Type
REMARK                         _______ _______ _______ _____ _____    ______ ____
ROOT
ATOM      1  N   UNL     1       5.723  -3.393  -0.072  0.00  0.00    -0.289 N 
ATOM      2  C   UNL     1       6.761  -4.252  -0.087  0.00  0.00    +0.300 C 
ATOM      3  O   UNL     1       7.900  -3.828  -0.096  0.00  0.00    -0.253 OA
ATOM      4  N   UNL     1       6.536  -5.581  -0.092  0.00  0.00    -0.297 N 
ATOM      5  H   UNL     1       4.813  -3.731  -0.065  0.00  0.00    +0.151 HD
ATOM      6  H   UNL     1       5.627  -5.919  -0.085  0.00  0.00    +0.150 HD
ENDROOT
BRANCH   1   7
ATOM      7  C   UNL     1       5.967  -1.948  -0.067  0.00  0.00    +0.195 C 
BRANCH   7   9
ATOM      8  C   UNL     1       3.655  -0.662  -0.037  0.00  0.00    -0.065 C 
ATOM      9  C   UNL     1       4.681  -1.233  -0.050  0.00  0.00    -0.078 C 
BRANCH   8  13
ATOM     10  C   UNL     1      -0.017   1.379   0.010  0.00  0.00    +0.000 A 
ATOM     11  C   UNL     1       1.168   2.093   0.002  0.00  0.00    +0.001 A 
ATOM     12  C   UNL     1       2.377   1.429  -0.013  0.00  0.00    +0.017 A 
ATOM     13  C   UNL     1       2.403   0.034  -0.021  0.00  0.00    +0.025 A 
ATOM     14  C   UNL     1       1.204  -0.681  -0.013  0.00  0.00    +0.017 A 
ATOM     15  C   UNL     1       0.002  -0.004   0.002  0.00  0.00    +0.001 A 
ENDBRANCH   8  13
ENDBRANCH   7   9
ENDBRANCH   1   7
BRANCH   4  16
ATOM     16  C   UNL     1       7.664  -6.515  -0.108  0.00  0.00    +0.139 C 
BRANCH  16  17
ATOM     17  C   UNL     1       7.138  -7.951  -0.111  0.00  0.00    +0.161 C 
ATOM     18  C   UNL     1       8.317  -8.928  -0.124  0.00  0.00    +0.193 C 
ATOM     19  O   UNL     1       7.819 -10.265  -0.014  0.00  0.00    -0.375 OA
ATOM     20  C   UNL     1       7.037 -10.490   1.163  0.00  0.00    +0.188 C 
ATOM     21  C   UNL     1       5.858  -9.513   1.177  0.00  0.00    +0.188 C 
ATOM     22  O   UNL     1       6.354  -8.175   1.065  0.00  0.00    -0.370 OA
ENDBRANCH  16  17
ENDBRANCH   4  16
TORSDOF 5
