REMARK  Name = ZINC59833130
REMARK  5 active torsions:
REMARK  status: ('A' for Active; 'I' for Inactive)
REMARK    1  A    between atoms: C_4  and  O_25
REMARK    2  A    between atoms: C_5  and  N_7
REMARK    3  A    between atoms: N_10  and  C_13
REMARK    4  A    between atoms: C_13  and  C_14
REMARK    5  A    between atoms: C_16  and  C_19
REMARK                            x       y       z     vdW  Elec       q    Type
REMARK                         _______ _______ _______ _____ _____    ______ ____
ROOT
ATOM      1  N   UNL     1       1.235  -2.080  -0.021  0.00  0.00    -0.325 N 
ATOM      2  C   UNL     1       1.252  -2.842   1.236  0.00  0.00    +0.120 C 
ATOM      3  C   UNL     1       2.400  -3.856   1.175  0.00  0.00    +0.104 C 
ATOM      4  N   UNL     1       2.268  -4.668  -0.041  0.00  0.00    -0.291 NA
ATOM      5  C   UNL     1       2.388  -3.842  -1.250  0.00  0.00    +0.104 C 
ATOM      6  C   UNL     1       1.234  -2.828  -1.288  0.00  0.00    +0.120 C 
ENDROOT
BRANCH   1  11
ATOM      7  C   UNL     1      -0.017   1.378   0.010  0.00  0.00    +0.002 A 
ATOM      8  C   UNL     1       1.169   2.089   0.002  0.00  0.00    +0.004 A 
ATOM      9  C   UNL     1       2.380   1.421  -0.013  0.00  0.00    +0.047 A 
ATOM     10  C   UNL     1       2.407   0.036  -0.021  0.00  0.00    +0.138 A 
ATOM     11  C   UNL     1       1.213  -0.681  -0.013  0.00  0.00    +0.072 A 
ATOM     12  C   UNL     1       0.002  -0.004   0.002  0.00  0.00    +0.027 A 
BRANCH  10  13
ATOM     13  O   UNL     1       3.598  -0.622  -0.036  0.00  0.00    -0.505 OA
ATOM     14  H   UNL     1       3.950  -0.817   0.843  0.00  0.00    +0.292 HD
ENDBRANCH  10  13
ENDBRANCH   1  11
BRANCH   4  15
ATOM     15  C   UNL     1       3.247  -5.763  -0.053  0.00  0.00    +0.183 C 
BRANCH  15  16
ATOM     16  C   UNL     1       2.926  -6.713  -1.178  0.00  0.00    +0.242 A 
ATOM     17  N   UNL     1       3.387  -6.634  -2.393  0.00  0.00    -0.190 NA
ATOM     18  C   UNL     1       2.897  -7.643  -3.139  0.00  0.00    +0.209 A 
ATOM     19  N   UNL     1       2.111  -8.376  -2.385  0.00  0.00    -0.055 NA
ATOM     20  O   UNL     1       2.123  -7.781  -1.095  0.00  0.00    -0.336 OA
BRANCH  18  21
ATOM     21  C   UNL     1       3.195  -7.885  -4.565  0.00  0.00    +0.061 A 
ATOM     22  C   UNL     1       2.733  -8.880  -5.387  0.00  0.00    +0.034 A 
ATOM     23  C   UNL     1       3.153  -8.904  -6.698  0.00  0.00    +0.026 A 
ATOM     24  C   UNL     1       4.009  -7.944  -7.136  0.00  0.00    +0.061 A 
ATOM     25  S   UNL     1       4.243  -6.953  -5.670  0.00  0.00    -0.092 S 
ATOM     26 BR   UNL     1       2.546 -10.255  -7.873  0.00  0.00    -0.050 Br
ENDBRANCH  18  21
ENDBRANCH  15  16
ENDBRANCH   4  15
TORSDOF 5
