REMARK  Name = ZINC62011919
REMARK  6 active torsions:
REMARK  status: ('A' for Active; 'I' for Inactive)
REMARK    1  A    between atoms: C_1  and  C_2
REMARK    2  A    between atoms: C_2  and  C_4
REMARK    3  A    between atoms: C_2  and  N_11
REMARK    4  A    between atoms: N_11  and  C_12
REMARK    5  A    between atoms: C_13  and  C_15
REMARK    6  A    between atoms: C_20  and  N_21
REMARK                            x       y       z     vdW  Elec       q    Type
REMARK                         _______ _______ _______ _____ _____    ______ ____
ROOT
ATOM      1  N   UNL     1       1.082  -0.195  -1.142  0.00  0.00    -0.294 N 
ATOM      2  C   UNL     1       1.039   0.413  -2.474  0.00  0.00    +0.133 C 
ATOM      3  C   UNL     1       1.793  -1.322  -0.939  0.00  0.00    +0.250 C 
ATOM      4  O   UNL     1       1.885  -1.789   0.180  0.00  0.00    -0.270 OA
ENDROOT
BRANCH   3   5
ATOM      5  C   UNL     1       2.460  -1.988  -2.072  0.00  0.00    +0.077 A 
ATOM      6  C   UNL     1       3.161  -1.241  -3.025  0.00  0.00    +0.033 A 
ATOM      7  C   UNL     1       3.770  -1.914  -4.071  0.00  0.00    +0.037 A 
ATOM      8  C   UNL     1       3.669  -3.292  -4.144  0.00  0.00    +0.128 A 
ATOM      9  N   UNL     1       3.003  -3.978  -3.236  0.00  0.00    -0.239 NA
ATOM     10  C   UNL     1       2.407  -3.385  -2.213  0.00  0.00    +0.128 A 
ATOM     11 BR   UNL     1       4.731  -0.957  -5.388  0.00  0.00    -0.049 Br
BRANCH  10  12
ATOM     12  N   UNL     1       1.724  -4.145  -1.280  0.00  0.00    -0.343 N 
ATOM     13  H   UNL     1       1.215  -3.709  -0.579  0.00  0.00    +0.144 HD
ATOM     14  H   UNL     1       1.754  -5.113  -1.328  0.00  0.00    +0.144 HD
ENDBRANCH  10  12
ENDBRANCH   3   5
BRANCH   1  16
ATOM     15  C   UNL     1       0.502   1.942  -0.104  0.00  0.00    +0.033 C 
ATOM     16  C   UNL     1       0.352   0.421  -0.032  0.00  0.00    +0.103 C 
BRANCH  16  17
ATOM     17  C   UNL     1      -1.107   0.055  -0.125  0.00  0.00    -0.027 A 
ATOM     18  C   UNL     1      -1.788  -0.364   1.002  0.00  0.00    +0.007 A 
ATOM     19  C   UNL     1      -3.126  -0.700   0.917  0.00  0.00    +0.020 A 
ATOM     20  C   UNL     1      -3.784  -0.615  -0.297  0.00  0.00    +0.041 A 
ATOM     21  C   UNL     1      -3.102  -0.195  -1.425  0.00  0.00    +0.020 A 
ATOM     22  C   UNL     1      -1.765   0.145  -1.337  0.00  0.00    +0.007 A 
ATOM     23 CL   UNL     1      -5.465  -1.037  -0.405  0.00  0.00    -0.084 Cl
ENDBRANCH  16  17
ENDBRANCH   1  16
TORSDOF 4
