REMARK  Name = ZINC46094904
REMARK  5 active torsions:
REMARK  status: ('A' for Active; 'I' for Inactive)
REMARK    1  A    between atoms: C_3  and  C_12
REMARK    2  A    between atoms: C_12  and  N_13
REMARK    3  A    between atoms: N_16  and  N_17
REMARK    4  A    between atoms: C_18  and  C_20
REMARK    5  A    between atoms: C_20  and  C_21
REMARK                            x       y       z     vdW  Elec       q    Type
REMARK                         _______ _______ _______ _____ _____    ______ ____
ROOT
ATOM      1  N   UNL     1       4.225   2.086  -1.388  0.00  0.00    -0.294 N 
ATOM      2  C   UNL     1       5.412   2.674  -1.639  0.00  0.00    +0.316 C 
ATOM      3  O   UNL     1       6.042   3.183  -0.733  0.00  0.00    -0.251 OA
ATOM      4  N   UNL     1       5.899   2.697  -2.895  0.00  0.00    -0.218 N 
ATOM      5  H   UNL     1       3.722   1.680  -2.111  0.00  0.00    +0.151 HD
ATOM      6  H   UNL     1       6.753   3.120  -3.076  0.00  0.00    +0.174 HD
ENDROOT
BRANCH   4   7
ATOM      7  N   UNL     1       5.173   2.110  -3.940  0.00  0.00    -0.233 N 
ATOM      8  C   UNL     1       5.661   2.134  -5.196  0.00  0.00    +0.233 C 
ATOM      9  O   UNL     1       6.729   2.663  -5.422  0.00  0.00    -0.274 OA
ATOM     10  H   UNL     1       4.319   1.687  -3.759  0.00  0.00    +0.173 HD
BRANCH   8  11
ATOM     11  C   UNL     1       4.880   1.503  -6.320  0.00  0.00    +0.132 C 
BRANCH  11  12
ATOM     12  C   UNL     1       5.639   1.664  -7.612  0.00  0.00    -0.038 A 
ATOM     13  C   UNL     1       5.434   2.782  -8.398  0.00  0.00    +0.007 A 
ATOM     14  C   UNL     1       6.129   2.932  -9.583  0.00  0.00    +0.038 A 
ATOM     15  C   UNL     1       7.032   1.961  -9.982  0.00  0.00    +0.123 A 
ATOM     16  C   UNL     1       7.237   0.842  -9.193  0.00  0.00    +0.038 A 
ATOM     17  C   UNL     1       6.545   0.697  -8.006  0.00  0.00    +0.007 A 
ATOM     18  F   UNL     1       7.713   2.106 -11.140  0.00  0.00    -0.205 F 
ENDBRANCH  11  12
ENDBRANCH   8  11
ENDBRANCH   4   7
BRANCH   1  19
ATOM     19  C   UNL     1       3.695   2.061  -0.023  0.00  0.00    +0.144 C 
BRANCH  19  22
ATOM     20  C   UNL     1      -0.017   1.377   0.010  0.00  0.00    +0.020 A 
ATOM     21  C   UNL     1       1.185   2.072   0.002  0.00  0.00    +0.010 A 
ATOM     22  C   UNL     1       2.365   1.351  -0.013  0.00  0.00    +0.014 A 
ATOM     23  C   UNL     1       2.309  -0.038  -0.020  0.00  0.00    +0.159 A 
ATOM     24  N   UNL     1       1.143  -0.665  -0.012  0.00  0.00    -0.236 NA
ATOM     25  C   UNL     1       0.002  -0.004   0.002  0.00  0.00    +0.113 A 
ATOM     26  N   UNL     1       3.494  -0.779  -0.036  0.00  0.00    -0.222 N 
ATOM     27  C   UNL     1       3.648  -2.051   0.415  0.00  0.00    +0.116 A 
ATOM     28  C   UNL     1       4.941  -2.400   0.221  0.00  0.00    +0.041 A 
ATOM     29  C   UNL     1       5.598  -1.313  -0.365  0.00  0.00    +0.135 A 
ATOM     30  N   UNL     1       4.733  -0.345  -0.525  0.00  0.00    -0.173 NA
ENDBRANCH  19  22
ENDBRANCH   1  19
TORSDOF 5
