REMARK  Name = ZINC57411879
REMARK  6 active torsions:
REMARK  status: ('A' for Active; 'I' for Inactive)
REMARK    1  A    between atoms: C_3  and  O_20
REMARK    2  A    between atoms: C_4  and  C_17
REMARK    3  A    between atoms: C_6  and  S_7
REMARK    4  A    between atoms: S_7  and  N_10
REMARK    5  A    between atoms: N_10  and  C_11
REMARK    6  A    between atoms: C_11  and  C_12
REMARK                            x       y       z     vdW  Elec       q    Type
REMARK                         _______ _______ _______ _____ _____    ______ ____
ROOT
ATOM      1  C   UNL     1      -0.017   1.381   0.010  0.00  0.00    +0.032 A 
ATOM      2  C   UNL     1       1.164   2.097   0.002  0.00  0.00    +0.048 A 
ATOM      3  C   UNL     1       2.381   1.431  -0.013  0.00  0.00    +0.131 A 
ATOM      4  C   UNL     1       2.405   0.028  -0.021  0.00  0.00    +0.106 A 
ATOM      5  C   UNL     1       1.200  -0.683  -0.013  0.00  0.00    +0.047 A 
ATOM      6  C   UNL     1       0.002  -0.004   0.002  0.00  0.00    +0.106 A 
ENDROOT
BRANCH   6   7
ATOM      7  S   UNL     1      -1.514  -0.901   0.012  0.00  0.00    +0.059 S 
ATOM      8  O   UNL     1      -1.224  -2.183   0.553  0.00  0.00    -0.153 OA
ATOM      9  O   UNL     1      -2.493  -0.040   0.577  0.00  0.00    -0.153 OA
BRANCH   7  10
ATOM     10  N   UNL     1      -1.951  -1.142  -1.567  0.00  0.00    -0.186 NA
ATOM     11  H   UNL     1      -2.757  -0.731  -1.916  0.00  0.00    +0.148 HD
BRANCH  10  12
ATOM     12  C   UNL     1      -1.119  -1.977  -2.438  0.00  0.00    +0.141 C 
BRANCH  12  13
ATOM     13  C   UNL     1      -1.895  -2.338  -3.678  0.00  0.00    -0.025 A 
ATOM     14  C   UNL     1      -2.672  -3.481  -3.711  0.00  0.00    +0.012 A 
ATOM     15  C   UNL     1      -3.358  -3.778  -4.842  0.00  0.00    +0.045 A 
ATOM     16  S   UNL     1      -2.912  -2.419  -5.911  0.00  0.00    -0.105 S 
ATOM     17  C   UNL     1      -1.846  -1.545  -4.776  0.00  0.00    +0.050 A 
ENDBRANCH  12  13
ENDBRANCH  10  12
ENDBRANCH   7  10
ENDBRANCH   6   7
BRANCH   4  18
ATOM     18  C   UNL     1       3.689  -0.691  -0.038  0.00  0.00    +0.390 C 
ATOM     19  O   UNL     1       3.705  -1.914  -0.045  0.00  0.00    -0.240 OA
ATOM     20  O   UNL     1       4.740  -0.065  -0.046  0.00  0.00    -0.240 OA
ENDBRANCH   4  18
BRANCH   3  21
ATOM     21  O   UNL     1       3.541   2.132  -0.022  0.00  0.00    -0.506 OA
ATOM     22  H   UNL     1       3.887   2.331   0.859  0.00  0.00    +0.292 HD
ENDBRANCH   3  21
TORSDOF 6
