REMARK  Name = ZINC38854448
REMARK  8 active torsions:
REMARK  status: ('A' for Active; 'I' for Inactive)
REMARK    1  A    between atoms: C_1  and  C_2
REMARK    2  A    between atoms: C_2  and  C_3
REMARK    3  A    between atoms: C_2  and  N_4
REMARK    4  A    between atoms: C_5  and  C_7
REMARK    5  A    between atoms: C_12  and  N_13
REMARK    6  A    between atoms: C_14  and  C_16
REMARK    7  A    between atoms: N_20  and  S_28
REMARK    8  A    between atoms: S_28  and  C_31
REMARK                            x       y       z     vdW  Elec       q    Type
REMARK                         _______ _______ _______ _____ _____    ______ ____
ROOT
ATOM      1  N   UNL     1      -2.394  -4.299  -1.702  0.00  0.00    -0.282 N 
ATOM      2  C   UNL     1      -2.752  -5.422  -2.355  0.00  0.00    +0.258 C 
ATOM      3  O   UNL     1      -3.925  -5.701  -2.484  0.00  0.00    -0.271 OA
ATOM      4  H   UNL     1      -1.461  -4.035  -1.665  0.00  0.00    +0.155 HD
ENDROOT
BRANCH   2   5
ATOM      5  C   UNL     1      -1.694  -6.330  -2.927  0.00  0.00    +0.260 C 
ATOM      6  C   UNL     1      -0.863  -6.906  -1.789  0.00  0.00    +0.075 C 
ATOM      7  C   UNL     1       0.333  -7.698  -2.285  0.00  0.00    +0.135 C 
ATOM      8  N   UNL     1      -0.113  -8.872  -3.048  0.00  0.00    -0.204 N 
ATOM      9  C   UNL     1      -0.473  -8.688  -4.391  0.00  0.00    +0.092 A 
ATOM     10  C   UNL     1       0.267  -9.267  -5.408  0.00  0.00    +0.028 A 
ATOM     11  C   UNL     1      -0.104  -9.064  -6.726  0.00  0.00    +0.002 A 
ATOM     12  C   UNL     1      -1.207  -8.286  -7.026  0.00  0.00    +0.004 A 
ATOM     13  C   UNL     1      -1.951  -7.709  -6.012  0.00  0.00    +0.047 A 
ATOM     14  C   UNL     1      -1.587  -7.912  -4.693  0.00  0.00    +0.144 A 
ATOM     15  O   UNL     1      -2.323  -7.365  -3.679  0.00  0.00    -0.478 OA
BRANCH   8  16
ATOM     16  S   UNL     1      -0.189 -10.368  -2.342  0.00  0.00    +0.043 S 
ATOM     17  O   UNL     1      -0.040 -11.284  -3.418  0.00  0.00    -0.155 OA
ATOM     18  O   UNL     1       0.767 -10.322  -1.292  0.00  0.00    -0.155 OA
ATOM     19  C   UNL     1      -1.865 -10.476  -1.657  0.00  0.00    +0.218 C 
ENDBRANCH   8  16
ENDBRANCH   2   5
BRANCH   1  25
ATOM     20  C   UNL     1      -3.228  -2.121  -1.043  0.00  0.00    +0.058 A 
ATOM     21  C   UNL     1      -4.210  -1.348  -0.420  0.00  0.00    +0.015 A 
ATOM     22  C   UNL     1      -5.301  -1.959   0.159  0.00  0.00    +0.001 A 
ATOM     23  C   UNL     1      -5.430  -3.338   0.126  0.00  0.00    +0.002 A 
ATOM     24  C   UNL     1      -4.467  -4.115  -0.485  0.00  0.00    +0.024 A 
ATOM     25  C   UNL     1      -3.364  -3.517  -1.079  0.00  0.00    +0.046 A 
BRANCH  20  27
ATOM     26  N   UNL     1      -1.979  -0.129  -1.717  0.00  0.00    -0.309 N 
ATOM     27  C   UNL     1      -2.057  -1.474  -1.665  0.00  0.00    +0.246 C 
ATOM     28  O   UNL     1      -1.163  -2.153  -2.131  0.00  0.00    -0.270 OA
ATOM     29  H   UNL     1      -2.693   0.413  -1.346  0.00  0.00    +0.149 HD
BRANCH  26  31
ATOM     30  C   UNL     1      -1.208   1.908  -2.830  0.00  0.00    +0.027 C 
ATOM     31  C   UNL     1      -0.817   0.514  -2.335  0.00  0.00    +0.067 C 
ATOM     32  C   UNL     1       0.307   0.635  -1.304  0.00  0.00    +0.027 C 
ENDBRANCH  26  31
ENDBRANCH  20  27
ENDBRANCH   1  25
TORSDOF 5
