REMARK  Name = ZINC10187189
REMARK  5 active torsions:
REMARK  status: ('A' for Active; 'I' for Inactive)
REMARK    1  A    between atoms: C_5  and  S_6
REMARK    2  A    between atoms: S_6  and  N_9
REMARK    3  A    between atoms: C_13  and  C_15
REMARK    4  A    between atoms: N_17  and  C_18
REMARK    5  A    between atoms: C_19  and  C_26
REMARK                            x       y       z     vdW  Elec       q    Type
REMARK                         _______ _______ _______ _____ _____    ______ ____
ROOT
ATOM      1  C   UNL     1      -0.014   1.209   0.009  0.00  0.00    +0.236 C 
ATOM      2  O   UNL     1       0.002  -0.004   0.002  0.00  0.00    -0.274 OA
ATOM      3  N   UNL     1      -1.191   1.867   0.018  0.00  0.00    -0.278 N 
ATOM      4  H   UNL     1      -1.204   2.836   0.023  0.00  0.00    +0.155 HD
ENDROOT
BRANCH   3   5
ATOM      5  C   UNL     1      -2.382   1.157   0.020  0.00  0.00    +0.084 A 
ATOM      6  C   UNL     1      -3.676   1.649   0.028  0.00  0.00    +0.068 A 
ATOM      7  C   UNL     1      -4.769   0.677   0.029  0.00  0.00    -0.023 A 
ATOM      8  C   UNL     1      -4.388  -0.613   0.019  0.00  0.00    -0.004 A 
ATOM      9  S   UNL     1      -2.612  -0.558   0.004  0.00  0.00    -0.077 S 
ATOM     10  C   UNL     1      -5.565  -1.550   0.015  0.00  0.00    +0.043 C 
ATOM     11  C   UNL     1      -6.761  -0.670  -0.409  0.00  0.00    +0.010 C 
ATOM     12  C   UNL     1      -6.298   0.730   0.042  0.00  0.00    +0.037 C 
BRANCH   6  13
ATOM     13  C   UNL     1      -3.941   3.091   0.036  0.00  0.00    +0.244 C 
ATOM     14  O   UNL     1      -4.056   3.694  -1.014  0.00  0.00    -0.270 OA
ATOM     15  N   UNL     1      -4.057   3.748   1.207  0.00  0.00    -0.325 N 
ATOM     16  H   UNL     1      -3.966   3.267   2.045  0.00  0.00    +0.145 HD
ATOM     17  H   UNL     1      -4.232   4.702   1.213  0.00  0.00    +0.145 HD
ENDBRANCH   6  13
ENDBRANCH   3   5
BRANCH   1  22
ATOM     18  N   UNL     1       2.417   1.048  -0.015  0.00  0.00    -0.164 NA
ATOM     19  C   UNL     1       3.192   1.268  -1.250  0.00  0.00    +0.110 C 
ATOM     20  C   UNL     1       2.871   2.726  -1.665  0.00  0.00    +0.019 C 
ATOM     21  C   UNL     1       1.373   2.837  -1.280  0.00  0.00    +0.031 C 
ATOM     22  C   UNL     1       1.280   1.980   0.001  0.00  0.00    +0.166 C 
BRANCH  18  23
ATOM     23  S   UNL     1       2.769  -0.065   1.159  0.00  0.00    +0.068 S 
ATOM     24  O   UNL     1       4.161  -0.336   1.058  0.00  0.00    -0.152 OA
ATOM     25  O   UNL     1       2.170   0.406   2.358  0.00  0.00    -0.152 OA
BRANCH  23  30
ATOM     26  C   UNL     1       2.371  -2.592  -0.026  0.00  0.00    +0.038 A 
ATOM     27  C   UNL     1       1.533  -3.673  -0.231  0.00  0.00    +0.030 A 
ATOM     28  C   UNL     1       0.299  -3.664   0.331  0.00  0.00    +0.080 A 
ATOM     29  S   UNL     1       0.295  -2.098   1.188  0.00  0.00    -0.057 S 
ATOM     30  C   UNL     1       1.934  -1.556   0.731  0.00  0.00    +0.144 A 
ATOM     31 CL   UNL     1      -0.951  -4.866   0.246  0.00  0.00    -0.076 Cl
ENDBRANCH  23  30
ENDBRANCH  18  23
ENDBRANCH   1  22
TORSDOF 5
