REMARK  Name = ZINC63654560
REMARK  2 active torsions:
REMARK  status: ('A' for Active; 'I' for Inactive)
REMARK    1  A    between atoms: C_9  and  C_10
REMARK    2  A    between atoms: C_16  and  C_18
REMARK                            x       y       z     vdW  Elec       q    Type
REMARK                         _______ _______ _______ _____ _____    ______ ____
ROOT
ATOM      1  C   UNL     1       4.824  -0.575  -0.048  0.00  0.00    +0.266 C 
ATOM      2  O   UNL     1       5.638  -1.477   0.036  0.00  0.00    -0.268 OA
ATOM      3  N   UNL     1       5.241   0.702  -0.147  0.00  0.00    -0.296 N 
ATOM      4  C   UNL     1       4.274   1.809  -0.127  0.00  0.00    +0.108 C 
ATOM      5  C   UNL     1       4.503   2.686  -1.362  0.00  0.00    +0.020 C 
ATOM      6  C   UNL     1       5.967   3.130  -1.404  0.00  0.00    +0.016 C 
ATOM      7  C   UNL     1       6.872   1.901  -1.510  0.00  0.00    +0.092 C 
ATOM      8  C   UNL     1       6.671   1.016  -0.270  0.00  0.00    +0.120 C 
ENDROOT
BRANCH   1  17
ATOM      9  C   UNL     1       0.538  -1.205   2.852  0.00  0.00    +0.005 A 
ATOM     10  C   UNL     1       1.832  -0.888   3.288  0.00  0.00    +0.018 A 
ATOM     11  C   UNL     1       2.838  -0.761   2.392  0.00  0.00    +0.093 A 
ATOM     12  N   UNL     1       2.610  -0.939   1.064  0.00  0.00    -0.294 N 
ATOM     13  C   UNL     1       1.360  -1.249   0.607  0.00  0.00    +0.140 A 
ATOM     14  C   UNL     1       0.301  -1.385   1.522  0.00  0.00    +0.047 A 
ATOM     15  N   UNL     1       1.409  -1.367  -0.719  0.00  0.00    -0.216 NA
ATOM     16  C   UNL     1       2.643  -1.146  -1.145  0.00  0.00    +0.160 A 
ATOM     17  C   UNL     1       3.438  -0.870  -0.043  0.00  0.00    +0.147 A 
ATOM     18 CL   UNL     1       3.173  -1.194  -2.797  0.00  0.00    -0.060 Cl
ENDBRANCH   1  17
BRANCH   7  19
ATOM     19  C   UNL     1       8.311   2.341  -1.583  0.00  0.00    +0.215 C 
ATOM     20  O   UNL     1       8.586   3.522  -1.554  0.00  0.00    -0.276 OA
ATOM     21  N   UNL     1       9.293   1.423  -1.682  0.00  0.00    -0.329 N 
ATOM     22  H   UNL     1       9.073   0.478  -1.705  0.00  0.00    +0.145 HD
ATOM     23  H   UNL     1      10.219   1.706  -1.729  0.00  0.00    +0.145 HD
ENDBRANCH   7  19
TORSDOF 2
