REMARK  Name = ZINC37003127
REMARK  4 active torsions:
REMARK  status: ('A' for Active; 'I' for Inactive)
REMARK    1  A    between atoms: C_4  and  N_11
REMARK    2  A    between atoms: C_5  and  C_7
REMARK    3  A    between atoms: C_7  and  C_8
REMARK    4  A    between atoms: C_12  and  C_14
REMARK                            x       y       z     vdW  Elec       q    Type
REMARK                         _______ _______ _______ _____ _____    ______ ____
ROOT
ATOM      1  C   UNL     1      -0.007   1.394   0.036  0.00  0.00    +0.000 A 
ATOM      2  C   UNL     1       1.182   2.100   0.023  0.00  0.00    +0.002 A 
ATOM      3  C   UNL     1       2.387   1.425  -0.001  0.00  0.00    +0.023 A 
ATOM      4  C   UNL     1       2.403   0.036  -0.012  0.00  0.00    +0.037 A 
ATOM      5  C   UNL     1       1.207  -0.669   0.001  0.00  0.00    -0.017 A 
ATOM      6  C   UNL     1       0.005   0.012   0.025  0.00  0.00    +0.006 A 
ENDROOT
BRANCH   4   7
ATOM      7  N   UNL     1       3.622  -0.651  -0.037  0.00  0.00    -0.287 N 
ATOM      8  C   UNL     1       4.669  -0.140  -0.715  0.00  0.00    +0.204 C 
ATOM      9  O   UNL     1       4.581   0.952  -1.235  0.00  0.00    -0.277 OA
ATOM     10  H   UNL     1       3.713  -1.494   0.433  0.00  0.00    +0.155 HD
BRANCH   8  11
ATOM     11  C   UNL     1       5.949  -0.927  -0.827  0.00  0.00    +0.027 C 
ATOM     12  C   UNL     1       6.473  -1.219   0.600  0.00  0.00    +0.060 C 
ATOM     13  S   UNL     1       8.291  -1.034   0.320  0.00  0.00    -0.181 S 
ATOM     14  C   UNL     1       8.167   0.204  -1.045  0.00  0.00    -0.011 C 
ATOM     15  N   UNL     1       6.879  -0.180  -1.665  0.00  0.00    +0.393 N 
ATOM     16  H   UNL     1       7.082  -0.738  -2.481  0.00  0.00    -0.084 HD
ATOM     17  H   UNL     1       6.417   0.662  -1.972  0.00  0.00    -0.084 HD
ENDBRANCH   8  11
ENDBRANCH   4   7
BRANCH   5  18
ATOM     18  C   UNL     1       1.220  -2.176  -0.011  0.00  0.00    +0.132 C 
BRANCH  18  19
ATOM     19  C   UNL     1       1.370  -2.689   1.398  0.00  0.00    +0.215 C 
ATOM     20  O   UNL     1       1.458  -1.907   2.321  0.00  0.00    -0.276 OA
ATOM     21  N   UNL     1       1.407  -4.015   1.632  0.00  0.00    -0.329 N 
ATOM     22  H   UNL     1       1.336  -4.640   0.894  0.00  0.00    +0.145 HD
ATOM     23  H   UNL     1       1.504  -4.345   2.539  0.00  0.00    +0.145 HD
ENDBRANCH  18  19
ENDBRANCH   5  18
TORSDOF 4
