REMARK  Name = ZINC63177145
REMARK  5 active torsions:
REMARK  status: ('A' for Active; 'I' for Inactive)
REMARK    1  A    between atoms: C_3  and  N_15
REMARK    2  A    between atoms: C_4  and  S_8
REMARK    3  A    between atoms: S_8  and  C_11
REMARK    4  A    between atoms: N_15  and  C_16
REMARK    5  A    between atoms: C_21  and  N_23
REMARK                            x       y       z     vdW  Elec       q    Type
REMARK                         _______ _______ _______ _____ _____    ______ ____
ROOT
ATOM      1  C   UNL     1       0.768   3.409  -1.240  0.00  0.00    +0.040 A 
ATOM      2  C   UNL     1       2.093   3.646  -0.929  0.00  0.00    +0.027 A 
ATOM      3  C   UNL     1       2.930   2.586  -0.610  0.00  0.00    +0.053 A 
ATOM      4  C   UNL     1       2.434   1.289  -0.604  0.00  0.00    +0.121 A 
ATOM      5  C   UNL     1       1.109   1.056  -0.915  0.00  0.00    +0.067 A 
ATOM      6  C   UNL     1       0.275   2.115  -1.234  0.00  0.00    +0.125 A 
ATOM      7  F   UNL     1      -1.021   1.886  -1.538  0.00  0.00    -0.205 F 
ENDROOT
BRANCH   4   8
ATOM      8  S   UNL     1       3.494  -0.059  -0.200  0.00  0.00    +0.093 S 
ATOM      9  O   UNL     1       4.204   0.371   0.954  0.00  0.00    -0.161 OA
ATOM     10  O   UNL     1       2.637  -1.191  -0.143  0.00  0.00    -0.161 OA
BRANCH   8  11
ATOM     11  C   UNL     1       4.625  -0.202  -1.611  0.00  0.00    +0.526 C 
ATOM     12  F   UNL     1       5.321   1.000  -1.775  0.00  0.00    -0.150 F 
ATOM     13  F   UNL     1       5.534  -1.240  -1.377  0.00  0.00    -0.150 F 
ATOM     14  F   UNL     1       3.891  -0.478  -2.770  0.00  0.00    -0.150 F 
ENDBRANCH   8  11
ENDBRANCH   4   8
BRANCH   3  15
ATOM     15  N   UNL     1       4.272   2.824  -0.295  0.00  0.00    -0.341 N 
ATOM     16  H   UNL     1       4.876   2.078  -0.150  0.00  0.00    +0.146 HD
BRANCH  15  17
ATOM     17  C   UNL     1       4.766   4.199  -0.184  0.00  0.00    +0.056 C 
ATOM     18  C   UNL     1       4.446   4.763   1.211  0.00  0.00    +0.020 C 
ATOM     19  C   UNL     1       5.799   5.109   1.867  0.00  0.00    +0.000 C 
ATOM     20  C   UNL     1       6.820   4.205   1.132  0.00  0.00    -0.014 C 
ATOM     21  C   UNL     1       6.302   4.221  -0.329  0.00  0.00    -0.055 C 
BRANCH  21  22
ATOM     22  N   UNL     1       6.768   3.032  -1.054  0.00  0.00    +0.381 N 
ATOM     23  H   UNL     1       6.266   2.951  -1.926  0.00  0.00    -0.090 HD
ATOM     24  H   UNL     1       7.755   3.118  -1.242  0.00  0.00    -0.090 HD
ATOM     25  H   UNL     1       6.602   2.210  -0.493  0.00  0.00    -0.090 HD
ENDBRANCH  21  22
ENDBRANCH  15  17
ENDBRANCH   3  15
TORSDOF 5
