REMARK  Name = ZINC37433061
REMARK  8 active torsions:
REMARK  status: ('A' for Active; 'I' for Inactive)
REMARK    1  A    between atoms: CG1_1  and  CB_2
REMARK    2  A    between atoms: CB_2  and  CG2_3
REMARK    3  A    between atoms: CB_2  and  CA_4
REMARK    4  A    between atoms: CA_4  and  C_6
REMARK    5  A    between atoms: CA_4  and  N_9
REMARK    6  A    between atoms: C_10  and  C_12
REMARK    7  A    between atoms: N_18  and  S_19
REMARK    8  A    between atoms: S_19  and  C_22
REMARK                            x       y       z     vdW  Elec       q    Type
REMARK                         _______ _______ _______ _____ _____    ______ ____
ROOT
ATOM      1  N   VAL A   1      -1.609  -1.901   0.529  0.00  0.00    -0.301 N 
ATOM      2  C   UNK A   0      -2.662  -2.690   0.237  0.00  0.00    +0.233 C 
ATOM      3  O   UNK A   0      -3.711  -2.194  -0.118  0.00  0.00    -0.274 OA
ATOM      4  H   VAL A   1      -0.770  -2.298   0.813  0.00  0.00    +0.150 HD
ENDROOT
BRANCH   2   5
ATOM      5  C   UNK A   0      -2.538  -4.187   0.352  0.00  0.00    +0.165 C 
ATOM      6  C   UNK A   0      -2.637  -4.819  -1.039  0.00  0.00    +0.030 C 
ATOM      7  C   UNK A   0      -2.650  -6.344  -0.903  0.00  0.00    +0.003 C 
ATOM      8  C   UNK A   0      -3.872  -6.774  -0.088  0.00  0.00    +0.017 C 
ATOM      9  C   UNK A   0      -3.786  -6.164   1.314  0.00  0.00    +0.110 C 
ATOM     10  N   UNK A   0      -3.626  -4.709   1.191  0.00  0.00    -0.170 NA
BRANCH  10  11
ATOM     11  S   UNK A   0      -4.654  -3.676   1.978  0.00  0.00    +0.030 S 
ATOM     12  O   UNK A   0      -5.174  -4.437   3.059  0.00  0.00    -0.158 OA
ATOM     13  O   UNK A   0      -3.880  -2.509   2.219  0.00  0.00    -0.158 OA
ATOM     14  C   UNK A   0      -5.965  -3.319   0.777  0.00  0.00    +0.215 C 
ENDBRANCH  10  11
ENDBRANCH   2   5
BRANCH   1  15
ATOM     15  CA  VAL A   1      -1.730  -0.446   0.417  0.00  0.00    +0.189 C 
BRANCH  15  17
ATOM     16  CG1 VAL A   1      -0.839   1.744   1.226  0.00  0.00    +0.009 C 
ATOM     17  CB  VAL A   1      -0.713   0.224   1.343  0.00  0.00    +0.014 C 
ATOM     18  CG2 VAL A   1      -0.983  -0.201   2.788  0.00  0.00    +0.009 C 
ENDBRANCH  15  17
BRANCH  15  19
ATOM     19  C   VAL A   1      -1.464  -0.028  -1.007  0.00  0.00    +0.376 C 
ATOM     20  O   VAL A   1      -1.022  -0.835  -1.807  0.00  0.00    -0.244 OA
ATOM     21  OXT VAL A   1      -1.691   1.117  -1.358  0.00  0.00    -0.244 OA
ENDBRANCH  15  19
ENDBRANCH   1  15
TORSDOF 5
