REMARK  Name = ZINC35773789
REMARK  5 active torsions:
REMARK  status: ('A' for Active; 'I' for Inactive)
REMARK    1  A    between atoms: C_1  and  C_2
REMARK    2  A    between atoms: C_4  and  N_19
REMARK    3  A    between atoms: C_6  and  S_8
REMARK    4  A    between atoms: S_8  and  N_11
REMARK    5  A    between atoms: C_16  and  C_18
REMARK                            x       y       z     vdW  Elec       q    Type
REMARK                         _______ _______ _______ _____ _____    ______ ____
ROOT
ATOM      1  C   UNL     1       1.492   0.829  -1.366  0.00  0.00    +0.044 C 
ATOM      2  C   UNL     1       1.044  -0.578  -1.062  0.00  0.00    -0.047 A 
ATOM      3  C   UNL     1       0.818  -1.467  -2.094  0.00  0.00    +0.026 A 
ATOM      4  C   UNL     1       0.405  -2.764  -1.813  0.00  0.00    +0.027 A 
ATOM      5  C   UNL     1       0.222  -3.160  -0.494  0.00  0.00    +0.051 A 
ATOM      6  C   UNL     1       0.450  -2.266   0.532  0.00  0.00    +0.107 A 
ATOM      7  C   UNL     1       0.866  -0.977   0.249  0.00  0.00    +0.032 A 
ENDROOT
BRANCH   6   8
ATOM      8  S   UNL     1       0.217  -2.768   2.205  0.00  0.00    +0.061 S 
ATOM      9  O   UNL     1      -0.197  -1.613   2.922  0.00  0.00    -0.153 OA
ATOM     10  O   UNL     1      -0.557  -3.959   2.168  0.00  0.00    -0.153 OA
BRANCH   8  11
ATOM     11  N   UNL     1       1.703  -3.188   2.802  0.00  0.00    -0.169 NA
ATOM     12  C   UNL     1       2.469  -2.261   3.651  0.00  0.00    +0.138 C 
ATOM     13  C   UNL     1       2.910  -3.013   4.912  0.00  0.00    +0.177 C 
ATOM     14  O   UNL     1       3.574  -4.220   4.532  0.00  0.00    -0.377 OA
ATOM     15  C   UNL     1       2.748  -5.142   3.816  0.00  0.00    +0.180 C 
ATOM     16  C   UNL     1       2.296  -4.502   2.504  0.00  0.00    +0.102 C 
ATOM     17  C   UNL     1       1.254  -5.395   1.828  0.00  0.00    +0.028 C 
ENDBRANCH   8  11
ENDBRANCH   6   8
BRANCH   4  18
ATOM     18  N   UNL     1       0.175  -3.666  -2.854  0.00  0.00    -0.358 N 
ATOM     19  H   UNL     1       0.303  -3.387  -3.774  0.00  0.00    +0.142 HD
ATOM     20  H   UNL     1      -0.114  -4.571  -2.657  0.00  0.00    +0.142 HD
ENDBRANCH   4  18
TORSDOF 3
