REMARK  Name = ZINC61951983
REMARK  5 active torsions:
REMARK  status: ('A' for Active; 'I' for Inactive)
REMARK    1  A    between atoms: C_1  and  N_2
REMARK    2  A    between atoms: N_2  and  C_3
REMARK    3  A    between atoms: C_6  and  C_9
REMARK    4  A    between atoms: N_10  and  O_11
REMARK    5  A    between atoms: C_13  and  C_15
REMARK                            x       y       z     vdW  Elec       q    Type
REMARK                         _______ _______ _______ _____ _____    ______ ____
ROOT
ATOM      1  C   UNL     1      -0.393  -0.860   1.125  0.00  0.00    +0.036 A 
ATOM      2  C   UNL     1       0.331  -2.047   1.166  0.00  0.00    +0.024 A 
ATOM      3  C   UNL     1       0.488  -2.718   2.359  0.00  0.00    +0.013 A 
ATOM      4  C   UNL     1      -0.078  -2.205   3.527  0.00  0.00    +0.018 A 
ATOM      5  C   UNL     1      -0.803  -1.013   3.482  0.00  0.00    +0.013 A 
ATOM      6  C   UNL     1      -0.954  -0.344   2.288  0.00  0.00    +0.024 A 
ENDROOT
BRANCH   4   7
ATOM      7  C   UNL     1       0.089  -2.924   4.809  0.00  0.00    +0.162 C 
ATOM      8  N   UNL     1       0.765  -4.035   4.849  0.00  0.00    -0.072 NA
ATOM      9  N   UNL     1      -0.473  -2.413   5.967  0.00  0.00    -0.340 N 
ATOM     10  H   UNL     1      -0.977  -1.585   5.937  0.00  0.00    +0.144 HD
ATOM     11  H   UNL     1      -0.364  -2.885   6.808  0.00  0.00    +0.144 HD
BRANCH   8  12
ATOM     12  O   UNL     1       0.925  -4.723   6.076  0.00  0.00    -0.408 OA
ATOM     13  H   UNL     1       1.442  -5.537   6.006  0.00  0.00    +0.328 HD
ENDBRANCH   8  12
ENDBRANCH   4   7
BRANCH   1  15
ATOM     14  C   UNL     1      -1.157   1.151  -0.104  0.00  0.00    +0.138 C 
ATOM     15  N   UNL     1      -0.551  -0.183  -0.085  0.00  0.00    -0.271 N 
ATOM     16  C   UNL     1      -0.146  -0.755  -1.236  0.00  0.00    +0.251 C 
ATOM     17  O   UNL     1       0.248  -1.905  -1.237  0.00  0.00    -0.270 OA
BRANCH  16  18
ATOM     18  C   UNL     1      -0.183   0.014  -2.497  0.00  0.00    +0.037 A 
ATOM     19  C   UNL     1      -0.143   1.410  -2.468  0.00  0.00    +0.014 A 
ATOM     20  C   UNL     1      -0.177   2.122  -3.648  0.00  0.00    +0.021 A 
ATOM     21  C   UNL     1      -0.251   1.457  -4.861  0.00  0.00    +0.041 A 
ATOM     22  C   UNL     1      -0.291   0.073  -4.896  0.00  0.00    +0.021 A 
ATOM     23  C   UNL     1      -0.252  -0.651  -3.723  0.00  0.00    +0.014 A 
ATOM     24 CL   UNL     1      -0.295   2.361  -6.342  0.00  0.00    -0.084 Cl
ENDBRANCH  16  18
ENDBRANCH   1  15
TORSDOF 4
