REMARK  Name = ZINC00436664
REMARK  3 active torsions:
REMARK  status: ('A' for Active; 'I' for Inactive)
REMARK    1  A    between atoms: C_6  and  C_7
REMARK    2  A    between atoms: C_9  and  C_11
REMARK    3  A    between atoms: C_9  and  C_14
REMARK                            x       y       z     vdW  Elec       q    Type
REMARK                         _______ _______ _______ _____ _____    ______ ____
ROOT
ATOM      1  C   UNL     1       1.283   0.833  -0.006  0.00  0.00    +0.200 C 
ATOM      2  C   UNL     1       0.002  -0.004   0.002  0.00  0.00    +0.251 C 
ATOM      3  O   UNL     1      -0.017   1.425   0.010  0.00  0.00    -0.341 OA
ENDROOT
BRANCH   1   9
ATOM      4  C   UNL     1       1.688   1.694   2.309  0.00  0.00    +0.009 A 
ATOM      5  C   UNL     1       2.429   1.740   3.475  0.00  0.00    +0.039 A 
ATOM      6  C   UNL     1       3.584   0.985   3.591  0.00  0.00    +0.123 A 
ATOM      7  C   UNL     1       3.993   0.181   2.541  0.00  0.00    +0.039 A 
ATOM      8  C   UNL     1       3.248   0.132   1.378  0.00  0.00    +0.009 A 
ATOM      9  C   UNL     1       2.094   0.886   1.263  0.00  0.00    -0.015 A 
ATOM     10  F   UNL     1       4.311   1.033   4.729  0.00  0.00    -0.205 F 
ENDBRANCH   1   9
BRANCH   2  11
ATOM     11  C   UNL     1      -0.362  -0.718   1.278  0.00  0.00    +0.255 C 
ATOM     12  O   UNL     1       0.506  -1.052   2.056  0.00  0.00    -0.272 OA
ATOM     13  N   UNL     1      -1.654  -0.986   1.555  0.00  0.00    -0.326 N 
ATOM     14  H   UNL     1      -2.349  -0.720   0.933  0.00  0.00    +0.145 HD
ATOM     15  H   UNL     1      -1.889  -1.446   2.376  0.00  0.00    +0.145 HD
ENDBRANCH   2  11
BRANCH   2  16
ATOM     16  C   UNL     1      -0.388  -0.705  -1.274  0.00  0.00    +0.255 C 
ATOM     17  O   UNL     1       0.465  -1.030  -2.072  0.00  0.00    -0.272 OA
ATOM     18  N   UNL     1      -1.685  -0.970  -1.528  0.00  0.00    -0.326 N 
ATOM     19  H   UNL     1      -2.367  -0.710  -0.889  0.00  0.00    +0.145 HD
ATOM     20  H   UNL     1      -1.936  -1.421  -2.349  0.00  0.00    +0.145 HD
ENDBRANCH   2  16
TORSDOF 3
