REMARK  Name = ZINC07298540
REMARK  10 active torsions:
REMARK  status: ('A' for Active; 'I' for Inactive)
REMARK    1  A    between atoms: C_1  and  C_2
REMARK    2  A    between atoms: C_5  and  C_8
REMARK    3  A    between atoms: C_11  and  S_14
REMARK    4  A    between atoms: N_12  and  N_13
REMARK    5  A    between atoms: S_14  and  C_15
REMARK    6  A    between atoms: C_15  and  C_17
REMARK    7  A    between atoms: C_15  and  C_18
REMARK    8  A    between atoms: N_20  and  C_21
REMARK    9  A    between atoms: C_22  and  C_28
REMARK   10  A    between atoms: C_26  and  C_27
REMARK                            x       y       z     vdW  Elec       q    Type
REMARK                         _______ _______ _______ _____ _____    ______ ____
ROOT
ATOM      1  C   UNL     1      -1.955  -4.793   0.023  0.00  0.00    +0.182 A 
ATOM      2  N   UNL     1      -1.293  -5.306  -0.987  0.00  0.00    -0.127 NA
ATOM      3  N   UNL     1      -1.003  -6.534  -0.744  0.00  0.00    -0.121 NA
ATOM      4  C   UNL     1      -1.462  -6.880   0.438  0.00  0.00    +0.209 A 
ATOM      5  N   UNL     1      -2.080  -5.784   0.970  0.00  0.00    -0.224 N 
ENDROOT
BRANCH   1  10
ATOM      6  C   UNL     1      -3.944   0.592   0.428  0.00  0.00    +0.044 C 
ATOM      7  C   UNL     1      -3.423  -0.818   0.322  0.00  0.00    -0.050 A 
ATOM      8  C   UNL     1      -2.490  -1.137  -0.649  0.00  0.00    +0.004 A 
ATOM      9  C   UNL     1      -2.010  -2.426  -0.751  0.00  0.00    +0.012 A 
ATOM     10  C   UNL     1      -2.466  -3.410   0.128  0.00  0.00    +0.021 A 
ATOM     11  C   UNL     1      -3.406  -3.082   1.105  0.00  0.00    +0.012 A 
ATOM     12  C   UNL     1      -3.875  -1.787   1.200  0.00  0.00    +0.004 A 
ENDBRANCH   1  10
BRANCH   5  13
ATOM     13  N   UNL     1      -2.694  -5.692   2.186  0.00  0.00    -0.295 N 
ATOM     14  H   UNL     1      -3.671  -5.938   2.118  0.00  0.00    +0.163 HD
ATOM     15  H   UNL     1      -2.225  -6.262   2.873  0.00  0.00    +0.163 HD
ENDBRANCH   5  13
BRANCH   4  16
ATOM     16  S   UNL     1      -1.306  -8.463   1.198  0.00  0.00    -0.072 S 
BRANCH  16  17
ATOM     17  C   UNL     1      -0.387  -9.445  -0.019  0.00  0.00    +0.137 C 
ATOM     18  C   UNL     1      -1.233  -9.614  -1.282  0.00  0.00    +0.029 C 
BRANCH  17  19
ATOM     19  C   UNL     1      -0.075 -10.800   0.562  0.00  0.00    +0.230 C 
ATOM     20  O   UNL     1      -0.773 -11.259   1.441  0.00  0.00    -0.274 OA
ATOM     21  N   UNL     1       0.981 -11.502   0.104  0.00  0.00    -0.284 N 
ATOM     22  H   UNL     1       1.507 -11.161  -0.635  0.00  0.00    +0.155 HD
BRANCH  21  23
ATOM     23  C   UNL     1       1.317 -12.725   0.697  0.00  0.00    +0.039 A 
ATOM     24  C   UNL     1       1.496 -12.806   2.071  0.00  0.00    -0.029 A 
ATOM     25  C   UNL     1       1.828 -14.014   2.653  0.00  0.00    +0.005 A 
ATOM     26  C   UNL     1       1.983 -15.141   1.868  0.00  0.00    +0.001 A 
ATOM     27  C   UNL     1       1.806 -15.064   0.498  0.00  0.00    +0.005 A 
ATOM     28  C   UNL     1       1.468 -13.860  -0.088  0.00  0.00    -0.029 A 
ATOM     29  C   UNL     1       1.269 -13.778  -1.580  0.00  0.00    +0.045 C 
ATOM     30  C   UNL     1       1.327 -11.577   2.928  0.00  0.00    +0.045 C 
ENDBRANCH  21  23
ENDBRANCH  17  19
ENDBRANCH  16  17
ENDBRANCH   4  16
TORSDOF 6
