REMARK  Name = ZINC04783951
REMARK  7 active torsions:
REMARK  status: ('A' for Active; 'I' for Inactive)
REMARK    1  A    between atoms: C_1  and  C_2
REMARK    2  A    between atoms: C_5  and  C_7
REMARK    3  A    between atoms: C_16  and  C_20
REMARK    4  A    between atoms: C_20  and  C_21
REMARK    5  A    between atoms: C_20  and  C_22
REMARK    6  A    between atoms: C_20  and  C_23
REMARK    7  A    between atoms: C_24  and  O_26
REMARK                            x       y       z     vdW  Elec       q    Type
REMARK                         _______ _______ _______ _____ _____    ______ ____
ROOT
ATOM      1  C   UNL     1       1.043  -4.062  -0.027  0.00  0.00    +0.230 C 
ATOM      2  N   UNL     1       2.357  -4.082   0.642  0.00  0.00    -0.313 N 
ATOM      3  C   UNL     1       2.340  -4.167   2.016  0.00  0.00    +0.080 A 
ATOM      4  C   UNL     1       1.261  -4.726   2.710  0.00  0.00    +0.068 A 
ATOM      5  C   UNL     1       1.380  -4.734   4.156  0.00  0.00    -0.023 A 
ATOM      6  C   UNL     1       2.531  -4.203   4.628  0.00  0.00    -0.004 A 
ATOM      7  S   UNL     1       3.426  -3.706   3.181  0.00  0.00    -0.078 S 
ATOM      8  C   UNL     1       2.942  -4.073   6.061  0.00  0.00    +0.046 C 
ATOM      9  C   UNL     1       2.029  -4.971   6.909  0.00  0.00    -0.000 C 
ATOM     10  C   UNL     1       0.574  -4.723   6.503  0.00  0.00    +0.009 C 
ATOM     11  C   UNL     1       0.322  -5.284   5.102  0.00  0.00    +0.037 C 
ATOM     12  C   UNL     1       0.127  -5.250   1.905  0.00  0.00    +0.220 C 
ATOM     13  N   UNL     1       0.089  -4.939   0.640  0.00  0.00    -0.222 NA
ATOM     14  H   UNL     1       3.187  -4.038   0.141  0.00  0.00    +0.149 HD
ENDROOT
BRANCH   1  19
ATOM     15  C   UNL     1      -0.018   1.503   0.010  0.00  0.00    +0.051 C 
ATOM     16  C   UNL     1       0.002  -0.004   0.002  0.00  0.00    -0.013 A 
ATOM     17  C   UNL     1      -1.039  -0.872   0.002  0.00  0.00    +0.011 A 
ATOM     18  C   UNL     1      -0.780  -2.230  -0.007  0.00  0.00    +0.015 A 
ATOM     19  C   UNL     1       0.507  -2.653  -0.016  0.00  0.00    +0.032 A 
ATOM     20  S   UNL     1       1.404  -1.109  -0.018  0.00  0.00    -0.095 S 
ENDBRANCH   1  19
BRANCH   9  21
ATOM     21  C   UNL     1       2.215  -4.636   8.391  0.00  0.00    -0.035 C 
ATOM     22  C   UNL     1       1.851  -3.170   8.632  0.00  0.00    +0.011 C 
ATOM     23  C   UNL     1       1.304  -5.532   9.233  0.00  0.00    +0.011 C 
ATOM     24  C   UNL     1       3.673  -4.873   8.789  0.00  0.00    +0.011 C 
ENDBRANCH   9  21
BRANCH  12  25
ATOM     25  O   UNL     1      -0.832  -6.023   2.467  0.00  0.00    -0.492 OA
ATOM     26  H   UNL     1      -1.520  -6.307   1.849  0.00  0.00    +0.294 HD
ENDBRANCH  12  25
TORSDOF 3
