REMARK  Name = ZINC36129182
REMARK  5 active torsions:
REMARK  status: ('A' for Active; 'I' for Inactive)
REMARK    1  A    between atoms: C_5  and  S_8
REMARK    2  A    between atoms: C_6  and  N_7
REMARK    3  A    between atoms: S_8  and  N_11
REMARK    4  A    between atoms: C_16  and  C_18
REMARK    5  A    between atoms: C_18  and  O_19
REMARK                            x       y       z     vdW  Elec       q    Type
REMARK                         _______ _______ _______ _____ _____    ______ ____
ROOT
ATOM      1  S   UNL     1       1.266  -2.497   0.034  0.00  0.00    +0.064 S 
ATOM      2  O   UNL     1       2.647  -2.300  -0.234  0.00  0.00    -0.153 OA
ATOM      3  O   UNL     1       0.292  -1.491  -0.207  0.00  0.00    -0.153 OA
ENDROOT
BRANCH   1   8
ATOM      4  C   UNL     1       1.145  -6.180  -1.594  0.00  0.00    +0.040 A 
ATOM      5  C   UNL     1      -0.012  -6.135  -2.349  0.00  0.00    +0.021 A 
ATOM      6  C   UNL     1      -0.777  -4.982  -2.376  0.00  0.00    +0.032 A 
ATOM      7  C   UNL     1      -0.386  -3.872  -1.648  0.00  0.00    +0.047 A 
ATOM      8  C   UNL     1       0.769  -3.912  -0.892  0.00  0.00    +0.140 A 
ATOM      9  C   UNL     1       1.540  -5.067  -0.863  0.00  0.00    +0.053 A 
ATOM     10 BR   UNL     1      -1.435  -2.299  -1.690  0.00  0.00    -0.048 Br
ATOM     11 BR   UNL     1      -0.550  -7.649  -3.346  0.00  0.00    -0.050 Br
BRANCH   9  12
ATOM     12  N   UNL     1       2.708  -5.110  -0.099  0.00  0.00    -0.356 N 
ATOM     13  H   UNL     1       3.284  -5.890  -0.137  0.00  0.00    +0.142 HD
ATOM     14  H   UNL     1       2.944  -4.361   0.470  0.00  0.00    +0.142 HD
ENDBRANCH   9  12
ENDBRANCH   1   8
BRANCH   1  15
ATOM     15  N   UNL     1       1.148  -2.896   1.637  0.00  0.00    -0.171 NA
ATOM     16  C   UNL     1       2.353  -3.026   2.467  0.00  0.00    +0.110 C 
ATOM     17  C   UNL     1       2.200  -2.132   3.702  0.00  0.00    +0.017 C 
ATOM     18  C   UNL     1       0.898  -2.486   4.425  0.00  0.00    +0.003 C 
ATOM     19  C   UNL     1      -0.289  -2.231   3.494  0.00  0.00    +0.023 C 
ATOM     20  C   UNL     1      -0.165  -3.120   2.258  0.00  0.00    +0.105 C 
BRANCH  20  21
ATOM     21  C   UNL     1      -1.271  -2.766   1.262  0.00  0.00    +0.176 C 
BRANCH  21  22
ATOM     22  O   UNL     1      -1.324  -1.348   1.092  0.00  0.00    -0.393 OA
ATOM     23  H   UNL     1      -2.062  -1.045   0.546  0.00  0.00    +0.209 HD
ENDBRANCH  21  22
ENDBRANCH  20  21
ENDBRANCH   1  15
TORSDOF 5
