REMARK  Name = ZINC06332113
REMARK  2 active torsions:
REMARK  status: ('A' for Active; 'I' for Inactive)
REMARK    1  A    between atoms: C_6  and  C_7
REMARK    2  A    between atoms: N_9  and  N_10
REMARK                            x       y       z     vdW  Elec       q    Type
REMARK                         _______ _______ _______ _____ _____    ______ ____
ROOT
ATOM      1  C   UNL     1      -1.498   4.727   0.035  0.00  0.00    +0.263 C 
ATOM      2  O   UNL     1      -2.674   4.418   0.040  0.00  0.00    -0.268 OA
ATOM      3  N   UNL     1      -0.550   3.769   0.025  0.00  0.00    -0.203 N 
ATOM      4  H   UNL     1       0.388   4.016   0.022  0.00  0.00    +0.178 HD
ENDROOT
BRANCH   3   5
ATOM      5  N   UNL     1      -0.919   2.418   0.020  0.00  0.00    -0.189 NA
ATOM      6  C   UNL     1      -0.018   1.508   0.010  0.00  0.00    +0.041 C 
ATOM      7  C   UNL     1       0.002  -0.004   0.002  0.00  0.00    +0.061 C 
ATOM      8  C   UNL     1       1.397   0.067   0.643  0.00  0.00    +0.026 C 
ATOM      9  C   UNL     1       1.493   1.473  -0.004  0.00  0.00    +0.046 C 
ATOM     10  C   UNL     1       2.084   1.131  -1.390  0.00  0.00    +0.037 C 
ATOM     11  C   UNL     1       2.811  -0.178  -1.188  0.00  0.00    -0.030 C 
ATOM     12  C   UNL     1       2.432  -0.769  -0.072  0.00  0.00    -0.027 C 
ENDBRANCH   3   5
BRANCH   1  18
ATOM     13  C   UNL     1       0.241   6.510   0.042  0.00  0.00    +0.014 A 
ATOM     14  C   UNL     1       0.598   7.842   0.042  0.00  0.00    +0.021 A 
ATOM     15  C   UNL     1      -0.379   8.824   0.052  0.00  0.00    +0.041 A 
ATOM     16  C   UNL     1      -1.719   8.475   0.057  0.00  0.00    +0.021 A 
ATOM     17  C   UNL     1      -2.089   7.147   0.051  0.00  0.00    +0.014 A 
ATOM     18  C   UNL     1      -1.109   6.152   0.041  0.00  0.00    +0.038 A 
ATOM     19 CL   UNL     1       0.079  10.498   0.058  0.00  0.00    -0.084 Cl
ENDBRANCH   1  18
TORSDOF 2
