REMARK  Name = ZINC39720139
REMARK  8 active torsions:
REMARK  status: ('A' for Active; 'I' for Inactive)
REMARK    1  A    between atoms: C_1  and  C_2
REMARK    2  A    between atoms: C_7  and  C_12
REMARK    3  A    between atoms: C_12  and  C_26
REMARK    4  A    between atoms: C_13  and  C_14
REMARK    5  A    between atoms: C_19  and  O_20
REMARK    6  A    between atoms: O_20  and  C_21
REMARK    7  A    between atoms: C_21  and  C_22
REMARK    8  A    between atoms: C_21  and  C_23
REMARK                            x       y       z     vdW  Elec       q    Type
REMARK                         _______ _______ _______ _____ _____    ______ ____
ROOT
ATOM      1  C   UNL     1       1.311  -5.032   2.027  0.00  0.00    +0.072 C 
ATOM      2  C   UNL     1       1.217  -6.213   2.672  0.00  0.00    +0.030 C 
ENDROOT
BRANCH   1   9
ATOM      3  C   UNL     1       0.147   1.377  -0.507  0.00  0.00    +0.044 C 
ATOM      4  C   UNL     1       0.045  -0.114  -0.312  0.00  0.00    -0.048 A 
ATOM      5  C   UNL     1      -0.255  -0.921  -1.424  0.00  0.00    +0.005 A 
ATOM      6  C   UNL     1      -0.366  -2.262  -1.339  0.00  0.00    +0.027 A 
ATOM      7  C   UNL     1      -0.168  -2.926  -0.043  0.00  0.00    +0.060 A 
ATOM      8  N   UNL     1      -0.212  -4.172   0.328  0.00  0.00    -0.359 N 
ATOM      9  C   UNL     1       0.073  -4.213   1.768  0.00  0.00    +0.216 C 
ATOM     10  N   UNL     1       0.289  -2.823   2.187  0.00  0.00    -0.359 N 
ATOM     11  C   UNL     1       0.149  -2.071   1.133  0.00  0.00    +0.061 A 
ATOM     12  C   UNL     1       0.250  -0.621   0.920  0.00  0.00    +0.030 A 
ATOM     13  H   UNL     1      -0.400  -4.935  -0.241  0.00  0.00    +0.162 HD
ATOM     14  H   UNL     1       0.498  -2.519   3.084  0.00  0.00    +0.162 HD
ENDBRANCH   1   9
BRANCH   2  15
ATOM     15  C   UNL     1      -0.105  -6.781   2.976  0.00  0.00    +0.020 A 
ATOM     16  C   UNL     1      -1.142  -6.689   2.041  0.00  0.00    +0.027 A 
ATOM     17  C   UNL     1      -2.378  -7.225   2.332  0.00  0.00    +0.020 A 
ATOM     18  C   UNL     1      -2.600  -7.854   3.547  0.00  0.00    +0.034 A 
ATOM     19  C   UNL     1      -1.584  -7.952   4.480  0.00  0.00    +0.061 A 
ATOM     20  C   UNL     1      -0.332  -7.424   4.202  0.00  0.00    +0.142 A 
ATOM     21 BR   UNL     1      -1.900  -8.812   6.133  0.00  0.00    -0.046 Br
ATOM     22 BR   UNL     1      -3.779  -7.099   1.068  0.00  0.00    -0.050 Br
BRANCH  20  23
ATOM     23  O   UNL     1       0.668  -7.524   5.115  0.00  0.00    -0.488 OA
BRANCH  23  24
ATOM     24  C   UNL     1       0.787  -6.464   6.066  0.00  0.00    +0.167 C 
ATOM     25  C   UNL     1       1.365  -7.013   7.372  0.00  0.00    +0.051 C 
ATOM     26  C   UNL     1       1.716  -5.383   5.511  0.00  0.00    +0.051 C 
ENDBRANCH  23  24
ENDBRANCH  20  23
ENDBRANCH   2  15
BRANCH   1  27
ATOM     27  C   UNL     1       2.589  -4.556   1.588  0.00  0.00    +0.099 C 
ATOM     28  N   UNL     1       3.602  -4.178   1.240  0.00  0.00    -0.191 NA
ENDBRANCH   1  27
TORSDOF 5
