REMARK  Name = ZINC25631724
REMARK  8 active torsions:
REMARK  status: ('A' for Active; 'I' for Inactive)
REMARK    1  A    between atoms: C_4  and  S_7
REMARK    2  A    between atoms: S_7  and  C_8
REMARK    3  A    between atoms: C_10  and  O_23
REMARK    4  A    between atoms: C_12  and  O_22
REMARK    5  A    between atoms: C_14  and  C_17
REMARK    6  A    between atoms: C_17  and  C_19
REMARK    7  A    between atoms: C_17  and  O_21
REMARK    8  A    between atoms: C_19  and  O_20
REMARK                            x       y       z     vdW  Elec       q    Type
REMARK                         _______ _______ _______ _____ _____    ______ ____
ROOT
ATOM      1  C   UNL     1      -1.968   2.402   0.623  0.00  0.00    +0.212 C 
ATOM      2  C   UNL     1      -0.788   1.610   1.237  0.00  0.00    +0.185 C 
ATOM      3  C   UNL     1      -0.013   1.086   0.008  0.00  0.00    +0.178 C 
ATOM      4  C   UNL     1      -0.811   1.623  -1.200  0.00  0.00    +0.181 C 
ATOM      5  O   UNL     1      -1.513   2.779  -0.694  0.00  0.00    -0.355 OA
ENDROOT
BRANCH   3   6
ATOM      6  O   UNL     1       1.319   1.603  -0.002  0.00  0.00    -0.386 OA
ATOM      7  H   UNL     1       2.010   1.329  -0.812  0.00  0.00    +0.210 HD
ENDBRANCH   3   6
BRANCH   2   8
ATOM      8  O   UNL     1      -1.271   0.521   2.026  0.00  0.00    -0.386 OA
ATOM      9  H   UNL     1      -0.561  -0.146   2.536  0.00  0.00    +0.210 HD
ENDBRANCH   2   8
BRANCH   1  10
ATOM     10  S   UNL     1      -2.320   3.878   1.617  0.00  0.00    -0.091 S 
BRANCH  10  14
ATOM     11  C   UNL     1      -6.101   5.561  -0.224  0.00  0.00    +0.000 A 
ATOM     12  C   UNL     1      -5.515   6.199   0.854  0.00  0.00    +0.001 A 
ATOM     13  C   UNL     1      -4.363   5.689   1.418  0.00  0.00    +0.015 A 
ATOM     14  C   UNL     1      -3.791   4.533   0.901  0.00  0.00    +0.010 A 
ATOM     15  C   UNL     1      -4.379   3.898  -0.187  0.00  0.00    +0.015 A 
ATOM     16  C   UNL     1      -5.535   4.410  -0.741  0.00  0.00    +0.001 A 
ENDBRANCH  10  14
ENDBRANCH   1  10
BRANCH   4  17
ATOM     17  C   UNL     1       0.139   2.028  -2.329  0.00  0.00    +0.171 C 
BRANCH  17  18
ATOM     18  O   UNL     1       0.900   0.892  -2.742  0.00  0.00    -0.387 OA
ATOM     19  H   UNL     1       1.641   0.990  -3.549  0.00  0.00    +0.210 HD
ENDBRANCH  17  18
BRANCH  17  20
ATOM     20  C   UNL     1      -0.672   2.557  -3.514  0.00  0.00    +0.189 C 
BRANCH  20  21
ATOM     21  O   UNL     1       0.217   3.043  -4.521  0.00  0.00    -0.392 OA
ATOM     22  H   UNL     1      -0.186   3.465  -5.454  0.00  0.00    +0.210 HD
ENDBRANCH  20  21
ENDBRANCH  17  20
ENDBRANCH   4  17
TORSDOF 8
