REMARK  Name = ZINC64542133
REMARK  3 active torsions:
REMARK  status: ('A' for Active; 'I' for Inactive)
REMARK    1  A    between atoms: C_2  and  C_7
REMARK    2  A    between atoms: C_5  and  N_6
REMARK    3  A    between atoms: C_13  and  C_15
REMARK                            x       y       z     vdW  Elec       q    Type
REMARK                         _______ _______ _______ _____ _____    ______ ____
ROOT
ATOM      1  C   UNL     1       1.752   3.247   0.002  0.00  0.00    +0.044 C 
ATOM      2  C   UNL     1       0.781   4.077   0.845  0.00  0.00    +0.029 C 
ATOM      3  C   UNL     1       1.253   5.534   0.874  0.00  0.00    +0.108 C 
ATOM      4  N   UNL     1       1.410   6.008  -0.508  0.00  0.00    -0.301 N 
ATOM      5  C   UNL     1       2.251   5.233  -1.429  0.00  0.00    +0.108 C 
ATOM      6  C   UNL     1       1.768   3.779  -1.433  0.00  0.00    +0.029 C 
ATOM      7  C   UNL     1       0.794   7.133  -0.922  0.00  0.00    +0.219 C 
ATOM      8  O   UNL     1       0.102   7.764  -0.152  0.00  0.00    -0.275 OA
ENDROOT
BRANCH   1  10
ATOM      9  C   UNL     1      -0.016   1.355   0.009  0.00  0.00    +0.092 A 
ATOM     10  C   UNL     1       1.310   1.807  -0.001  0.00  0.00    +0.089 A 
ATOM     11  N   UNL     1       2.096   0.765  -0.014  0.00  0.00    -0.081 NA
ATOM     12  O   UNL     1       1.287  -0.397  -0.012  0.00  0.00    -0.340 OA
ATOM     13  C   UNL     1       0.002  -0.004   0.002  0.00  0.00    +0.215 A 
BRANCH  13  14
ATOM     14  N   UNL     1      -1.104  -0.834   0.009  0.00  0.00    -0.327 N 
ATOM     15  H   UNL     1      -1.996  -0.453   0.019  0.00  0.00    +0.145 HD
ATOM     16  H   UNL     1      -0.987  -1.797   0.002  0.00  0.00    +0.145 HD
ENDBRANCH  13  14
ENDBRANCH   1  10
BRANCH   7  17
ATOM     17  C   UNL     1       0.965   7.606  -2.343  0.00  0.00    +0.075 C 
ATOM     18  C   UNL     1       2.446   7.948  -2.611  0.00  0.00    +0.013 C 
ATOM     19  C   UNL     1       2.387   9.189  -3.536  0.00  0.00    +0.001 C 
ATOM     20  C   UNL     1       1.190   9.987  -2.962  0.00  0.00    +0.001 C 
ATOM     21  C   UNL     1       0.167   8.903  -2.566  0.00  0.00    +0.013 C 
ENDBRANCH   7  17
TORSDOF 3
