REMARK  Name = ZINC42404658
REMARK  5 active torsions:
REMARK  status: ('A' for Active; 'I' for Inactive)
REMARK    1  A    between atoms: C_1  and  C_2
REMARK    2  A    between atoms: C_6  and  C_21
REMARK    3  A    between atoms: C_8  and  N_11
REMARK    4  A    between atoms: C_16  and  C_18
REMARK    5  A    between atoms: C_21  and  N_22
REMARK                            x       y       z     vdW  Elec       q    Type
REMARK                         _______ _______ _______ _____ _____    ______ ____
ROOT
ATOM      1  C   UNL     1       1.240   1.537  -1.637  0.00  0.00    +0.007 C 
ATOM      2  C   UNL     1       1.623   0.056  -1.640  0.00  0.00    -0.013 C 
ATOM      3  C   UNL     1       2.971  -0.121  -2.342  0.00  0.00    +0.003 C 
ATOM      4  C   UNL     1       4.041   0.681  -1.599  0.00  0.00    +0.003 C 
ATOM      5  C   UNL     1       4.147   0.178  -0.158  0.00  0.00    -0.011 C 
ATOM      6  C   UNL     1       2.799   0.354   0.544  0.00  0.00    +0.059 C 
ATOM      7  C   UNL     1       1.728  -0.447  -0.199  0.00  0.00    +0.022 C 
ENDROOT
BRANCH   6   8
ATOM      8  N   UNL     1       2.900  -0.129   1.927  0.00  0.00    -0.288 NA
ATOM      9  C   UNL     1       3.771  -1.308   2.011  0.00  0.00    +0.085 C 
ATOM     10  C   UNL     1       3.737  -1.869   3.434  0.00  0.00    +0.015 C 
ATOM     11  C   UNL     1       4.211  -0.792   4.413  0.00  0.00    +0.003 C 
ATOM     12  C   UNL     1       3.317   0.444   4.272  0.00  0.00    +0.028 C 
ATOM     13  C   UNL     1       3.363   0.938   2.825  0.00  0.00    +0.143 C 
BRANCH  13  14
ATOM     14  C   UNL     1       2.469   2.142   2.676  0.00  0.00    +0.228 C 
ATOM     15  O   UNL     1       1.310   2.000   2.350  0.00  0.00    -0.274 OA
ATOM     16  N   UNL     1       2.958   3.377   2.906  0.00  0.00    -0.328 N 
ATOM     17  H   UNL     1       3.886   3.490   3.167  0.00  0.00    +0.145 HD
ATOM     18  H   UNL     1       2.383   4.152   2.811  0.00  0.00    +0.145 HD
ENDBRANCH  13  14
ENDBRANCH   6   8
BRANCH   5  19
ATOM     19  C   UNL     1       5.217   0.979   0.585  0.00  0.00    -0.081 C 
BRANCH  19  20
ATOM     20  N   UNL     1       6.493   0.879  -0.136  0.00  0.00    +0.378 N 
ATOM     21  H   UNL     1       6.774  -0.089  -0.190  0.00  0.00    -0.090 HD
ATOM     22  H   UNL     1       6.382   1.249  -1.069  0.00  0.00    -0.090 HD
ATOM     23  H   UNL     1       7.199   1.407   0.354  0.00  0.00    -0.090 HD
ENDBRANCH  19  20
ENDBRANCH   5  19
TORSDOF 4
