REMARK  Name = ZINC53116779
REMARK  7 active torsions:
REMARK  status: ('A' for Active; 'I' for Inactive)
REMARK    1  A    between atoms: C_1  and  N_2
REMARK    2  A    between atoms: N_2  and  C_3
REMARK    3  A    between atoms: N_2  and  C_12
REMARK    4  A    between atoms: C_3  and  C_4
REMARK    5  A    between atoms: C_12  and  C_13
REMARK    6  A    between atoms: N_15  and  C_16
REMARK    7  A    between atoms: C_21  and  C_22
REMARK                            x       y       z     vdW  Elec       q    Type
REMARK                         _______ _______ _______ _____ _____    ______ ____
ROOT
ATOM      1  C   UNL     1      -0.104  -0.082  -2.425  0.00  0.00    +0.201 C 
ATOM      2  O   UNL     1      -1.134   0.546  -2.299  0.00  0.00    -0.278 OA
ATOM      3  N   UNL     1       0.336  -0.416  -3.654  0.00  0.00    -0.286 N 
ATOM      4  H   UNL     1       1.198  -0.846  -3.760  0.00  0.00    +0.155 HD
ENDROOT
BRANCH   3   5
ATOM      5  C   UNL     1      -0.449  -0.143  -4.772  0.00  0.00    +0.045 A 
ATOM      6  C   UNL     1      -1.827  -0.030  -4.647  0.00  0.00    +0.024 A 
ATOM      7  C   UNL     1      -2.602   0.239  -5.757  0.00  0.00    +0.002 A 
ATOM      8  C   UNL     1      -2.014   0.401  -7.001  0.00  0.00    +0.001 A 
ATOM      9  C   UNL     1      -0.648   0.293  -7.144  0.00  0.00    +0.015 A 
ATOM     10  C   UNL     1       0.150   0.026  -6.029  0.00  0.00    +0.058 A 
BRANCH  10  11
ATOM     11  C   UNL     1       1.614  -0.085  -6.175  0.00  0.00    +0.243 C 
ATOM     12  O   UNL     1       2.297  -0.411  -5.223  0.00  0.00    -0.270 OA
ATOM     13  N   UNL     1       2.195   0.176  -7.362  0.00  0.00    -0.325 N 
ATOM     14  H   UNL     1       1.651   0.436  -8.122  0.00  0.00    +0.145 HD
ATOM     15  H   UNL     1       3.158   0.104  -7.458  0.00  0.00    +0.145 HD
ENDBRANCH  10  11
ENDBRANCH   3   5
BRANCH   1  16
ATOM     16  C   UNL     1       0.685  -0.487  -1.206  0.00  0.00    +0.019 C 
BRANCH  16  18
ATOM     17  C   UNL     1      -0.002   1.462   0.012  0.00  0.00    -0.095 C 
ATOM     18  N   UNL     1       0.001  -0.007   0.002  0.00  0.00    +0.386 N 
ATOM     19  H   UNL     1      -0.950  -0.345   0.007  0.00  0.00    -0.081 HD
BRANCH  18  20
ATOM     20  C   UNL     1       0.704  -0.504   1.192  0.00  0.00    -0.043 C 
BRANCH  20  21
ATOM     21  C   UNL     1      -0.066  -0.115   2.429  0.00  0.00    -0.061 A 
ATOM     22  C   UNL     1       0.196   1.089   3.054  0.00  0.00    +0.021 A 
ATOM     23  C   UNL     1      -0.510   1.446   4.190  0.00  0.00    +0.043 A 
ATOM     24  C   UNL     1      -1.477   0.598   4.698  0.00  0.00    +0.040 A 
ATOM     25  C   UNL     1      -1.738  -0.607   4.071  0.00  0.00    +0.043 A 
ATOM     26  C   UNL     1      -1.036  -0.961   2.933  0.00  0.00    +0.021 A 
ATOM     27 CL   UNL     1      -2.952  -1.673   4.708  0.00  0.00    -0.083 Cl
ATOM     28 CL   UNL     1      -0.181   2.958   4.976  0.00  0.00    -0.083 Cl
ENDBRANCH  20  21
ENDBRANCH  18  20
ENDBRANCH  16  18
ENDBRANCH   1  16
TORSDOF 6
