REMARK  Name = ZINC00850171
REMARK  7 active torsions:
REMARK  status: ('A' for Active; 'I' for Inactive)
REMARK    1  A    between atoms: C_1  and  C_2
REMARK    2  A    between atoms: C_2  and  O_3
REMARK    3  A    between atoms: O_3  and  C_4
REMARK    4  A    between atoms: C_4  and  C_6
REMARK    5  A    between atoms: C_7  and  C_25
REMARK    6  A    between atoms: C_9  and  N_24
REMARK    7  A    between atoms: C_10  and  C_22
REMARK                            x       y       z     vdW  Elec       q    Type
REMARK                         _______ _______ _______ _____ _____    ______ ____
ROOT
ATOM      1  C   UNL     1       4.576   2.626   1.063  0.00  0.00    +0.104 C 
ATOM      2  C   UNL     1       4.127   3.894   1.238  0.00  0.00    +0.149 C 
ATOM      3  O   UNL     1       3.561   4.587   0.232  0.00  0.00    -0.440 OA
ATOM      4  C   UNL     1       3.747   4.200  -1.043  0.00  0.00    +0.199 C 
ATOM      5  C   UNL     1       4.174   2.950  -1.352  0.00  0.00    +0.110 C 
ATOM      6  C   UNL     1       4.458   1.948  -0.271  0.00  0.00    +0.148 C 
ATOM      7  C   UNL     1       3.380   0.894  -0.233  0.00  0.00    -0.000 A 
ATOM      8  C   UNL     1       2.023   0.945  -0.003  0.00  0.00    +0.022 A 
ATOM      9  C   UNL     1       1.273  -0.219  -0.032  0.00  0.00    +0.018 A 
ATOM     10  C   UNL     1       1.891  -1.430  -0.292  0.00  0.00    +0.017 A 
ATOM     11  C   UNL     1       3.250  -1.483  -0.523  0.00  0.00    +0.025 A 
ATOM     12  C   UNL     1       4.011  -0.316  -0.496  0.00  0.00    +0.038 A 
ATOM     13  N   UNL     1       5.378  -0.114  -0.697  0.00  0.00    -0.284 N 
ATOM     14  C   UNL     1       5.721   1.182  -0.583  0.00  0.00    +0.238 C 
ATOM     15  O   UNL     1       6.835   1.646  -0.708  0.00  0.00    -0.274 OA
ATOM     16 BR   UNL     1      -0.592  -0.153   0.275  0.00  0.00    -0.050 Br
ATOM     17  H   UNL     1       6.007  -0.825  -0.894  0.00  0.00    +0.155 HD
ENDROOT
BRANCH   2  18
ATOM     18  C   UNL     1       4.261   4.529   2.563  0.00  0.00    +0.018 A 
ATOM     19  C   UNL     1       3.537   4.038   3.653  0.00  0.00    +0.011 A 
ATOM     20  C   UNL     1       3.672   4.633   4.890  0.00  0.00    +0.001 A 
ATOM     21  C   UNL     1       4.512   5.721   5.051  0.00  0.00    +0.000 A 
ATOM     22  C   UNL     1       5.227   6.216   3.974  0.00  0.00    +0.001 A 
ATOM     23  C   UNL     1       5.107   5.628   2.733  0.00  0.00    +0.011 A 
ENDBRANCH   2  18
BRANCH   4  24
ATOM     24  N   UNL     1       3.498   5.092  -2.056  0.00  0.00    -0.328 N 
ATOM     25  H   UNL     1       3.629   4.826  -2.980  0.00  0.00    +0.145 HD
ATOM     26  H   UNL     1       3.192   5.989  -1.849  0.00  0.00    +0.145 HD
ENDBRANCH   4  24
BRANCH   1  27
ATOM     27  C   UNL     1       5.160   1.937   2.147  0.00  0.00    +0.340 C 
ATOM     28  O   UNL     1       5.368   2.518   3.196  0.00  0.00    -0.245 OA
BRANCH  27  29
ATOM     29  O   UNL     1       5.487   0.634   2.020  0.00  0.00    -0.462 OA
BRANCH  29  31
ATOM     30  C   UNL     1       6.376  -1.464   2.827  0.00  0.00    +0.048 C 
ATOM     31  C   UNL     1       6.075  -0.001   3.158  0.00  0.00    +0.229 C 
ENDBRANCH  29  31
ENDBRANCH  27  29
ENDBRANCH   1  27
BRANCH   5  32
ATOM     32  C   UNL     1       4.357   2.583  -2.724  0.00  0.00    +0.102 C 
ATOM     33  N   UNL     1       4.502   2.292  -3.812  0.00  0.00    -0.191 NA
ENDBRANCH   5  32
TORSDOF 6
