REMARK  Name = ZINC52125870
REMARK  3 active torsions:
REMARK  status: ('A' for Active; 'I' for Inactive)
REMARK    1  A    between atoms: C_5  and  C_7
REMARK    2  A    between atoms: C_7  and  N_8
REMARK    3  A    between atoms: C_13  and  N_20
REMARK                            x       y       z     vdW  Elec       q    Type
REMARK                         _______ _______ _______ _____ _____    ______ ____
ROOT
ATOM      1  N   UNL     1       1.488  -2.679   1.333  0.00  0.00    -0.163 N 
ATOM      2  C   UNL     1       2.682  -2.844   1.922  0.00  0.00    +0.268 C 
ATOM      3  O   UNL     1       3.711  -2.577   1.333  0.00  0.00    -0.268 OA
ATOM      4  C   UNL     1       2.711  -3.355   3.299  0.00  0.00    +0.067 A 
ATOM      5  C   UNL     1       3.805  -3.619   4.140  0.00  0.00    +0.037 A 
ATOM      6  C   UNL     1       3.601  -4.105   5.418  0.00  0.00    +0.025 A 
ATOM      7  C   UNL     1       2.316  -4.340   5.893  0.00  0.00    +0.024 A 
ATOM      8  C   UNL     1       1.229  -4.084   5.072  0.00  0.00    +0.031 A 
ATOM      9  C   UNL     1       1.430  -3.604   3.808  0.00  0.00    +0.121 A 
ATOM     10  S   UNL     1       0.357  -3.148   2.474  0.00  0.00    +0.078 S 
ATOM     11  O   UNL     1      -0.268  -4.333   2.000  0.00  0.00    -0.150 OA
ATOM     12  O   UNL     1      -0.362  -1.988   2.871  0.00  0.00    -0.150 OA
ENDROOT
BRANCH   6  13
ATOM     13  N   UNL     1       4.699  -4.363   6.243  0.00  0.00    -0.358 N 
ATOM     14  H   UNL     1       5.598  -4.201   5.917  0.00  0.00    +0.142 HD
ATOM     15  H   UNL     1       4.562  -4.704   7.140  0.00  0.00    +0.142 HD
ENDBRANCH   6  13
BRANCH   1  16
ATOM     16  C   UNL     1       1.228  -2.186  -0.022  0.00  0.00    +0.172 C 
BRANCH  16  21
ATOM     17  C   UNL     1      -0.017   1.378   0.010  0.00  0.00    +0.000 A 
ATOM     18  C   UNL     1       1.171   2.087   0.002  0.00  0.00    +0.003 A 
ATOM     19  C   UNL     1       2.377   1.414  -0.013  0.00  0.00    +0.038 A 
ATOM     20  C   UNL     1       2.397   0.029  -0.021  0.00  0.00    +0.128 A 
ATOM     21  C   UNL     1       1.208  -0.679  -0.013  0.00  0.00    +0.007 A 
ATOM     22  C   UNL     1       0.002  -0.004   0.002  0.00  0.00    +0.008 A 
ATOM     23  F   UNL     1       3.577  -0.630  -0.036  0.00  0.00    -0.205 F 
ENDBRANCH  16  21
ENDBRANCH   1  16
TORSDOF 3
