REMARK  Name = ZINC05725949
REMARK  8 active torsions:
REMARK  status: ('A' for Active; 'I' for Inactive)
REMARK    1  A    between atoms: C_1  and  C_2
REMARK    2  A    between atoms: C_2  and  C_26
REMARK    3  A    between atoms: C_3  and  C_4
REMARK    4  A    between atoms: C_3  and  N_17
REMARK    5  A    between atoms: N_6  and  N_7
REMARK    6  A    between atoms: C_8  and  C_9
REMARK    7  A    between atoms: C_12  and  O_16
REMARK    8  A    between atoms: C_18  and  C_20
REMARK                            x       y       z     vdW  Elec       q    Type
REMARK                         _______ _______ _______ _____ _____    ______ ____
ROOT
ATOM      1  C   UNL     1       3.587   6.207   0.372  0.00  0.00    +0.277 C 
ATOM      2  O   UNL     1       2.601   5.529   0.591  0.00  0.00    -0.267 OA
ATOM      3  N   UNL     1       4.764   5.613   0.091  0.00  0.00    -0.202 N 
ATOM      4  H   UNL     1       5.537   6.152  -0.137  0.00  0.00    +0.178 HD
ENDROOT
BRANCH   1   7
ATOM      5  C   UNL     1       2.225   9.763   0.741  0.00  0.00    +0.041 C 
ATOM      6  C   UNL     1       2.307   8.269   0.565  0.00  0.00    -0.049 C 
ATOM      7  C   UNL     1       3.495   7.678   0.414  0.00  0.00    +0.097 C 
ATOM      8  C   UNL     1       1.047   7.441   0.561  0.00  0.00    +0.041 C 
BRANCH   7   9
ATOM      9  N   UNL     1       4.653   8.456   0.294  0.00  0.00    -0.277 N 
ATOM     10  C   UNL     1       5.655   8.314   1.185  0.00  0.00    +0.248 C 
ATOM     11  O   UNL     1       5.595   7.446   2.034  0.00  0.00    -0.270 OA
ATOM     12  H   UNL     1       4.735   9.096  -0.429  0.00  0.00    +0.155 HD
BRANCH  10  13
ATOM     13  C   UNL     1       6.826   9.214   1.129  0.00  0.00    +0.037 A 
ATOM     14  C   UNL     1       6.900  10.208   0.152  0.00  0.00    +0.013 A 
ATOM     15  C   UNL     1       7.994  11.048   0.109  0.00  0.00    +0.001 A 
ATOM     16  C   UNL     1       9.021  10.900   1.025  0.00  0.00    +0.000 A 
ATOM     17  C   UNL     1       8.955   9.913   1.993  0.00  0.00    +0.001 A 
ATOM     18  C   UNL     1       7.865   9.070   2.050  0.00  0.00    +0.013 A 
ENDBRANCH  10  13
ENDBRANCH   7   9
ENDBRANCH   1   7
BRANCH   3  19
ATOM     19  N   UNL     1       4.870   4.216   0.129  0.00  0.00    -0.187 NA
ATOM     20  C   UNL     1       6.004   3.644  -0.141  0.00  0.00    +0.138 C 
BRANCH  20  21
ATOM     21  C   UNL     1       6.116   2.175  -0.102  0.00  0.00    -0.004 A 
ATOM     22  C   UNL     1       5.003   1.396   0.228  0.00  0.00    +0.013 A 
ATOM     23  C   UNL     1       5.112   0.023   0.264  0.00  0.00    +0.047 A 
ATOM     24  C   UNL     1       6.326  -0.588  -0.026  0.00  0.00    +0.131 A 
ATOM     25  C   UNL     1       7.435   0.182  -0.353  0.00  0.00    +0.060 A 
ATOM     26  C   UNL     1       7.335   1.557  -0.392  0.00  0.00    +0.028 A 
ATOM     27 BR   UNL     1       9.084  -0.656  -0.745  0.00  0.00    -0.047 Br
BRANCH  24  28
ATOM     28  O   UNL     1       6.429  -1.942   0.011  0.00  0.00    -0.506 OA
ATOM     29  H   UNL     1       6.682  -2.294   0.876  0.00  0.00    +0.292 HD
ENDBRANCH  24  28
ENDBRANCH  20  21
ENDBRANCH   3  19
TORSDOF 6
