REMARK  Name = ZINC39504980
REMARK  5 active torsions:
REMARK  status: ('A' for Active; 'I' for Inactive)
REMARK    1  A    between atoms: C_4  and  O_7
REMARK    2  A    between atoms: O_7  and  S_8
REMARK    3  A    between atoms: S_8  and  C_11
REMARK    4  A    between atoms: C_18  and  O_23
REMARK    5  A    between atoms: N_21  and  O_22
REMARK                            x       y       z     vdW  Elec       q    Type
REMARK                         _______ _______ _______ _____ _____    ______ ____
ROOT
ATOM      1  C   UNL     1       3.008  -2.422   1.830  0.00  0.00    +0.173 C 
ATOM      2  C   UNL     1       1.504  -2.087   1.663  0.00  0.00    +0.032 C 
ATOM      3  C   UNL     1       0.789  -3.060   2.625  0.00  0.00    +0.027 C 
ATOM      4  C   UNL     1       1.821  -3.452   3.689  0.00  0.00    +0.051 C 
ATOM      5  C   UNL     1       3.131  -2.720   3.347  0.00  0.00    +0.054 C 
ATOM      6  C   UNL     1       2.052  -4.972   3.674  0.00  0.00    +0.057 C 
ATOM      7  C   UNL     1       2.240  -5.308   5.178  0.00  0.00    +0.133 C 
ATOM      8  C   UNL     1       1.260  -4.312   5.848  0.00  0.00    +0.146 C 
ATOM      9  N   UNL     1       1.355  -3.081   5.032  0.00  0.00    -0.182 NA
ENDROOT
BRANCH   1  10
ATOM     10  S   UNL     1       4.038  -1.003   1.368  0.00  0.00    +0.124 S 
ATOM     11  O   UNL     1       5.412  -1.364   1.402  0.00  0.00    -0.136 OA
ATOM     12  O   UNL     1       3.581   0.170   2.027  0.00  0.00    -0.136 OA
BRANCH  10  13
ATOM     13  O   UNL     1       3.736  -0.763  -0.104  0.00  0.00    -0.346 OA
BRANCH  13  17
ATOM     14  C   UNL     1       5.452  -3.528  -2.641  0.00  0.00    +0.000 A 
ATOM     15  C   UNL     1       4.217  -3.785  -2.074  0.00  0.00    +0.004 A 
ATOM     16  C   UNL     1       3.641  -2.861  -1.224  0.00  0.00    +0.048 A 
ATOM     17  C   UNL     1       4.302  -1.674  -0.940  0.00  0.00    +0.156 A 
ATOM     18  C   UNL     1       5.540  -1.419  -1.510  0.00  0.00    +0.048 A 
ATOM     19  C   UNL     1       6.112  -2.346  -2.360  0.00  0.00    +0.004 A 
ENDBRANCH  13  17
ENDBRANCH  10  13
ENDBRANCH   1  10
BRANCH   9  20
ATOM     20  O   UNL     1       0.065  -2.393   4.967  0.00  0.00    -0.312 OA
ATOM     21  H   UNL     1      -0.283  -2.129   5.830  0.00  0.00    +0.237 HD
ENDBRANCH   9  20
BRANCH   7  22
ATOM     22  O   UNL     1       1.863  -6.659   5.452  0.00  0.00    -0.390 OA
ATOM     23  H   UNL     1       1.963  -6.916   6.379  0.00  0.00    +0.210 HD
ENDBRANCH   7  22
TORSDOF 5
