REMARK  Name = ZINC51151471
REMARK  5 active torsions:
REMARK  status: ('A' for Active; 'I' for Inactive)
REMARK    1  A    between atoms: C_1  and  C_2
REMARK    2  A    between atoms: C_3  and  C_21
REMARK    3  A    between atoms: C_7  and  N_19
REMARK    4  A    between atoms: C_9  and  C_11
REMARK    5  A    between atoms: N_19  and  N_20
REMARK                            x       y       z     vdW  Elec       q    Type
REMARK                         _______ _______ _______ _____ _____    ______ ____
ROOT
ATOM      1  C   UNL     1      -1.298   1.426   0.452  0.00  0.00    +0.045 C 
ATOM      2  C   UNL     1      -1.157  -0.074   0.401  0.00  0.00    -0.028 A 
ATOM      3  C   UNL     1      -1.709  -0.774  -0.601  0.00  0.00    -0.008 A 
ATOM      4  S   UNL     1      -1.273  -2.461  -0.221  0.00  0.00    -0.073 S 
ATOM      5  C   UNL     1      -0.361  -2.180   1.274  0.00  0.00    +0.114 A 
ATOM      6  C   UNL     1      -0.416  -0.776   1.434  0.00  0.00    +0.052 A 
ATOM      7  C   UNL     1       0.255  -0.263   2.579  0.00  0.00    +0.145 A 
ATOM      8  N   UNL     1       0.873  -1.099   3.395  0.00  0.00    -0.211 NA
ATOM      9  C   UNL     1       0.889  -2.411   3.183  0.00  0.00    +0.163 A 
ATOM     10  N   UNL     1       0.272  -2.946   2.137  0.00  0.00    -0.220 NA
ATOM     11  C   UNL     1      -2.507  -0.258  -1.770  0.00  0.00    +0.052 C 
ENDROOT
BRANCH   9  12
ATOM     12  C   UNL     1       1.601  -3.293   4.138  0.00  0.00    +0.022 A 
ATOM     13  C   UNL     1       2.241  -2.748   5.250  0.00  0.00    +0.014 A 
ATOM     14  C   UNL     1       2.901  -3.572   6.138  0.00  0.00    +0.042 A 
ATOM     15  C   UNL     1       2.931  -4.940   5.925  0.00  0.00    +0.158 A 
ATOM     16  C   UNL     1       2.297  -5.489   4.819  0.00  0.00    +0.159 A 
ATOM     17  C   UNL     1       1.628  -4.671   3.929  0.00  0.00    +0.053 A 
ATOM     18  F   UNL     1       2.330  -6.824   4.616  0.00  0.00    -0.202 F 
ATOM     19  F   UNL     1       3.580  -5.743   6.796  0.00  0.00    -0.202 F 
ENDBRANCH   9  12
BRANCH   7  20
ATOM     20  N   UNL     1       0.262   1.096   2.834  0.00  0.00    -0.267 N 
ATOM     21  H   UNL     1       0.110   1.726   2.112  0.00  0.00    +0.167 HD
BRANCH  20  22
ATOM     22  N   UNL     1       0.481   1.552   4.103  0.00  0.00    -0.255 NA
ATOM     23  H   UNL     1       1.354   1.200   4.468  0.00  0.00    +0.140 HD
ATOM     24  H   UNL     1       0.457   2.560   4.135  0.00  0.00    +0.140 HD
ENDBRANCH  20  22
ENDBRANCH   7  20
TORSDOF 3
