REMARK  Name = ZINC37350114
REMARK  4 active torsions:
REMARK  status: ('A' for Active; 'I' for Inactive)
REMARK    1  A    between atoms: C_6  and  C_7
REMARK    2  A    between atoms: C_8  and  C_13
REMARK    3  A    between atoms: C_11  and  N_12
REMARK    4  A    between atoms: C_13  and  C_14
REMARK                            x       y       z     vdW  Elec       q    Type
REMARK                         _______ _______ _______ _____ _____    ______ ____
ROOT
ATOM      1  C   UNL     1      -1.270  -0.765   0.010  0.00  0.00    +0.066 A 
ATOM      2  C   UNL     1      -1.732  -1.608   1.044  0.00  0.00    +0.094 A 
ATOM      3  N   UNL     1      -2.885  -2.097   0.685  0.00  0.00    -0.080 NA
ATOM      4  O   UNL     1      -3.215  -1.591  -0.594  0.00  0.00    -0.339 OA
ATOM      5  C   UNL     1      -2.223  -0.775  -0.990  0.00  0.00    +0.223 A 
ENDROOT
BRANCH   1  11
ATOM      6  C   UNL     1      -0.017   1.390   0.010  0.00  0.00    +0.010 A 
ATOM      7  C   UNL     1       1.170   2.094   0.002  0.00  0.00    +0.016 A 
ATOM      8  C   UNL     1       2.378   1.418  -0.013  0.00  0.00    +0.018 A 
ATOM      9  C   UNL     1       2.403   0.034  -0.021  0.00  0.00    +0.016 A 
ATOM     10  C   UNL     1       1.222  -0.680  -0.014  0.00  0.00    +0.010 A 
ATOM     11  C   UNL     1       0.002  -0.004   0.002  0.00  0.00    -0.011 A 
ATOM     12 BR   UNL     1       4.001   2.389  -0.023  0.00  0.00    -0.050 Br
ENDBRANCH   1  11
BRANCH   5  13
ATOM     13  N   UNL     1      -2.165  -0.079  -2.179  0.00  0.00    -0.327 N 
ATOM     14  H   UNL     1      -1.401   0.485  -2.374  0.00  0.00    +0.145 HD
ATOM     15  H   UNL     1      -2.889  -0.153  -2.820  0.00  0.00    +0.145 HD
ENDBRANCH   5  13
BRANCH   2  16
ATOM     16  C   UNL     1      -1.016  -1.893   2.339  0.00  0.00    +0.063 C 
BRANCH  16  17
ATOM     17  C   UNL     1      -1.440  -0.868   3.393  0.00  0.00    -0.005 C 
ATOM     18  C   UNL     1      -2.927  -1.044   3.706  0.00  0.00    +0.004 C 
ATOM     19  C   UNL     1      -3.351  -0.020   4.760  0.00  0.00    +0.000 C 
ATOM     20  C   UNL     1      -2.533  -0.231   6.035  0.00  0.00    +0.000 C 
ATOM     21  C   UNL     1      -1.046  -0.055   5.722  0.00  0.00    +0.000 C 
ATOM     22  C   UNL     1      -0.621  -1.080   4.668  0.00  0.00    +0.004 C 
ENDBRANCH  16  17
ENDBRANCH   2  16
TORSDOF 4
