REMARK  Name = ZINC21230408
REMARK  8 active torsions:
REMARK  status: ('A' for Active; 'I' for Inactive)
REMARK    1  A    between atoms: C_1  and  C_2
REMARK    2  A    between atoms: C_5  and  N_8
REMARK    3  A    between atoms: C_17  and  S_18
REMARK    4  A    between atoms: S_18  and  C_19
REMARK    5  A    between atoms: C_19  and  C_21
REMARK    6  A    between atoms: C_19  and  C_24
REMARK    7  A    between atoms: C_21  and  C_22
REMARK    8  A    between atoms: C_21  and  C_23
REMARK                            x       y       z     vdW  Elec       q    Type
REMARK                         _______ _______ _______ _____ _____    ______ ____
ROOT
ATOM      1  N   UNL     1      -1.139   4.761  -4.008  0.00  0.00    -0.255 N 
ATOM      2  C   UNL     1      -1.114   4.025  -2.872  0.00  0.00    +0.268 A 
ATOM      3  O   UNL     1      -1.360   2.831  -2.870  0.00  0.00    -0.267 OA
ATOM      4  C   UNL     1      -0.781   4.735  -1.673  0.00  0.00    +0.076 A 
ATOM      5  C   UNL     1      -0.688   4.181  -0.332  0.00  0.00    -0.023 A 
ATOM      6  C   UNL     1      -0.357   5.040   0.658  0.00  0.00    -0.004 A 
ATOM      7  S   UNL     1      -0.155   6.614  -0.139  0.00  0.00    -0.073 S 
ATOM      8  C   UNL     1      -0.514   6.118  -1.794  0.00  0.00    +0.117 A 
ATOM      9  N   UNL     1      -0.555   6.784  -2.942  0.00  0.00    -0.215 NA
ATOM     10  C   UNL     1      -0.867   6.097  -4.032  0.00  0.00    +0.178 A 
ATOM     11  C   UNL     1      -0.197   4.729   2.114  0.00  0.00    +0.043 C 
ATOM     12  C   UNL     1      -0.828   3.356   2.389  0.00  0.00    +0.005 C 
ATOM     13  C   UNL     1      -0.329   2.368   1.331  0.00  0.00    +0.005 C 
ATOM     14  C   UNL     1      -0.945   2.708  -0.026  0.00  0.00    +0.037 C 
ENDROOT
BRANCH   1  19
ATOM     15  C   UNL     1      -2.433   2.170  -8.888  0.00  0.00    +0.044 C 
ATOM     16  C   UNL     1      -2.089   2.858  -7.592  0.00  0.00    -0.050 A 
ATOM     17  C   UNL     1      -0.808   2.767  -7.081  0.00  0.00    +0.005 A 
ATOM     18  C   UNL     1      -0.490   3.397  -5.894  0.00  0.00    +0.026 A 
ATOM     19  C   UNL     1      -1.459   4.121  -5.213  0.00  0.00    +0.052 A 
ATOM     20  C   UNL     1      -2.746   4.206  -5.725  0.00  0.00    +0.026 A 
ATOM     21  C   UNL     1      -3.057   3.579  -6.916  0.00  0.00    +0.005 A 
ENDBRANCH   1  19
BRANCH  10  22
ATOM     22  S   UNL     1      -0.932   6.945  -5.575  0.00  0.00    -0.074 S 
BRANCH  22  23
ATOM     23  C   UNL     1      -0.691   8.647  -5.009  0.00  0.00    +0.143 C 
BRANCH  23  24
ATOM     24  C   UNL     1      -1.901   9.094  -4.230  0.00  0.00    +0.234 C 
ATOM     25  O   UNL     1      -2.957   8.515  -4.366  0.00  0.00    -0.274 OA
ATOM     26  N   UNL     1      -1.809  10.137  -3.382  0.00  0.00    -0.239 N 
ATOM     27  C   UNL     1      -2.891  10.537  -2.685  0.00  0.00    +0.303 C 
ATOM     28  O   UNL     1      -3.950   9.956  -2.821  0.00  0.00    -0.253 OA
ATOM     29  N   UNL     1      -2.799  11.580  -1.836  0.00  0.00    -0.313 N 
ATOM     30  H   UNL     1      -0.850  10.663  -3.258  0.00  0.00    +0.159 HD
ATOM     31  H   UNL     1      -3.682  11.906  -1.268  0.00  0.00    +0.146 HD
ATOM     32  H   UNL     1      -1.840  12.105  -1.713  0.00  0.00    +0.146 HD
ENDBRANCH  23  24
BRANCH  23  33
ATOM     33  C   UNL     1      -0.496   9.564  -6.219  0.00  0.00    +0.005 C 
ATOM     34  C   UNL     1       0.742   9.120  -7.001  0.00  0.00    +0.009 C 
ATOM     35  C   UNL     1      -1.727   9.484  -7.123  0.00  0.00    +0.009 C 
ENDBRANCH  23  33
ENDBRANCH  22  23
ENDBRANCH  10  22
TORSDOF 5
