REMARK  Name = ZINC35792421
REMARK  7 active torsions:
REMARK  status: ('A' for Active; 'I' for Inactive)
REMARK    1  A    between atoms: C_1  and  C_2
REMARK    2  A    between atoms: C_2  and  C_3
REMARK    3  A    between atoms: C_2  and  C_4
REMARK    4  A    between atoms: C_7  and  C_10
REMARK    5  A    between atoms: C_10  and  N_11
REMARK    6  A    between atoms: C_20  and  C_22
REMARK    7  A    between atoms: C_27  and  O_28
REMARK                            x       y       z     vdW  Elec       q    Type
REMARK                         _______ _______ _______ _____ _____    ______ ____
ROOT
ATOM      1  N   UNL     1      -6.387  -0.864  -0.530  0.00  0.00    +0.391 N 
ATOM      2  C   UNL     1      -5.830  -0.647  -1.867  0.00  0.00    -0.075 C 
ATOM      3  C   UNL     1      -6.737   0.252  -2.698  0.00  0.00    +0.003 C 
ATOM      4  C   UNL     1      -7.416   1.283  -1.792  0.00  0.00    +0.119 C 
ATOM      5  N   UNL     1      -8.663   0.712  -1.270  0.00  0.00    -0.352 N 
ATOM      6  C   UNL     1      -9.877   1.327  -1.224  0.00  0.00    +0.086 A 
ATOM      7  C   UNL     1     -10.759   0.478  -0.658  0.00  0.00    +0.019 A 
ATOM      8  C   UNL     1     -10.063  -0.709  -0.349  0.00  0.00    +0.021 A 
ATOM      9  C   UNL     1      -8.785  -0.541  -0.741  0.00  0.00    +0.010 A 
ATOM     10  C   UNL     1      -7.677  -1.560  -0.628  0.00  0.00    +0.014 C 
ATOM     11  H   UNL     1      -6.521   0.027  -0.075  0.00  0.00    -0.080 HD
ENDROOT
BRANCH  10  12
ATOM     12  C   UNL     1      -7.891  -2.401   0.604  0.00  0.00    -0.012 A 
ATOM     13  C   UNL     1      -7.833  -1.820   1.856  0.00  0.00    +0.026 A 
ATOM     14  C   UNL     1      -8.029  -2.592   2.987  0.00  0.00    +0.041 A 
ATOM     15  C   UNL     1      -8.283  -3.947   2.867  0.00  0.00    +0.023 A 
ATOM     16  C   UNL     1      -8.341  -4.532   1.617  0.00  0.00    +0.047 A 
ATOM     17  C   UNL     1      -8.151  -3.758   0.481  0.00  0.00    +0.119 A 
ATOM     18 CL   UNL     1      -7.956  -1.860   4.560  0.00  0.00    -0.084 Cl
BRANCH  17  19
ATOM     19  O   UNL     1      -8.214  -4.330  -0.751  0.00  0.00    -0.507 OA
ATOM     20  H   UNL     1      -7.366  -4.665  -1.073  0.00  0.00    +0.292 HD
ENDBRANCH  17  19
ENDBRANCH  10  12
BRANCH   1  21
ATOM     21  C   UNL     1      -5.454  -1.679   0.260  0.00  0.00    -0.042 C 
BRANCH  21  25
ATOM     22  C   UNL     1      -1.781   0.445   0.762  0.00  0.00    -0.045 A 
ATOM     23  C   UNL     1      -2.798   0.594   1.687  0.00  0.00    +0.004 A 
ATOM     24  C   UNL     1      -3.986  -0.093   1.524  0.00  0.00    +0.002 A 
ATOM     25  C   UNL     1      -4.158  -0.929   0.437  0.00  0.00    -0.064 A 
ATOM     26  C   UNL     1      -3.142  -1.077  -0.488  0.00  0.00    +0.002 A 
ATOM     27  C   UNL     1      -1.955  -0.387  -0.328  0.00  0.00    +0.004 A 
BRANCH  22  29
ATOM     28  C   UNL     1      -0.764   2.699   0.951  0.00  0.00    +0.012 C 
ATOM     29  C   UNL     1      -0.486   1.194   0.939  0.00  0.00    +0.013 C 
ATOM     30  C   UNL     1       0.163   0.785   2.263  0.00  0.00    +0.012 C 
ENDBRANCH  22  29
ENDBRANCH  21  25
ENDBRANCH   1  21
TORSDOF 5
