REMARK  Name = ZINC08790900
REMARK  7 active torsions:
REMARK  status: ('A' for Active; 'I' for Inactive)
REMARK    1  A    between atoms: CB_1  and  CA_2
REMARK    2  A    between atoms: CA_2  and  C_4
REMARK    3  A    between atoms: CA_2  and  N_15
REMARK    4  A    between atoms: CA_10  and  C_12
REMARK    5  A    between atoms: C_16  and  C_18
REMARK    6  A    between atoms: C_20  and  C_33
REMARK    7  A    between atoms: C_20  and  C_34
REMARK                            x       y       z     vdW  Elec       q    Type
REMARK                         _______ _______ _______ _____ _____    ______ ____
ROOT
ATOM      1  N   PRO A   1      -1.372  -0.511   0.012  0.00  0.00    -0.303 N 
ATOM      2  C   UNK A   0      -2.051  -0.643  -1.145  0.00  0.00    +0.236 C 
ATOM      3  O   UNK A   0      -1.524  -0.341  -2.194  0.00  0.00    -0.274 OA
ATOM      4  H   PRO A   1      -1.794  -0.752   0.852  0.00  0.00    +0.149 HD
ENDROOT
BRANCH   2   5
ATOM      5  C   UNK A   0      -3.465  -1.164  -1.134  0.00  0.00    +0.179 C 
ATOM      6  C   UNK A   0      -3.425  -2.700  -0.948  0.00  0.00    +0.040 C 
ATOM      7  S   UNK A   0      -4.075  -3.286  -2.573  0.00  0.00    -0.125 S 
ATOM      8  C   UNK A   0      -3.862  -1.697  -3.483  0.00  0.00    +0.167 C 
ATOM      9  N   UNK A   0      -4.128  -0.745  -2.369  0.00  0.00    -0.269 N 
ATOM     10  C   UNK A   0      -4.935   0.206  -2.888  0.00  0.00    +0.249 C 
ATOM     11  O   UNK A   0      -5.071   1.329  -2.442  0.00  0.00    -0.270 OA
ATOM     12  C   UNK A   0      -5.627  -0.326  -4.078  0.00  0.00    +0.043 A 
ATOM     13  C   UNK A   0      -4.977  -1.511  -4.471  0.00  0.00    -0.005 A 
ATOM     14  C   UNK A   0      -5.413  -2.230  -5.560  0.00  0.00    +0.007 A 
ATOM     15  C   UNK A   0      -6.491  -1.778  -6.303  0.00  0.00    +0.000 A 
ATOM     16  C   UNK A   0      -7.131  -0.602  -5.956  0.00  0.00    +0.001 A 
ATOM     17  C   UNK A   0      -6.706   0.138  -4.830  0.00  0.00    +0.013 A 
ATOM     18  C   UNK A   0      -1.993  -3.188  -0.721  0.00  0.00    +0.025 C 
ATOM     19  C   UNK A   0      -4.339  -3.137   0.198  0.00  0.00    +0.025 C 
ENDBRANCH   2   5
BRANCH   1  21
ATOM     20  CB  PRO A   1      -0.019   1.526   0.010  0.00  0.00    +0.038 C 
ATOM     21  CA  PRO A   1       0.002  -0.004   0.002  0.00  0.00    +0.156 C 
BRANCH  21  22
ATOM     22  C   PRO A   1       0.731  -0.503   1.223  0.00  0.00    +0.236 C 
ATOM     23  O   PRO A   1       0.159  -1.213   2.023  0.00  0.00    -0.274 OA
ATOM     24  N   PRO A   1       2.019  -0.161   1.426  0.00  0.00    -0.286 N 
ATOM     25  CD  PRO A   1       2.830   0.696   0.542  0.00  0.00    +0.109 C 
ATOM     26  CG  PRO A   1       4.296   0.290   0.832  0.00  0.00    +0.021 C 
ATOM     27  CB  PRO A   1       4.250   0.029   2.361  0.00  0.00    +0.035 C 
ATOM     28  CA  PRO A   1       2.846  -0.576   2.568  0.00  0.00    +0.189 C 
BRANCH  28  29
ATOM     29  C   PRO A   1       2.246  -0.058   3.850  0.00  0.00    +0.376 C 
ATOM     30  O   PRO A   1       2.676  -0.443   4.924  0.00  0.00    -0.244 OA
ATOM     31  OXT PRO A   1       1.330   0.747   3.813  0.00  0.00    -0.244 OA
ENDBRANCH  28  29
ENDBRANCH  21  22
ENDBRANCH   1  21
TORSDOF 4
