REMARK  Name = ZINC33121228
REMARK  12 active torsions:
REMARK  status: ('A' for Active; 'I' for Inactive)
REMARK    1  A    between atoms: C_1  and  C_2
REMARK    2  A    between atoms: C_2  and  C_3
REMARK    3  A    between atoms: C_2  and  N_4
REMARK    4  A    between atoms: C_5  and  C_7
REMARK    5  A    between atoms: C_9  and  N_19
REMARK    6  A    between atoms: C_12  and  N_13
REMARK    7  A    between atoms: N_19  and  S_20
REMARK    8  A    between atoms: S_20  and  C_23
REMARK    9  A    between atoms: C_26  and  C_29
REMARK   10  A    between atoms: C_29  and  C_30
REMARK   11  A    between atoms: C_29  and  C_31
REMARK   12  A    between atoms: C_29  and  C_32
REMARK                            x       y       z     vdW  Elec       q    Type
REMARK                         _______ _______ _______ _____ _____    ______ ____
ROOT
ATOM      1  C   UNL     1       2.341   4.276  -1.112  0.00  0.00    +0.059 A 
ATOM      2  C   UNL     1       1.164   3.550  -0.910  0.00  0.00    +0.039 A 
ATOM      3  C   UNL     1       1.194   2.382  -0.168  0.00  0.00    +0.049 A 
ATOM      4  C   UNL     1       2.391   1.932   0.381  0.00  0.00    +0.026 A 
ATOM      5  C   UNL     1       3.558   2.639   0.182  0.00  0.00    +0.026 A 
ATOM      6  C   UNL     1       3.545   3.813  -0.560  0.00  0.00    +0.042 A 
ENDROOT
BRANCH   6   7
ATOM      7  N   UNL     1       4.722   4.529  -0.755  0.00  0.00    -0.333 N 
ATOM      8  C   UNL     1       5.317   4.924   0.529  0.00  0.00    +0.086 C 
ATOM      9  C   UNL     1       6.563   5.774   0.271  0.00  0.00    -0.063 C 
ATOM     10  N   UNL     1       7.521   5.004  -0.534  0.00  0.00    +0.381 N 
ATOM     11  C   UNL     1       6.926   4.608  -1.819  0.00  0.00    -0.063 C 
ATOM     12  C   UNL     1       5.680   3.758  -1.560  0.00  0.00    +0.086 C 
ATOM     13  H   UNL     1       8.412   5.617  -0.731  0.00  0.00    -0.086 HD
ATOM     14  H   UNL     1       7.814   4.096   0.014  0.00  0.00    -0.086 HD
ENDBRANCH   6   7
BRANCH   1  16
ATOM     15  N   UNL     1       1.184   5.904  -2.522  0.00  0.00    -0.309 N 
ATOM     16  C   UNL     1       2.317   5.521  -1.900  0.00  0.00    +0.246 C 
ATOM     17  O   UNL     1       3.320   6.203  -1.990  0.00  0.00    -0.270 OA
ATOM     18  H   UNL     1       0.277   5.287  -2.441  0.00  0.00    +0.149 HD
BRANCH  15  20
ATOM     19  C   UNL     1       0.063   7.052  -4.367  0.00  0.00    +0.027 C 
ATOM     20  C   UNL     1       1.161   7.141  -3.305  0.00  0.00    +0.067 C 
ATOM     21  C   UNL     1       0.879   8.326  -2.379  0.00  0.00    +0.027 C 
ENDBRANCH  15  20
ENDBRANCH   1  16
BRANCH   3  22
ATOM     22  N   UNL     1       0.015   1.654   0.035  0.00  0.00    -0.216 N 
ATOM     23  H   UNL     1      -0.911   2.175   0.320  0.00  0.00    +0.174 HD
BRANCH  22  24
ATOM     24  S   UNL     1       0.015   0.009  -0.153  0.00  0.00    +0.072 S 
ATOM     25  O   UNL     1       1.095  -0.489   0.624  0.00  0.00    -0.150 OA
ATOM     26  O   UNL     1      -1.325  -0.422   0.041  0.00  0.00    -0.150 OA
BRANCH  24  27
ATOM     27  C   UNL     1       0.411  -0.323  -1.838  0.00  0.00    +0.109 A 
ATOM     28  C   UNL     1      -0.585  -0.315  -2.796  0.00  0.00    +0.029 A 
ATOM     29  C   UNL     1      -0.274  -0.571  -4.119  0.00  0.00    +0.006 A 
ATOM     30  C   UNL     1       1.032  -0.843  -4.481  0.00  0.00    -0.042 A 
ATOM     31  C   UNL     1       2.027  -0.855  -3.522  0.00  0.00    +0.006 A 
ATOM     32  C   UNL     1       1.717  -0.595  -2.200  0.00  0.00    +0.029 A 
BRANCH  30  33
ATOM     33  C   UNL     1       1.371  -1.127  -5.922  0.00  0.00    -0.013 C 
ATOM     34  C   UNL     1       1.979  -2.526  -6.037  0.00  0.00    +0.015 C 
ATOM     35  C   UNL     1       0.099  -1.052  -6.769  0.00  0.00    +0.015 C 
ATOM     36  C   UNL     1       2.379  -0.090  -6.422  0.00  0.00    +0.015 C 
ENDBRANCH  30  33
ENDBRANCH  24  27
ENDBRANCH  22  24
ENDBRANCH   3  22
TORSDOF 7
