REMARK  Name = ZINC40761253
REMARK  5 active torsions:
REMARK  status: ('A' for Active; 'I' for Inactive)
REMARK    1  A    between atoms: C_3  and  N_9
REMARK    2  A    between atoms: C_11  and  N_23
REMARK    3  A    between atoms: C_12  and  N_16
REMARK    4  A    between atoms: N_16  and  C_17
REMARK    5  A    between atoms: C_17  and  C_18
REMARK                            x       y       z     vdW  Elec       q    Type
REMARK                         _______ _______ _______ _____ _____    ______ ____
ROOT
ATOM      1  N   UNL     1       3.583   2.126  -0.021  0.00  0.00    -0.297 N 
ATOM      2  C   UNL     1       3.565   3.513  -0.119  0.00  0.00    +0.149 A 
ATOM      3  C   UNL     1       4.757   4.231  -0.238  0.00  0.00    +0.105 A 
ATOM      4  C   UNL     1       4.683   5.621  -0.334  0.00  0.00    +0.145 A 
ATOM      5  N   UNL     1       3.487   6.206  -0.307  0.00  0.00    -0.219 NA
ATOM      6  C   UNL     1       2.386   5.492  -0.193  0.00  0.00    +0.225 A 
ATOM      7  N   UNL     1       2.412   4.177  -0.106  0.00  0.00    -0.219 NA
ATOM      8  H   UNL     1       4.428   1.656   0.052  0.00  0.00    +0.154 HD
ENDROOT
BRANCH   1  11
ATOM      9  C   UNL     1       0.066   1.243  -0.630  0.00  0.00    +0.003 A 
ATOM     10  C   UNL     1       1.251   1.953  -0.624  0.00  0.00    +0.025 A 
ATOM     11  C   UNL     1       2.382   1.410  -0.028  0.00  0.00    +0.052 A 
ATOM     12  C   UNL     1       2.318   0.152   0.561  0.00  0.00    +0.080 A 
ATOM     13  C   UNL     1       1.129  -0.553   0.552  0.00  0.00    +0.061 A 
ATOM     14  C   UNL     1       0.004  -0.008  -0.043  0.00  0.00    +0.021 A 
ATOM     15 CL   UNL     1       1.046  -2.124   1.286  0.00  0.00    -0.082 Cl
ATOM     16 CL   UNL     1       3.729  -0.531   1.306  0.00  0.00    -0.080 Cl
ENDBRANCH   1  11
BRANCH   3  17
ATOM     17  N   UNL     1       5.997   3.571  -0.262  0.00  0.00    -0.353 N 
ATOM     18  H   UNL     1       6.033   2.604  -0.194  0.00  0.00    +0.143 HD
ATOM     19  H   UNL     1       6.817   4.083  -0.345  0.00  0.00    +0.143 HD
ENDBRANCH   3  17
BRANCH   4  20
ATOM     20  N   UNL     1       5.839   6.383  -0.454  0.00  0.00    -0.320 N 
ATOM     21  H   UNL     1       6.706   5.949  -0.472  0.00  0.00    +0.148 HD
BRANCH  20  22
ATOM     22  C   UNL     1       5.747   7.842  -0.553  0.00  0.00    +0.177 C 
BRANCH  22  23
ATOM     23  C   UNL     1       7.132   8.425  -0.674  0.00  0.00    +0.122 A 
ATOM     24  C   UNL     1       7.791   8.656  -1.823  0.00  0.00    +0.046 A 
ATOM     25  C   UNL     1       9.046   9.204  -1.473  0.00  0.00    +0.041 A 
ATOM     26  C   UNL     1       9.079   9.275  -0.130  0.00  0.00    +0.195 A 
ATOM     27  O   UNL     1       7.915   8.807   0.348  0.00  0.00    -0.466 OA
ENDBRANCH  22  23
ENDBRANCH  20  22
ENDBRANCH   4  20
TORSDOF 5
