REMARK  Name = ZINC64074573
REMARK  5 active torsions:
REMARK  status: ('A' for Active; 'I' for Inactive)
REMARK    1  A    between atoms: C_1  and  C_2
REMARK    2  A    between atoms: C_10  and  C_12
REMARK    3  A    between atoms: C_21  and  C_23
REMARK    4  A    between atoms: N_25  and  C_26
REMARK    5  A    between atoms: C_26  and  C_27
REMARK                            x       y       z     vdW  Elec       q    Type
REMARK                         _______ _______ _______ _____ _____    ______ ____
ROOT
ATOM      1  C   UNL     1      -1.064  -0.588   2.072  0.00  0.00    +0.242 C 
ATOM      2  O   UNL     1      -2.009  -1.346   2.126  0.00  0.00    -0.273 OA
ATOM      3  N   UNL     1      -1.060   0.538   2.814  0.00  0.00    -0.299 N 
ATOM      4  C   UNL     1       0.008   1.532   2.648  0.00  0.00    +0.108 C 
ATOM      5  C   UNL     1      -0.626   2.884   2.298  0.00  0.00    +0.026 C 
ATOM      6  C   UNL     1      -1.720   3.197   3.324  0.00  0.00    -0.015 C 
ATOM      7  C   UNL     1      -2.800   2.120   3.469  0.00  0.00    +0.026 C 
ATOM      8  C   UNL     1      -2.127   0.786   3.792  0.00  0.00    +0.108 C 
ATOM      9  C   UNL     1      -1.316   3.970   4.579  0.00  0.00    +0.021 C 
ATOM     10  C   UNL     1      -2.144   4.655   3.489  0.00  0.00    +0.082 C 
ENDROOT
BRANCH   1  20
ATOM     11  C   UNL     1      -0.411   1.019  -0.652  0.00  0.00    +0.042 C 
ATOM     12  C   UNL     1      -0.164  -0.406  -0.227  0.00  0.00    -0.033 C 
ATOM     13  C   UNL     1      -0.132  -1.498  -1.025  0.00  0.00    +0.001 A 
ATOM     14  C   UNL     1      -0.312  -1.679  -2.470  0.00  0.00    +0.030 A 
ATOM     15  C   UNL     1      -0.223  -2.924  -2.992  0.00  0.00    +0.042 A 
ATOM     16  C   UNL     1       0.037  -4.044  -2.187  0.00  0.00    +0.022 A 
ATOM     17  C   UNL     1       0.214  -3.956  -0.852  0.00  0.00    +0.027 A 
ATOM     18  C   UNL     1       0.141  -2.695  -0.198  0.00  0.00    +0.043 A 
ATOM     19  N   UNL     1       0.274  -2.356   1.062  0.00  0.00    -0.370 N 
ATOM     20  C   UNL     1       0.106  -0.903   1.175  0.00  0.00    +0.193 C 
ATOM     21 CL   UNL     1      -0.435  -3.143  -4.701  0.00  0.00    -0.084 Cl
ATOM     22  H   UNL     1       0.457  -2.964   1.795  0.00  0.00    +0.161 HD
ENDBRANCH   1  20
BRANCH  10  23
ATOM     23  C   UNL     1      -1.451   5.683   2.631  0.00  0.00    +0.217 C 
ATOM     24  O   UNL     1      -0.499   6.295   3.067  0.00  0.00    -0.275 OA
ATOM     25  N   UNL     1      -1.889   5.921   1.379  0.00  0.00    -0.310 N 
ATOM     26  H   UNL     1      -2.650   5.432   1.030  0.00  0.00    +0.149 HD
BRANCH  25  27
ATOM     27  C   UNL     1      -1.215   6.920   0.545  0.00  0.00    +0.146 C 
BRANCH  27  28
ATOM     28  C   UNL     1      -1.895   6.994  -0.798  0.00  0.00    +0.007 A 
ATOM     29  C   UNL     1      -2.924   7.784  -1.192  0.00  0.00    +0.013 A 
ATOM     30  C   UNL     1      -3.390   7.680  -2.489  0.00  0.00    +0.008 A 
ATOM     31  C   UNL     1      -2.804   6.792  -3.329  0.00  0.00    +0.045 A 
ATOM     32  S   UNL     1      -1.549   6.069  -2.285  0.00  0.00    -0.100 S 
ENDBRANCH  27  28
ENDBRANCH  25  27
ENDBRANCH  10  23
TORSDOF 4
