REMARK  Name = ZINC37325392
REMARK  3 active torsions:
REMARK  status: ('A' for Active; 'I' for Inactive)
REMARK    1  A    between atoms: C_6  and  N_7
REMARK    2  A    between atoms: N_8  and  S_9
REMARK    3  A    between atoms: S_9  and  C_12
REMARK                            x       y       z     vdW  Elec       q    Type
REMARK                         _______ _______ _______ _____ _____    ______ ____
ROOT
ATOM      1  S   UNL     1       4.952   1.200  -0.039  0.00  0.00    +0.103 S 
ATOM      2  O   UNL     1       5.036   0.513   1.202  0.00  0.00    -0.146 OA
ATOM      3  O   UNL     1       5.012   0.526  -1.289  0.00  0.00    -0.146 OA
ENDROOT
BRANCH   1   4
ATOM      4  C   UNL     1       6.251   2.390  -0.046  0.00  0.00    +0.149 A 
ATOM      5  C   UNL     1       6.745   2.868  -1.246  0.00  0.00    +0.070 A 
ATOM      6  C   UNL     1       7.765   3.803  -1.251  0.00  0.00    +0.037 A 
ATOM      7  C   UNL     1       8.290   4.260  -0.056  0.00  0.00    +0.021 A 
ATOM      8  C   UNL     1       7.796   3.782   1.144  0.00  0.00    +0.037 A 
ATOM      9  C   UNL     1       6.772   2.851   1.149  0.00  0.00    +0.070 A 
ATOM     10 CL   UNL     1       6.147   2.258   2.656  0.00  0.00    -0.081 Cl
ATOM     11 BR   UNL     1       9.684   5.537  -0.064  0.00  0.00    -0.050 Br
ATOM     12 CL   UNL     1       6.087   2.293  -2.746  0.00  0.00    -0.081 Cl
ENDBRANCH   1   4
BRANCH   1  19
ATOM     13  C   UNL     1      -0.017   1.405   0.010  0.00  0.00    +0.028 A 
ATOM     14  C   UNL     1       1.154   2.093   0.002  0.00  0.00    +0.049 A 
ATOM     15  C   UNL     1       2.377   1.383  -0.013  0.00  0.00    +0.153 A 
ATOM     16  N   UNL     1       2.366   0.010  -0.021  0.00  0.00    -0.343 N 
ATOM     17  C   UNL     1       1.181  -0.671  -0.013  0.00  0.00    +0.107 A 
ATOM     18  C   UNL     1       0.002  -0.004   0.002  0.00  0.00    +0.041 A 
ATOM     19  N   UNL     1       3.522   2.036  -0.021  0.00  0.00    -0.111 NA
ATOM     20  H   UNL     1       3.204  -0.479  -0.031  0.00  0.00    +0.167 HD
BRANCH  18  21
ATOM     21  N   UNL     1      -1.206  -0.720   0.010  0.00  0.00    -0.357 N 
ATOM     22  H   UNL     1      -2.051  -0.244   0.020  0.00  0.00    +0.142 HD
ATOM     23  H   UNL     1      -1.195  -1.690   0.004  0.00  0.00    +0.142 HD
ENDBRANCH  18  21
ENDBRANCH   1  19
TORSDOF 3
