REMARK  Name = ZINC37353090
REMARK  4 active torsions:
REMARK  status: ('A' for Active; 'I' for Inactive)
REMARK    1  A    between atoms: C_1  and  C_2
REMARK    2  A    between atoms: C_3  and  C_21
REMARK    3  A    between atoms: N_4  and  C_12
REMARK    4  A    between atoms: C_7  and  N_11
REMARK                            x       y       z     vdW  Elec       q    Type
REMARK                         _______ _______ _______ _____ _____    ______ ____
ROOT
ATOM      1  C   UNL     1      -0.018   1.503   0.010  0.00  0.00    +0.046 C 
ATOM      2  C   UNL     1       0.002  -0.004   0.002  0.00  0.00    -0.017 A 
ATOM      3  C   UNL     1       0.008  -0.798  -1.081  0.00  0.00    +0.026 A 
ATOM      4  N   UNL     1       0.028  -2.115  -0.692  0.00  0.00    -0.295 N 
ATOM      5  C   UNL     1       0.035  -2.198   0.675  0.00  0.00    +0.151 A 
ATOM      6  C   UNL     1       0.026  -0.881   1.171  0.00  0.00    +0.062 A 
ATOM      7  C   UNL     1       0.037  -0.686   2.561  0.00  0.00    +0.129 A 
ATOM      8  N   UNL     1       0.059  -1.757   3.348  0.00  0.00    -0.220 NA
ATOM      9  C   UNL     1       0.071  -2.976   2.840  0.00  0.00    +0.225 A 
ATOM     10  N   UNL     1       0.052  -3.207   1.545  0.00  0.00    -0.217 NA
ATOM     11  C   UNL     1      -0.005  -0.317  -2.509  0.00  0.00    +0.064 C 
ENDROOT
BRANCH   4  12
ATOM     12  C   UNL     1       0.039  -3.212  -1.566  0.00  0.00    +0.085 A 
ATOM     13  C   UNL     1      -1.158  -3.769  -1.998  0.00  0.00    +0.067 A 
ATOM     14  C   UNL     1      -1.144  -4.850  -2.859  0.00  0.00    +0.037 A 
ATOM     15  C   UNL     1       0.060  -5.378  -3.290  0.00  0.00    +0.021 A 
ATOM     16  C   UNL     1       1.254  -4.825  -2.861  0.00  0.00    +0.037 A 
ATOM     17  C   UNL     1       1.246  -3.740  -2.005  0.00  0.00    +0.067 A 
ATOM     18 CL   UNL     1       2.744  -3.042  -1.472  0.00  0.00    -0.081 Cl
ATOM     19 BR   UNL     1       0.075  -6.857  -4.468  0.00  0.00    -0.050 Br
ATOM     20 CL   UNL     1      -2.670  -3.108  -1.458  0.00  0.00    -0.081 Cl
ENDBRANCH   4  12
BRANCH   7  21
ATOM     21  N   UNL     1       0.025   0.589   3.097  0.00  0.00    -0.343 N 
ATOM     22  H   UNL     1       0.009   1.362   2.511  0.00  0.00    +0.144 HD
ATOM     23  H   UNL     1       0.033   0.710   4.059  0.00  0.00    +0.144 HD
ENDBRANCH   7  21
TORSDOF 2
