REMARK  Name = ZINC48950363
REMARK  4 active torsions:
REMARK  status: ('A' for Active; 'I' for Inactive)
REMARK    1  A    between atoms: C_1  and  N_2
REMARK    2  A    between atoms: N_5  and  N_6
REMARK    3  A    between atoms: C_7  and  C_9
REMARK    4  A    between atoms: C_10  and  C_11
REMARK                            x       y       z     vdW  Elec       q    Type
REMARK                         _______ _______ _______ _____ _____    ______ ____
ROOT
ATOM      1  N   UNL     1       1.251  -3.050   0.919  0.00  0.00    -0.230 N 
ATOM      2  C   UNL     1       0.936  -4.347   0.730  0.00  0.00    +0.253 C 
ATOM      3  O   UNL     1       1.646  -5.051   0.036  0.00  0.00    -0.269 OA
ATOM      4  H   UNL     1       0.685  -2.490   1.472  0.00  0.00    +0.173 HD
ENDROOT
BRANCH   1   9
ATOM      5  C   UNL     1       2.265   0.973   1.479  0.00  0.00    +0.129 C 
ATOM      6  N   UNL     1       1.923  -0.436   1.274  0.00  0.00    -0.301 N 
ATOM      7  C   UNL     1       2.710  -1.216   0.505  0.00  0.00    +0.316 C 
ATOM      8  O   UNL     1       3.703  -0.748  -0.018  0.00  0.00    -0.251 OA
ATOM      9  N   UNL     1       2.395  -2.512   0.316  0.00  0.00    -0.218 N 
ATOM     10  H   UNL     1       1.131  -0.809   1.691  0.00  0.00    +0.150 HD
ATOM     11  H   UNL     1       2.961  -3.073  -0.237  0.00  0.00    +0.174 HD
ENDBRANCH   1   9
BRANCH   2  12
ATOM     12  C   UNL     1      -0.259  -4.910   1.360  0.00  0.00    +0.069 C 
ATOM     13  C   UNL     1      -0.650  -6.166   1.064  0.00  0.00    +0.014 C 
BRANCH  13  14
ATOM     14  C   UNL     1      -0.015  -6.891  -0.048  0.00  0.00    -0.006 A 
ATOM     15  C   UNL     1       0.196  -6.253  -1.274  0.00  0.00    +0.011 A 
ATOM     16  C   UNL     1       0.791  -6.938  -2.311  0.00  0.00    +0.020 A 
ATOM     17  C   UNL     1       1.182  -8.257  -2.141  0.00  0.00    +0.042 A 
ATOM     18  C   UNL     1       0.977  -8.897  -0.930  0.00  0.00    +0.040 A 
ATOM     19  C   UNL     1       0.387  -8.222   0.119  0.00  0.00    +0.049 A 
ATOM     20 CL   UNL     1       0.137  -9.023   1.639  0.00  0.00    -0.083 Cl
ATOM     21 CL   UNL     1       1.930  -9.111  -3.454  0.00  0.00    -0.083 Cl
ENDBRANCH  13  14
ENDBRANCH   2  12
TORSDOF 3
