REMARK  Name = ZINC51267712
REMARK  11 active torsions:
REMARK  status: ('A' for Active; 'I' for Inactive)
REMARK    1  A    between atoms: C_1  and  C_2
REMARK    2  A    between atoms: C_2  and  C_3
REMARK    3  A    between atoms: C_3  and  C_4
REMARK    4  A    between atoms: C_4  and  C_6
REMARK    5  A    between atoms: C_4  and  N_7
REMARK    6  A    between atoms: C_8  and  C_10
REMARK    7  A    between atoms: N_19  and  C_20
REMARK    8  A    between atoms: C_22  and  C_28
REMARK    9  A    between atoms: C_22  and  C_29
REMARK   10  A    between atoms: C_24  and  C_26
REMARK   11  A    between atoms: C_24  and  C_27
REMARK                            x       y       z     vdW  Elec       q    Type
REMARK                         _______ _______ _______ _____ _____    ______ ____
ROOT
ATOM      1  C   UNL     1      -2.824  -3.641   1.036  0.00  0.00    +0.092 C 
ATOM      2  C   UNL     1      -2.955  -4.957   0.264  0.00  0.00    +0.016 C 
ATOM      3  C   UNL     1      -4.373  -5.507   0.429  0.00  0.00    +0.020 C 
ATOM      4  C   UNL     1      -4.639  -5.788   1.911  0.00  0.00    +0.109 C 
ATOM      5  N   UNL     1      -4.374  -4.563   2.679  0.00  0.00    -0.285 N 
ATOM      6  C   UNL     1      -3.072  -3.900   2.525  0.00  0.00    +0.122 C 
ATOM      7  C   UNL     1      -5.308  -4.058   3.509  0.00  0.00    +0.302 C 
ATOM      8  O   UNL     1      -5.045  -3.098   4.208  0.00  0.00    -0.253 OA
ATOM      9  N   UNL     1      -6.534  -4.616   3.564  0.00  0.00    -0.296 N 
ATOM     10  H   UNL     1      -6.719  -5.429   3.069  0.00  0.00    +0.151 HD
ENDROOT
BRANCH   9  11
ATOM     11  C   UNL     1      -7.588  -3.992   4.373  0.00  0.00    +0.072 C 
ATOM     12  C   UNL     1      -7.488  -4.506   5.811  0.00  0.00    +0.009 C 
ATOM     13  C   UNL     1      -8.588  -3.875   6.664  0.00  0.00    -0.072 C 
ATOM     14  N   UNL     1      -9.910  -4.076   6.090  0.00  0.00    +0.386 N 
ATOM     15  C   UNL     1     -10.078  -3.814   4.670  0.00  0.00    -0.072 C 
ATOM     16  C   UNL     1      -8.954  -4.391   3.816  0.00  0.00    +0.009 C 
ATOM     17  C   UNL     1     -11.391  -4.499   4.223  0.00  0.00    -0.010 C 
ATOM     18  C   UNL     1     -10.234  -2.318   4.385  0.00  0.00    -0.010 C 
ATOM     19  C   UNL     1      -8.285  -2.397   6.908  0.00  0.00    -0.010 C 
ATOM     20  C   UNL     1      -8.563  -4.581   8.039  0.00  0.00    -0.010 C 
ATOM     21  H   UNL     1     -10.196  -5.041   6.276  0.00  0.00    -0.084 HD
ATOM     22  H   UNL     1     -10.576  -3.496   6.606  0.00  0.00    -0.084 HD
ENDBRANCH   9  11
BRANCH   1  24
ATOM     23  N   UNL     1      -1.090  -1.923   1.439  0.00  0.00    -0.312 N 
ATOM     24  C   UNL     1      -1.437  -3.083   0.847  0.00  0.00    +0.218 C 
ATOM     25  O   UNL     1      -0.632  -3.678   0.161  0.00  0.00    -0.275 OA
ATOM     26  H   UNL     1      -1.734  -1.448   1.987  0.00  0.00    +0.149 HD
BRANCH  23  27
ATOM     27  C   UNL     1       0.258  -1.381   1.255  0.00  0.00    +0.070 C 
ATOM     28  C   UNL     1       1.206  -2.015   2.275  0.00  0.00    +0.028 C 
BRANCH  27  29
ATOM     29  C   UNL     1       0.230   0.135   1.459  0.00  0.00    +0.022 C 
BRANCH  29  31
ATOM     30  C   UNL     1      -0.647   2.297   0.566  0.00  0.00    +0.004 C 
ATOM     31  C   UNL     1      -0.619   0.781   0.362  0.00  0.00    -0.002 C 
ENDBRANCH  29  31
ENDBRANCH  27  29
ENDBRANCH  23  27
ENDBRANCH   1  24
TORSDOF 5
