REMARK  Name = ZINC61630892
REMARK  4 active torsions:
REMARK  status: ('A' for Active; 'I' for Inactive)
REMARK    1  A    between atoms: C_3  and  N_18
REMARK    2  A    between atoms: C_5  and  C_8
REMARK    3  A    between atoms: C_8  and  N_9
REMARK    4  A    between atoms: C_13  and  C_15
REMARK                            x       y       z     vdW  Elec       q    Type
REMARK                         _______ _______ _______ _____ _____    ______ ____
ROOT
ATOM      1  C   UNL     1       1.244  -2.171  -0.021  0.00  0.00    -0.020 C 
ENDROOT
BRANCH   1   6
ATOM      2  C   UNL     1      -0.017   1.385   0.010  0.00  0.00    +0.025 A 
ATOM      3  C   UNL     1       1.190   2.062   0.002  0.00  0.00    +0.045 A 
ATOM      4  C   UNL     1       2.374   1.333  -0.013  0.00  0.00    +0.116 A 
ATOM      5  N   UNL     1       2.351   0.009  -0.020  0.00  0.00    -0.238 NA
ATOM      6  C   UNL     1       1.216  -0.664  -0.013  0.00  0.00    +0.045 A 
ATOM      7  C   UNL     1       0.002  -0.004   0.002  0.00  0.00    +0.060 A 
ATOM      8 CL   UNL     1      -1.484  -0.901   0.012  0.00  0.00    -0.082 Cl
BRANCH   4   9
ATOM      9  N   UNL     1       3.594   2.000  -0.022  0.00  0.00    -0.343 N 
ATOM     10  H   UNL     1       3.616   2.970  -0.017  0.00  0.00    +0.144 HD
ATOM     11  H   UNL     1       4.423   1.496  -0.033  0.00  0.00    +0.144 HD
ENDBRANCH   4   9
ENDBRANCH   1   6
BRANCH   1  12
ATOM     12  N   UNL     1       1.266  -2.667   1.361  0.00  0.00    +0.391 N 
ATOM     13  C   UNL     1      -0.031  -2.387   2.027  0.00  0.00    -0.077 C 
ATOM     14  C   UNL     1      -0.065  -3.415   3.186  0.00  0.00    -0.020 C 
ATOM     15  C   UNL     1       0.582  -4.668   2.554  0.00  0.00    -0.008 C 
ATOM     16  C   UNL     1       1.414  -4.139   1.371  0.00  0.00    +0.019 C 
ATOM     17  H   UNL     1       2.022  -2.238   1.873  0.00  0.00    -0.080 HD
BRANCH  16  18
ATOM     18  C   UNL     1       2.864  -4.508   1.557  0.00  0.00    +0.197 C 
ATOM     19  O   UNL     1       3.701  -3.638   1.671  0.00  0.00    -0.278 OA
ATOM     20  N   UNL     1       3.230  -5.804   1.597  0.00  0.00    -0.331 N 
ATOM     21  H   UNL     1       2.560  -6.500   1.506  0.00  0.00    +0.145 HD
ATOM     22  H   UNL     1       4.162  -6.041   1.717  0.00  0.00    +0.145 HD
ENDBRANCH  16  18
ENDBRANCH   1  12
TORSDOF 4
