REMARK  Name = ZINC00180202
REMARK  7 active torsions:
REMARK  status: ('A' for Active; 'I' for Inactive)
REMARK    1  A    between atoms: C_1  and  C_2
REMARK    2  A    between atoms: C_6  and  N_9
REMARK    3  A    between atoms: C_7  and  C_8
REMARK    4  A    between atoms: C_10  and  C_12
REMARK    5  A    between atoms: C_13  and  N_23
REMARK    6  A    between atoms: C_15  and  C_22
REMARK    7  A    between atoms: C_17  and  C_21
REMARK                            x       y       z     vdW  Elec       q    Type
REMARK                         _______ _______ _______ _____ _____    ______ ____
ROOT
ATOM      1  C   UNL     1      -1.429  -4.672   3.556  0.00  0.00    +0.097 A 
ATOM      2  C   UNL     1      -1.500  -6.036   3.736  0.00  0.00    +0.054 A 
ATOM      3  C   UNL     1      -1.439  -6.558   5.093  0.00  0.00    +0.030 A 
ATOM      4  C   UNL     1      -1.492  -7.906   5.525  0.00  0.00    -0.037 A 
ATOM      5  C   UNL     1      -1.418  -8.178   6.871  0.00  0.00    +0.025 A 
ATOM      6  C   UNL     1      -1.292  -7.146   7.789  0.00  0.00    +0.014 A 
ATOM      7  N   UNL     1      -1.243  -5.892   7.383  0.00  0.00    -0.353 N 
ATOM      8  C   UNL     1      -1.310  -5.581   6.106  0.00  0.00    +0.088 A 
ATOM      9  S   UNL     1      -1.269  -4.045   5.217  0.00  0.00    -0.064 S 
ATOM     10  C   UNL     1      -1.211  -7.459   9.261  0.00  0.00    +0.063 C 
ATOM     11  C   UNL     1      -1.630  -9.025   4.526  0.00  0.00    +0.044 C 
ATOM     12  H   UNL     1      -1.155  -5.184   8.040  0.00  0.00    +0.166 HD
ENDROOT
BRANCH   1  14
ATOM     13  N   UNL     1      -1.378  -2.598   2.360  0.00  0.00    -0.281 N 
ATOM     14  C   UNL     1      -1.467  -3.943   2.342  0.00  0.00    +0.257 C 
ATOM     15  O   UNL     1      -1.581  -4.532   1.282  0.00  0.00    -0.269 OA
ATOM     16  H   UNL     1      -1.271  -2.131   3.203  0.00  0.00    +0.155 HD
BRANCH  13  22
ATOM     17  C   UNL     1      -0.475   1.538  -0.139  0.00  0.00    +0.044 C 
ATOM     18  C   UNL     1      -1.009   0.130  -0.076  0.00  0.00    -0.046 A 
ATOM     19  C   UNL     1      -1.560  -0.451  -1.204  0.00  0.00    +0.004 A 
ATOM     20  C   UNL     1      -2.052  -1.742  -1.151  0.00  0.00    +0.002 A 
ATOM     21  C   UNL     1      -1.993  -2.457   0.029  0.00  0.00    +0.023 A 
ATOM     22  C   UNL     1      -1.439  -1.877   1.163  0.00  0.00    +0.037 A 
ATOM     23  C   UNL     1      -0.941  -0.582   1.105  0.00  0.00    -0.026 A 
ATOM     24  C   UNL     1      -0.334   0.049   2.332  0.00  0.00    +0.046 C 
ENDBRANCH  13  22
ENDBRANCH   1  14
BRANCH   2  25
ATOM     25  N   UNL     1      -1.627  -6.891   2.650  0.00  0.00    -0.356 N 
ATOM     26  H   UNL     1      -1.952  -6.552   1.801  0.00  0.00    +0.142 HD
ATOM     27  H   UNL     1      -1.391  -7.828   2.740  0.00  0.00    +0.142 HD
ENDBRANCH   2  25
TORSDOF 3
