REMARK  Name = ZINC31807302
REMARK  7 active torsions:
REMARK  status: ('A' for Active; 'I' for Inactive)
REMARK    1  A    between atoms: C_1  and  C_2
REMARK    2  A    between atoms: C_4  and  N_12
REMARK    3  A    between atoms: N_15  and  C_18
REMARK    4  A    between atoms: C_18  and  C_20
REMARK    5  A    between atoms: C_18  and  C_34
REMARK    6  A    between atoms: C_28  and  N_30
REMARK    7  A    between atoms: C_31  and  C_33
REMARK                            x       y       z     vdW  Elec       q    Type
REMARK                         _______ _______ _______ _____ _____    ______ ____
ROOT
ATOM      1  C   UNL     1       1.384   3.506  -0.064  0.00  0.00    +0.080 C 
ENDROOT
BRANCH   1   2
ATOM      2  C   UNL     1       2.804   3.998   0.048  0.00  0.00    -0.025 A 
ATOM      3  C   UNL     1       3.393   4.494   1.147  0.00  0.00    +0.086 A 
ATOM      4  N   UNL     1       4.689   4.837   0.868  0.00  0.00    -0.360 N 
ATOM      5  H   UNL     1       5.327   5.262   1.657  0.00  0.00    +0.165 HD
ATOM      6  C   UNL     1       4.972   4.563  -0.451  0.00  0.00    +0.048 A 
ATOM      7  C   UNL     1       3.806   4.020  -1.022  0.00  0.00    +0.002 A 
ATOM      8  C   UNL     1       3.798   3.638  -2.365  0.00  0.00    +0.012 A 
ATOM      9  C   UNL     1       4.924   3.788  -3.122  0.00  0.00    +0.024 A 
ATOM     10  C   UNL     1       6.084   4.322  -2.563  0.00  0.00    +0.035 A 
ATOM     11  C   UNL     1       6.109   4.715  -1.236  0.00  0.00    +0.049 A 
BRANCH  10  12
ATOM     12  N   UNL     1       7.231   4.470  -3.353  0.00  0.00    -0.286 N 
ATOM     13  C   UNL     1       8.451   4.282  -2.812  0.00  0.00    +0.214 C 
ATOM     14  O   UNL     1       8.561   4.073  -1.622  0.00  0.00    -0.276 OA
ATOM     15  C   UNL     1       9.678   4.333  -3.684  0.00  0.00    +0.109 C 
ATOM     16  H   UNL     1       7.136   4.739  -4.415  0.00  0.00    +0.155 HD
ENDBRANCH  10  12
ENDBRANCH   1   2
BRANCH   1  20
ATOM     17  N   UNL     1       0.656  -0.538   0.916  0.00  0.00    -0.319 N 
ATOM     18  C   UNL     1       0.051  -0.008  -0.314  0.00  0.00    +0.088 C 
ATOM     19  C   UNL     1       0.009   1.521  -0.241  0.00  0.00    -0.058 C 
ATOM     20  N   UNL     1       1.373   2.037  -0.063  0.00  0.00    +0.394 N 
ATOM     21  C   UNL     1       1.979   1.507   1.166  0.00  0.00    -0.058 C 
ATOM     22  C   UNL     1       2.020  -0.021   1.093  0.00  0.00    +0.088 C 
ATOM     23  H   UNL     1       1.980   1.695  -0.915  0.00  0.00    -0.080 HD
BRANCH  17  27
ATOM     24  C   UNL     1       1.754  -4.737   3.195  0.00  0.00    +0.044 C 
ATOM     25  C   UNL     1       1.181  -3.975   2.028  0.00  0.00    -0.038 A 
ATOM     26  C   UNL     1       1.189  -2.613   2.011  0.00  0.00    +0.047 A 
ATOM     27  C   UNL     1       0.646  -1.925   0.917  0.00  0.00    +0.122 A 
ATOM     28  N   UNL     1       0.131  -2.565  -0.113  0.00  0.00    -0.232 NA
ATOM     29  C   UNL     1       0.100  -3.902  -0.154  0.00  0.00    +0.073 A 
ATOM     30  C   UNL     1       0.629  -4.654   0.923  0.00  0.00    +0.003 A 
ATOM     31  C   UNL     1       0.594  -6.056   0.872  0.00  0.00    +0.010 A 
ATOM     32  C   UNL     1       0.053  -6.678  -0.212  0.00  0.00    +0.001 A 
ATOM     33  C   UNL     1      -0.468  -5.940  -1.272  0.00  0.00    +0.002 A 
ATOM     34  C   UNL     1      -0.450  -4.579  -1.256  0.00  0.00    +0.028 A 
ENDBRANCH  17  27
ENDBRANCH   1  20
BRANCH   1  35
ATOM     35  C   UNL     1       0.583   4.015   1.106  0.00  0.00    +0.347 C 
ATOM     36  O   UNL     1       0.056   3.234   1.863  0.00  0.00    -0.248 OA
ATOM     37  O   UNL     1       0.454   5.336   1.307  0.00  0.00    -0.248 OA
ENDBRANCH   1  35
TORSDOF 5
