REMARK  Name = ZINC36963660
REMARK  3 active torsions:
REMARK  status: ('A' for Active; 'I' for Inactive)
REMARK    1  A    between atoms: C_1  and  C_2
REMARK    2  A    between atoms: C_8  and  N_13
REMARK    3  A    between atoms: N_13  and  C_14
REMARK                            x       y       z     vdW  Elec       q    Type
REMARK                         _______ _______ _______ _____ _____    ______ ____
ROOT
ATOM      1  C   UNL     1      -0.018   1.503   0.010  0.00  0.00    +0.044 C 
ATOM      2  C   UNL     1       0.002  -0.004   0.002  0.00  0.00    -0.050 A 
ATOM      3  C   UNL     1       0.006  -0.691  -1.198  0.00  0.00    +0.005 A 
ATOM      4  C   UNL     1       0.025  -2.070  -1.213  0.00  0.00    +0.024 A 
ATOM      5  C   UNL     1       0.040  -2.782  -0.015  0.00  0.00    +0.039 A 
ATOM      6  C   UNL     1       0.037  -2.081   1.184  0.00  0.00    +0.003 A 
ATOM      7  C   UNL     1       0.023  -0.704   1.196  0.00  0.00    +0.011 A 
ATOM      8  C   UNL     1       0.056  -3.118   2.283  0.00  0.00    +0.190 C 
ATOM      9  C   UNL     1       0.071  -4.439   1.543  0.00  0.00    +0.242 C 
ATOM     10  O   UNL     1       0.088  -5.544   2.042  0.00  0.00    -0.273 OA
ATOM     11  N   UNL     1       0.060  -4.156   0.229  0.00  0.00    -0.283 N 
ATOM     12  H   UNL     1       0.066  -4.829  -0.469  0.00  0.00    +0.155 HD
ENDROOT
BRANCH   8  13
ATOM     13  N   UNL     1      -1.144  -3.006   3.116  0.00  0.00    -0.328 N 
ATOM     14  H   UNL     1      -1.954  -2.618   2.750  0.00  0.00    +0.147 HD
BRANCH  13  15
ATOM     15  C   UNL     1      -1.121  -3.458   4.439  0.00  0.00    +0.047 A 
ATOM     16  C   UNL     1       0.039  -4.009   4.966  0.00  0.00    +0.025 A 
ATOM     17  C   UNL     1       0.059  -4.454   6.273  0.00  0.00    +0.017 A 
ATOM     18  C   UNL     1      -1.077  -4.353   7.058  0.00  0.00    +0.019 A 
ATOM     19  C   UNL     1      -2.235  -3.806   6.535  0.00  0.00    +0.037 A 
ATOM     20  C   UNL     1      -2.259  -3.353   5.230  0.00  0.00    +0.063 A 
ATOM     21 CL   UNL     1      -3.710  -2.659   4.577  0.00  0.00    -0.082 Cl
ATOM     22 BR   UNL     1      -1.045  -4.965   8.847  0.00  0.00    -0.050 Br
ENDBRANCH  13  15
ENDBRANCH   8  13
TORSDOF 2
