REMARK  Name = ZINC44115056
REMARK  7 active torsions:
REMARK  status: ('A' for Active; 'I' for Inactive)
REMARK    1  A    between atoms: C_1  and  N_2
REMARK    2  A    between atoms: C_6  and  C_8
REMARK    3  A    between atoms: C_8  and  C_9
REMARK    4  A    between atoms: C_9  and  S_10
REMARK    5  A    between atoms: S_10  and  C_11
REMARK    6  A    between atoms: C_14  and  C_18
REMARK    7  A    between atoms: C_15  and  N_17
REMARK                            x       y       z     vdW  Elec       q    Type
REMARK                         _______ _______ _______ _____ _____    ______ ____
ROOT
ATOM      1  S   UNL     1       1.948  -6.487  -3.322  0.00  0.00    -0.086 S 
ENDROOT
BRANCH   1   2
ATOM      2  C   UNL     1       2.794  -6.893  -4.813  0.00  0.00    +0.190 A 
ATOM      3  N   UNL     1       3.231  -5.912  -5.594  0.00  0.00    -0.229 NA
ATOM      4  C   UNL     1       3.870  -6.168  -6.720  0.00  0.00    +0.136 A 
ATOM      5  C   UNL     1       4.087  -7.500  -7.091  0.00  0.00    +0.109 A 
ATOM      6  C   UNL     1       3.608  -8.516  -6.236  0.00  0.00    +0.138 A 
ATOM      7  N   UNL     1       2.980  -8.170  -5.119  0.00  0.00    -0.206 NA
BRANCH   6   8
ATOM      8  N   UNL     1       3.794  -9.847  -6.553  0.00  0.00    -0.342 N 
ATOM      9  H   UNL     1       4.257 -10.090  -7.370  0.00  0.00    +0.144 HD
ATOM     10  H   UNL     1       3.461 -10.538  -5.959  0.00  0.00    +0.144 HD
ENDBRANCH   6   8
BRANCH   5  11
ATOM     11  C   UNL     1       4.775  -7.823  -8.304  0.00  0.00    +0.104 C 
ATOM     12  N   UNL     1       5.321  -8.079  -9.267  0.00  0.00    -0.191 NA
ENDBRANCH   5  11
ENDBRANCH   1   2
BRANCH   1  13
ATOM     13  C   UNL     1       1.923  -4.673  -3.312  0.00  0.00    +0.086 C 
BRANCH  13  14
ATOM     14  C   UNL     1       1.207  -4.179  -2.054  0.00  0.00    +0.107 C 
BRANCH  14  20
ATOM     15  C   UNL     1      -0.018   1.461   0.010  0.00  0.00    +0.129 C 
ATOM     16  N   UNL     1       0.002  -0.004   0.002  0.00  0.00    -0.302 N 
ATOM     17  C   UNL     1       0.585  -0.664  -1.018  0.00  0.00    +0.306 C 
ATOM     18  O   UNL     1       1.094  -0.045  -1.931  0.00  0.00    -0.252 OA
ATOM     19  N   UNL     1       0.603  -2.012  -1.025  0.00  0.00    -0.240 N 
ATOM     20  C   UNL     1       1.186  -2.673  -2.045  0.00  0.00    +0.221 C 
ATOM     21  O   UNL     1       1.694  -2.054  -2.956  0.00  0.00    -0.275 OA
ATOM     22  H   UNL     1      -0.404  -0.499   0.731  0.00  0.00    +0.150 HD
ATOM     23  H   UNL     1       0.197  -2.507  -0.297  0.00  0.00    +0.159 HD
ENDBRANCH  14  20
ENDBRANCH  13  14
ENDBRANCH   1  13
TORSDOF 6
