REMARK  Name = ZINC05261702
REMARK  8 active torsions:
REMARK  status: ('A' for Active; 'I' for Inactive)
REMARK    1  A    between atoms: C_1  and  C_2
REMARK    2  A    between atoms: C_2  and  C_3
REMARK    3  A    between atoms: C_2  and  C_4
REMARK    4  A    between atoms: C_4  and  C_6
REMARK    5  A    between atoms: C_4  and  S_12
REMARK    6  A    between atoms: S_12  and  C_13
REMARK    7  A    between atoms: C_16  and  S_19
REMARK    8  A    between atoms: S_19  and  N_22
REMARK                            x       y       z     vdW  Elec       q    Type
REMARK                         _______ _______ _______ _____ _____    ______ ____
ROOT
ATOM      1  S   UNL     1      -1.434  -0.891  -0.539  0.00  0.00    -0.093 S 
ENDROOT
BRANCH   1   2
ATOM      2  C   UNL     1       0.102  -0.059  -0.765  0.00  0.00    +0.098 A 
ATOM      3  C   UNL     1       0.141   1.333  -0.761  0.00  0.00    +0.037 A 
ATOM      4  C   UNL     1       1.353   1.973  -0.940  0.00  0.00    +0.032 A 
ATOM      5  C   UNL     1       2.492   1.198  -1.117  0.00  0.00    +0.124 A 
ATOM      6  C   UNL     1       2.382  -0.178  -1.110  0.00  0.00    +0.140 A 
ATOM      7  N   UNL     1       1.211  -0.762  -0.937  0.00  0.00    -0.247 NA
BRANCH   5   8
ATOM      8  S   UNL     1       4.062   1.963  -1.348  0.00  0.00    +0.062 S 
ATOM      9  O   UNL     1       3.972   3.258  -0.769  0.00  0.00    -0.153 OA
ATOM     10  O   UNL     1       5.040   1.014  -0.945  0.00  0.00    -0.153 OA
BRANCH   8  11
ATOM     11  N   UNL     1       4.263   2.187  -2.977  0.00  0.00    -0.177 NA
ATOM     12  C   UNL     1       4.885   1.229  -3.903  0.00  0.00    +0.109 C 
ATOM     13  C   UNL     1       4.874   1.873  -5.305  0.00  0.00    +0.018 C 
ATOM     14  C   UNL     1       4.769   3.389  -4.987  0.00  0.00    +0.018 C 
ATOM     15  C   UNL     1       3.854   3.381  -3.737  0.00  0.00    +0.109 C 
ENDBRANCH   8  11
ENDBRANCH   5   8
ENDBRANCH   1   2
BRANCH   1  16
ATOM     16  C   UNL     1      -0.973  -2.642  -0.427  0.00  0.00    +0.141 C 
BRANCH  16  17
ATOM     17  C   UNL     1      -0.191  -2.875   0.840  0.00  0.00    +0.234 C 
ATOM     18  O   UNL     1      -0.337  -2.132   1.787  0.00  0.00    -0.274 OA
ATOM     19  N   UNL     1       0.669  -3.909   0.921  0.00  0.00    -0.239 N 
ATOM     20  C   UNL     1       1.368  -4.117   2.054  0.00  0.00    +0.303 C 
ATOM     21  O   UNL     1       1.222  -3.373   3.004  0.00  0.00    -0.253 OA
ATOM     22  N   UNL     1       2.229  -5.152   2.135  0.00  0.00    -0.313 N 
ATOM     23  H   UNL     1       0.786  -4.503   0.163  0.00  0.00    +0.159 HD
ATOM     24  H   UNL     1       2.345  -5.746   1.377  0.00  0.00    +0.146 HD
ATOM     25  H   UNL     1       2.732  -5.302   2.950  0.00  0.00    +0.146 HD
ENDBRANCH  16  17
BRANCH  16  27
ATOM     26  C   UNL     1      -3.025  -3.274  -1.704  0.00  0.00    +0.009 C 
ATOM     27  C   UNL     1      -2.237  -3.502  -0.412  0.00  0.00    +0.005 C 
ATOM     28  C   UNL     1      -1.848  -4.978  -0.306  0.00  0.00    +0.009 C 
ENDBRANCH  16  27
ENDBRANCH   1  16
TORSDOF 6
