REMARK  Name = ZINC00182418
REMARK  4 active torsions:
REMARK  status: ('A' for Active; 'I' for Inactive)
REMARK    1  A    between atoms: C_1  and  C_2
REMARK    2  A    between atoms: N_12  and  C_15
REMARK    3  A    between atoms: C_18  and  S_21
REMARK    4  A    between atoms: S_21  and  N_24
REMARK                            x       y       z     vdW  Elec       q    Type
REMARK                         _______ _______ _______ _____ _____    ______ ____
ROOT
ATOM      1  C   UNL     1      -0.018   1.503   0.010  0.00  0.00    +0.039 C 
ATOM      2  C   UNL     1       0.002  -0.004   0.002  0.00  0.00    -0.076 C 
ATOM      3  C   UNL     1       0.005  -0.604  -1.150  0.00  0.00    -0.027 C 
ATOM      4  C   UNL     1      -0.002  -2.107  -1.331  0.00  0.00    +0.040 C 
ATOM      5  C   UNL     1      -0.465  -2.706  -0.019  0.00  0.00    +0.092 C 
ATOM      6  C   UNL     1       0.489  -2.133   1.075  0.00  0.00    +0.092 C 
ATOM      7  C   UNL     1       0.024  -0.718   1.337  0.00  0.00    +0.043 C 
ATOM      8  C   UNL     1       0.297  -3.156   2.153  0.00  0.00    +0.230 C 
ATOM      9  O   UNL     1       0.374  -2.976   3.349  0.00  0.00    -0.274 OA
ATOM     10  N   UNL     1       0.019  -4.326   1.521  0.00  0.00    -0.210 N 
ATOM     11  C   UNL     1      -0.282  -4.178   0.193  0.00  0.00    +0.230 C 
ATOM     12  O   UNL     1      -0.374  -5.051  -0.644  0.00  0.00    -0.274 OA
ENDROOT
BRANCH  10  13
ATOM     13  C   UNL     1       0.023  -5.569   2.168  0.00  0.00    +0.044 A 
ATOM     14  C   UNL     1       0.317  -5.647   3.523  0.00  0.00    +0.026 A 
ATOM     15  C   UNL     1       0.321  -6.874   4.158  0.00  0.00    +0.030 A 
ATOM     16  C   UNL     1       0.033  -8.023   3.446  0.00  0.00    +0.105 A 
ATOM     17  C   UNL     1      -0.260  -7.949   2.097  0.00  0.00    +0.030 A 
ATOM     18  C   UNL     1      -0.271  -6.725   1.458  0.00  0.00    +0.026 A 
BRANCH  16  19
ATOM     19  S   UNL     1       0.039  -9.586   4.260  0.00  0.00    +0.056 S 
ATOM     20  O   UNL     1       0.273 -10.565   3.257  0.00  0.00    -0.153 OA
ATOM     21  O   UNL     1       0.877  -9.447   5.399  0.00  0.00    -0.153 OA
BRANCH  19  22
ATOM     22  N   UNL     1      -1.494  -9.848   4.829  0.00  0.00    -0.204 NA
ATOM     23  H   UNL     1      -2.187  -9.186   4.679  0.00  0.00    +0.144 HD
ATOM     24  H   UNL     1      -1.699 -10.664   5.313  0.00  0.00    +0.144 HD
ENDBRANCH  19  22
ENDBRANCH  16  19
ENDBRANCH  10  13
TORSDOF 3
