REMARK  Name = ZINC27673178
REMARK  6 active torsions:
REMARK  status: ('A' for Active; 'I' for Inactive)
REMARK    1  A    between atoms: C_3  and  C_6
REMARK    2  A    between atoms: C_8  and  C_18
REMARK    3  A    between atoms: N_10  and  C_11
REMARK    4  A    between atoms: N_20  and  C_21
REMARK    5  A    between atoms: C_24  and  S_27
REMARK    6  A    between atoms: S_27  and  N_30
REMARK                            x       y       z     vdW  Elec       q    Type
REMARK                         _______ _______ _______ _____ _____    ______ ____
ROOT
ATOM      1  C   UNL     1      -3.645   1.181   0.966  0.00  0.00    +0.110 A 
ATOM      2  C   UNL     1      -4.554   0.206   0.649  0.00  0.00    +0.066 A 
ATOM      3  C   UNL     1      -3.936  -0.573  -0.352  0.00  0.00    +0.148 A 
ATOM      4  N   UNL     1      -2.746  -0.051  -0.581  0.00  0.00    -0.161 NA
ATOM      5  N   UNL     1      -2.552   0.973   0.170  0.00  0.00    -0.228 N 
ENDROOT
BRANCH   5   6
ATOM      6  C   UNL     1      -1.391   1.756   0.177  0.00  0.00    +0.066 A 
ATOM      7  C   UNL     1      -0.806   2.143  -1.021  0.00  0.00    +0.029 A 
ATOM      8  C   UNL     1       0.336   2.920  -1.011  0.00  0.00    +0.022 A 
ATOM      9  C   UNL     1       0.899   3.308   0.192  0.00  0.00    +0.041 A 
ATOM     10  C   UNL     1       0.322   2.919   1.387  0.00  0.00    +0.022 A 
ATOM     11  C   UNL     1      -0.820   2.142   1.383  0.00  0.00    +0.029 A 
ATOM     12 CL   UNL     1       2.334   4.286   0.201  0.00  0.00    -0.084 Cl
ENDBRANCH   5   6
BRANCH   1  15
ATOM     13  C   UNL     1      -4.560   3.483   3.658  0.00  0.00    +0.042 A 
ATOM     14  C   UNL     1      -4.776   2.297   2.929  0.00  0.00    +0.051 A 
ATOM     15  C   UNL     1      -3.813   2.248   1.967  0.00  0.00    +0.153 A 
ATOM     16  O   UNL     1      -3.037   3.342   2.095  0.00  0.00    -0.461 OA
ATOM     17  C   UNL     1      -3.489   4.093   3.112  0.00  0.00    +0.196 A 
ENDBRANCH   1  15
BRANCH   3  18
ATOM     18  C   UNL     1      -4.516  -1.755  -1.022  0.00  0.00    +0.268 C 
ATOM     19  O   UNL     1      -5.629  -2.139  -0.721  0.00  0.00    -0.268 OA
ATOM     20  N   UNL     1      -3.810  -2.408  -1.966  0.00  0.00    -0.280 N 
ATOM     21  H   UNL     1      -2.771  -2.115  -2.178  0.00  0.00    +0.155 HD
BRANCH  20  22
ATOM     22  C   UNL     1      -4.398  -3.459  -2.677  0.00  0.00    +0.034 A 
ATOM     23  C   UNL     1      -3.624  -4.532  -3.100  0.00  0.00    +0.025 A 
ATOM     24  C   UNL     1      -4.209  -5.571  -3.798  0.00  0.00    +0.030 A 
ATOM     25  C   UNL     1      -5.561  -5.538  -4.085  0.00  0.00    +0.105 A 
ATOM     26  C   UNL     1      -6.334  -4.468  -3.669  0.00  0.00    +0.030 A 
ATOM     27  C   UNL     1      -5.756  -3.429  -2.966  0.00  0.00    +0.025 A 
BRANCH  25  28
ATOM     28  S   UNL     1      -6.303  -6.861  -4.981  0.00  0.00    +0.056 S 
ATOM     29  O   UNL     1      -5.476  -8.000  -4.781  0.00  0.00    -0.153 OA
ATOM     30  O   UNL     1      -7.684  -6.855  -4.647  0.00  0.00    -0.153 OA
BRANCH  28  31
ATOM     31  N   UNL     1      -6.202  -6.480  -6.589  0.00  0.00    -0.204 NA
ATOM     32  H   UNL     1      -6.656  -7.285  -7.186  0.00  0.00    +0.144 HD
ATOM     33  H   UNL     1      -5.146  -6.364  -6.874  0.00  0.00    +0.144 HD
ENDBRANCH  28  31
ENDBRANCH  25  28
ENDBRANCH  20  22
ENDBRANCH   3  18
TORSDOF 6
