REMARK  Name = ZINC07034727
REMARK  4 active torsions:
REMARK  status: ('A' for Active; 'I' for Inactive)
REMARK    1  A    between atoms: C_1  and  C_2
REMARK    2  A    between atoms: C_2  and  C_4
REMARK    3  A    between atoms: C_2  and  O_10
REMARK    4  A    between atoms: O_10  and  C_11
REMARK                            x       y       z     vdW  Elec       q    Type
REMARK                         _______ _______ _______ _____ _____    ______ ____
ROOT
ATOM      1  C   UNL     1      -2.365  -0.117  -0.874  0.00  0.00    +0.062 C 
ATOM      2  C   UNL     1      -2.427   0.946   0.225  0.00  0.00    +0.256 C 
ENDROOT
BRANCH   2   3
ATOM      3  C   UNL     1      -1.187   1.800   0.168  0.00  0.00    +0.261 C 
ATOM      4  O   UNL     1      -1.282   2.994  -0.021  0.00  0.00    -0.271 OA
ATOM      5  N   UNL     1       0.027   1.237   0.328  0.00  0.00    -0.237 N 
ATOM      6  C   UNL     1       1.136   2.000   0.272  0.00  0.00    +0.303 C 
ATOM      7  O   UNL     1       1.041   3.197   0.082  0.00  0.00    -0.253 OA
ATOM      8  N   UNL     1       2.350   1.437   0.426  0.00  0.00    -0.313 N 
ATOM      9  H   UNL     1       0.102   0.282   0.480  0.00  0.00    +0.159 HD
ATOM     10  H   UNL     1       2.426   0.482   0.578  0.00  0.00    +0.146 HD
ATOM     11  H   UNL     1       3.149   1.986   0.386  0.00  0.00    +0.146 HD
ENDBRANCH   2   3
BRANCH   2  12
ATOM     12  O   UNL     1      -3.581   1.766   0.029  0.00  0.00    -0.480 OA
BRANCH  12  13
ATOM     13  C   UNL     1      -4.754   1.314   0.543  0.00  0.00    +0.122 A 
ATOM     14  C   UNL     1      -5.888   2.113   0.496  0.00  0.00    +0.047 A 
ATOM     15  C   UNL     1      -7.081   1.650   1.015  0.00  0.00    +0.018 A 
ATOM     16  C   UNL     1      -7.144   0.395   1.593  0.00  0.00    +0.014 A 
ATOM     17  C   UNL     1      -6.014  -0.402   1.646  0.00  0.00    +0.018 A 
ATOM     18  C   UNL     1      -4.820   0.056   1.123  0.00  0.00    +0.047 A 
ATOM     19  I   UNL     1      -8.953  -0.302   2.386  0.00  0.00    -0.044 I 
ENDBRANCH  12  13
ENDBRANCH   2  12
TORSDOF 3
