REMARK  Name = ZINC11270608
REMARK  9 active torsions:
REMARK  status: ('A' for Active; 'I' for Inactive)
REMARK    1  A    between atoms: C_1  and  C_2
REMARK    2  A    between atoms: C_2  and  C_25
REMARK    3  A    between atoms: N_5  and  C_9
REMARK    4  A    between atoms: C_9  and  C_10
REMARK    5  A    between atoms: N_12  and  N_13
REMARK    6  A    between atoms: C_28  and  C_31
REMARK    7  A    between atoms: C_31  and  C_32
REMARK    8  A    between atoms: C_31  and  C_33
REMARK    9  A    between atoms: C_31  and  C_34
REMARK                            x       y       z     vdW  Elec       q    Type
REMARK                         _______ _______ _______ _____ _____    ______ ____
ROOT
ATOM      1  C   UNL     1       8.062   3.772  -4.483  0.00  0.00    +0.047 C 
ATOM      2  C   UNL     1       6.691   3.108  -4.341  0.00  0.00    +0.135 C 
ATOM      3  C   UNL     1       6.216   3.168  -2.903  0.00  0.00    +0.251 C 
ATOM      4  O   UNL     1       5.997   4.162  -2.245  0.00  0.00    -0.272 OA
ATOM      5  N   UNL     1       6.088   1.886  -2.508  0.00  0.00    -0.215 N 
ATOM      6  C   UNL     1       6.418   1.033  -3.485  0.00  0.00    +0.310 C 
ATOM      7  O   UNL     1       6.386  -0.176  -3.365  0.00  0.00    -0.252 OA
ATOM      8  N   UNL     1       6.784   1.663  -4.615  0.00  0.00    -0.281 N 
ATOM      9  H   UNL     1       7.059   1.248  -5.447  0.00  0.00    +0.152 HD
ENDROOT
BRANCH   2  10
ATOM     10  C   UNL     1       5.688   3.758  -5.258  0.00  0.00    -0.015 A 
ATOM     11  C   UNL     1       4.894   4.790  -4.794  0.00  0.00    +0.006 A 
ATOM     12  C   UNL     1       3.977   5.390  -5.637  0.00  0.00    +0.004 A 
ATOM     13  C   UNL     1       3.846   4.950  -6.941  0.00  0.00    -0.042 A 
ATOM     14  C   UNL     1       4.636   3.914  -7.404  0.00  0.00    +0.004 A 
ATOM     15  C   UNL     1       5.557   3.318  -6.562  0.00  0.00    +0.006 A 
BRANCH  13  16
ATOM     16  C   UNL     1       2.842   5.599  -7.858  0.00  0.00    -0.013 C 
ATOM     17  C   UNL     1       1.835   4.551  -8.336  0.00  0.00    +0.015 C 
ATOM     18  C   UNL     1       2.106   6.708  -7.104  0.00  0.00    +0.015 C 
ATOM     19  C   UNL     1       3.567   6.198  -9.066  0.00  0.00    +0.015 C 
ENDBRANCH  13  16
ENDBRANCH   2  10
BRANCH   5  20
ATOM     20  C   UNL     1       5.649   1.477  -1.171  0.00  0.00    +0.215 C 
BRANCH  20  21
ATOM     21  C   UNL     1       4.148   1.334  -1.158  0.00  0.00    +0.248 C 
ATOM     22  O   UNL     1       3.509   1.553  -2.165  0.00  0.00    -0.273 OA
ATOM     23  N   UNL     1       3.517   0.964  -0.026  0.00  0.00    -0.222 N 
ATOM     24  H   UNL     1       4.028   0.789   0.779  0.00  0.00    +0.174 HD
BRANCH  23  25
ATOM     25  N   UNL     1       2.122   0.831  -0.014  0.00  0.00    -0.137 N 
ATOM     26  C   UNL     1       1.473  -0.351  -0.014  0.00  0.00    +0.263 C 
ATOM     27  O   UNL     1       1.965  -1.459  -0.024  0.00  0.00    -0.271 OA
ATOM     28  C   UNL     1       0.002  -0.004   0.002  0.00  0.00    +0.114 C 
ATOM     29  C   UNL     1      -0.685  -0.540  -1.249  0.00  0.00    +0.035 C 
ATOM     30  C   UNL     1      -2.165  -0.146  -1.228  0.00  0.00    +0.003 C 
ATOM     31  C   UNL     1      -2.827  -0.722   0.025  0.00  0.00    +0.000 C 
ATOM     32  C   UNL     1      -2.141  -0.160   1.272  0.00  0.00    +0.003 C 
ATOM     33  C   UNL     1      -0.661  -0.554   1.260  0.00  0.00    +0.035 C 
ATOM     34  N   UNL     1      -0.018   1.464   0.010  0.00  0.00    -0.284 N 
ATOM     35  C   UNL     1       1.269   1.863  -0.000  0.00  0.00    +0.326 C 
ATOM     36  O   UNL     1       1.616   3.027   0.003  0.00  0.00    -0.251 OA
ATOM     37  H   UNL     1      -0.802   2.035   0.017  0.00  0.00    +0.151 HD
ENDBRANCH  23  25
ENDBRANCH  20  21
ENDBRANCH   5  20
TORSDOF 5
