REMARK  Name = ZINC40526651
REMARK  6 active torsions:
REMARK  status: ('A' for Active; 'I' for Inactive)
REMARK    1  A    between atoms: C_1  and  C_2
REMARK    2  A    between atoms: C_2  and  N_3
REMARK    3  A    between atoms: C_4  and  C_6
REMARK    4  A    between atoms: C_6  and  N_7
REMARK    5  A    between atoms: N_10  and  C_11
REMARK    6  A    between atoms: C_16  and  C_17
REMARK                            x       y       z     vdW  Elec       q    Type
REMARK                         _______ _______ _______ _____ _____    ______ ____
ROOT
ATOM      1  N   UNL     1      -2.994  -3.826   0.026  0.00  0.00    -0.291 N 
ATOM      2  C   UNL     1      -4.152  -4.516   0.021  0.00  0.00    +0.304 C 
ATOM      3  O   UNL     1      -5.213  -3.922   0.026  0.00  0.00    -0.252 OA
ATOM      4  N   UNL     1      -4.134  -5.863   0.010  0.00  0.00    -0.269 N 
ATOM      5  H   UNL     1      -2.147  -4.300   0.022  0.00  0.00    +0.151 HD
ATOM      6  H   UNL     1      -3.292  -6.336  -0.076  0.00  0.00    +0.156 HD
ENDROOT
BRANCH   4   7
ATOM      7  C   UNL     1      -5.331  -6.580   0.123  0.00  0.00    +0.038 A 
ATOM      8  C   UNL     1      -6.432  -6.003   0.743  0.00  0.00    +0.025 A 
ATOM      9  C   UNL     1      -7.611  -6.712   0.853  0.00  0.00    +0.017 A 
ATOM     10  C   UNL     1      -7.697  -7.997   0.348  0.00  0.00    +0.018 A 
ATOM     11  C   UNL     1      -6.603  -8.575  -0.270  0.00  0.00    +0.020 A 
ATOM     12  C   UNL     1      -5.422  -7.867  -0.389  0.00  0.00    -0.028 A 
ATOM     13  C   UNL     1      -4.232  -8.495  -1.067  0.00  0.00    +0.046 C 
ATOM     14 BR   UNL     1      -9.314  -8.966   0.502  0.00  0.00    -0.050 Br
ENDBRANCH   4   7
BRANCH   1  15
ATOM     15  C   UNL     1      -3.013  -2.361   0.039  0.00  0.00    +0.201 C 
BRANCH  15  17
ATOM     16  N   UNL     1      -1.371  -0.512   0.053  0.00  0.00    -0.314 N 
ATOM     17  C   UNL     1      -1.599  -1.840   0.043  0.00  0.00    +0.230 C 
ATOM     18  O   UNL     1      -0.667  -2.616   0.036  0.00  0.00    -0.274 OA
ATOM     19  H   UNL     1      -2.116   0.108   0.059  0.00  0.00    +0.149 HD
BRANCH  16  21
ATOM     20  C   UNL     1      -0.017   1.524   0.070  0.00  0.00    +0.024 C 
ATOM     21  C   UNL     1       0.004  -0.005   0.057  0.00  0.00    +0.101 C 
ENDBRANCH  16  21
ENDBRANCH  15  17
ENDBRANCH   1  15
TORSDOF 4
