REMARK  Name = ZINC66868830
REMARK  5 active torsions:
REMARK  status: ('A' for Active; 'I' for Inactive)
REMARK    1  A    between atoms: C_1  and  C_2
REMARK    2  A    between atoms: C_2  and  C_4
REMARK    3  A    between atoms: C_2  and  N_17
REMARK    4  A    between atoms: N_9  and  C_10
REMARK    5  A    between atoms: C_10  and  C_11
REMARK                            x       y       z     vdW  Elec       q    Type
REMARK                         _______ _______ _______ _____ _____    ______ ____
ROOT
ATOM      1  C   UNL     1      -0.010   1.656   0.034  0.00  0.00    +0.034 C 
ATOM      2  C   UNL     1      -0.059   0.134  -0.121  0.00  0.00    +0.140 C 
ENDROOT
BRANCH   2   3
ATOM      3  N   UNL     1       0.393  -0.499   1.125  0.00  0.00    -0.289 NA
ATOM      4  C   UNL     1      -0.653  -0.440   2.155  0.00  0.00    +0.104 C 
ATOM      5  C   UNL     1      -0.217  -1.265   3.370  0.00  0.00    +0.122 C 
ATOM      6  N   UNL     1       1.108  -0.795   3.802  0.00  0.00    -0.313 N 
ATOM      7  C   UNL     1       2.174  -0.696   2.794  0.00  0.00    +0.122 C 
ATOM      8  C   UNL     1       1.643   0.106   1.601  0.00  0.00    +0.104 C 
ATOM      9  C   UNL     1       1.347  -0.453   5.129  0.00  0.00    +0.121 A 
ATOM     10  C   UNL     1       0.399  -0.759   6.101  0.00  0.00    +0.045 A 
ATOM     11  C   UNL     1       0.649  -0.414   7.416  0.00  0.00    +0.025 A 
ATOM     12  C   UNL     1       1.844   0.228   7.718  0.00  0.00    +0.059 A 
ATOM     13  C   UNL     1       2.740   0.501   6.703  0.00  0.00    +0.132 A 
ATOM     14  N   UNL     1       2.476   0.155   5.457  0.00  0.00    -0.239 NA
ATOM     15 CL   UNL     1       2.207   0.683   9.354  0.00  0.00    -0.082 Cl
ENDBRANCH   2   3
BRANCH   2  16
ATOM     16  C   UNL     1       0.844  -0.284  -1.253  0.00  0.00    +0.237 C 
ATOM     17  O   UNL     1       1.909  -0.812  -1.015  0.00  0.00    -0.274 OA
ATOM     18  N   UNL     1       0.466  -0.072  -2.529  0.00  0.00    -0.239 N 
ATOM     19  C   UNL     1       1.273  -0.447  -3.541  0.00  0.00    +0.306 C 
ATOM     20  O   UNL     1       2.341  -0.975  -3.303  0.00  0.00    -0.252 OA
ATOM     21  N   UNL     1       0.896  -0.235  -4.818  0.00  0.00    -0.297 N 
ATOM     22  H   UNL     1      -0.386   0.350  -2.719  0.00  0.00    +0.159 HD
ATOM     23  H   UNL     1       0.044   0.187  -5.008  0.00  0.00    +0.150 HD
BRANCH  21  24
ATOM     24  C   UNL     1       1.773  -0.642  -5.918  0.00  0.00    +0.137 C 
BRANCH  24  25
ATOM     25  C   UNL     1       1.114  -0.290  -7.253  0.00  0.00    +0.135 C 
ATOM     26  C   UNL     1       1.974  -0.823  -8.419  0.00  0.00    +0.035 C 
ATOM     27  C   UNL     1       1.865   0.324  -9.460  0.00  0.00    +0.031 C 
ATOM     28  C   UNL     1       1.796   1.561  -8.530  0.00  0.00    +0.160 C 
ATOM     29  O   UNL     1       1.027   1.133  -7.392  0.00  0.00    -0.375 OA
ENDBRANCH  24  25
ENDBRANCH  21  24
ENDBRANCH   2  16
TORSDOF 4
