REMARK  Name = ZINC37439601
REMARK  7 active torsions:
REMARK  status: ('A' for Active; 'I' for Inactive)
REMARK    1  A    between atoms: C_1  and  C_2
REMARK    2  A    between atoms: C_2  and  C_3
REMARK    3  A    between atoms: C_3  and  N_4
REMARK    4  A    between atoms: C_12  and  C_13
REMARK    5  A    between atoms: C_13  and  C_15
REMARK    6  A    between atoms: C_13  and  N_22
REMARK    7  A    between atoms: C_15  and  C_16
REMARK                            x       y       z     vdW  Elec       q    Type
REMARK                         _______ _______ _______ _____ _____    ______ ____
ROOT
ATOM      1  N   UNL     1      -1.413  -1.998   0.005  0.00  0.00    -0.329 N 
ATOM      2  C   UNL     1      -1.407  -2.811  -1.113  0.00  0.00    +0.069 A 
ATOM      3  C   UNL     1      -1.416  -2.572  -2.480  0.00  0.00    +0.031 A 
ATOM      4  C   UNL     1      -1.405  -3.631  -3.362  0.00  0.00    +0.040 A 
ATOM      5  C   UNL     1      -1.385  -4.939  -2.892  0.00  0.00    +0.126 A 
ATOM      6  C   UNL     1      -1.377  -5.194  -1.538  0.00  0.00    +0.068 A 
ATOM      7  C   UNL     1      -1.387  -4.131  -0.631  0.00  0.00    +0.092 A 
ATOM      8  N   UNL     1      -1.382  -4.058   0.725  0.00  0.00    -0.234 NA
ATOM      9  C   UNL     1      -1.392  -2.811   1.096  0.00  0.00    +0.097 A 
ATOM     10  F   UNL     1      -1.375  -5.966  -3.768  0.00  0.00    -0.205 F 
ENDROOT
BRANCH   1  11
ATOM     11  C   UNL     1      -1.433  -0.534   0.013  0.00  0.00    +0.123 C 
BRANCH  11  13
ATOM     12  C   UNL     1      -0.019   1.526   0.010  0.00  0.00    +0.005 C 
ATOM     13  C   UNL     1       0.002  -0.004   0.002  0.00  0.00    +0.018 C 
ENDBRANCH  11  13
ENDBRANCH   1  11
BRANCH   9  14
ATOM     14  C   UNL     1      -1.385  -2.335   2.526  0.00  0.00    -0.002 C 
BRANCH  14  15
ATOM     15  N   UNL     1      -0.388  -3.096   3.290  0.00  0.00    +0.385 N 
ATOM     16  H   UNL     1      -0.621  -4.078   3.263  0.00  0.00    -0.089 HD
ATOM     17  H   UNL     1       0.525  -2.957   2.885  0.00  0.00    -0.089 HD
ATOM     18  H   UNL     1      -0.383  -2.778   4.247  0.00  0.00    -0.089 HD
ENDBRANCH  14  15
BRANCH  14  19
ATOM     19  C   UNL     1      -2.770  -2.547   3.141  0.00  0.00    +0.048 C 
BRANCH  19  20
ATOM     20  C   UNL     1      -2.798  -1.961   4.529  0.00  0.00    +0.058 A 
ATOM     21  C   UNL     1      -3.682  -1.053   4.986  0.00  0.00    +0.107 A 
ATOM     22  N   UNL     1      -3.349  -0.798   6.289  0.00  0.00    -0.351 N 
ATOM     23  H   UNL     1      -3.801  -0.185   6.889  0.00  0.00    +0.166 HD
ATOM     24  C   UNL     1      -2.273  -1.560   6.583  0.00  0.00    +0.196 A 
ATOM     25  N   UNL     1      -1.952  -2.256   5.527  0.00  0.00    -0.241 NA
ENDBRANCH  19  20
ENDBRANCH  14  19
ENDBRANCH   9  14
TORSDOF 6
