REMARK  Name = ZINC25501238
REMARK  3 active torsions:
REMARK  status: ('A' for Active; 'I' for Inactive)
REMARK    1  A    between atoms: C_3  and  S_8
REMARK    2  A    between atoms: C_6  and  N_7
REMARK    3  A    between atoms: S_8  and  N_11
REMARK                            x       y       z     vdW  Elec       q    Type
REMARK                         _______ _______ _______ _____ _____    ______ ____
ROOT
ATOM      1  S   UNL     1       5.008   1.139  -0.041  0.00  0.00    +0.073 S 
ATOM      2  O   UNL     1       6.063   2.091  -0.073  0.00  0.00    -0.150 OA
ATOM      3  O   UNL     1       4.900   0.157   0.981  0.00  0.00    -0.150 OA
ENDROOT
BRANCH   1   4
ATOM      4  N   UNL     1       3.594   1.999  -0.022  0.00  0.00    -0.199 N 
ATOM      5  C   UNL     1       2.374   1.332  -0.013  0.00  0.00    +0.138 A 
ATOM      6  C   UNL     1       1.190   2.062   0.002  0.00  0.00    +0.046 A 
ATOM      7  C   UNL     1      -0.017   1.385   0.010  0.00  0.00    +0.019 A 
ATOM      8  C   UNL     1       0.002  -0.004   0.002  0.00  0.00    +0.032 A 
ATOM      9  C   UNL     1       1.215  -0.664  -0.013  0.00  0.00    +0.127 A 
ATOM     10  N   UNL     1       2.351   0.008  -0.020  0.00  0.00    -0.238 NA
ATOM     11  I   UNL     1      -1.791  -1.087   0.014  0.00  0.00    -0.042 I 
ATOM     12  H   UNL     1       3.619   3.099  -0.016  0.00  0.00    +0.175 HD
ENDBRANCH   1   4
BRANCH   1  15
ATOM     13  C   UNL     1       5.701   0.179  -3.879  0.00  0.00    +0.024 A 
ATOM     14  C   UNL     1       5.652   0.858  -2.678  0.00  0.00    +0.030 A 
ATOM     15  C   UNL     1       5.069   0.269  -1.572  0.00  0.00    +0.109 A 
ATOM     16  C   UNL     1       4.538  -1.005  -1.662  0.00  0.00    +0.030 A 
ATOM     17  C   UNL     1       4.578  -1.688  -2.862  0.00  0.00    +0.024 A 
ATOM     18  C   UNL     1       5.163  -1.098  -3.976  0.00  0.00    +0.025 A 
BRANCH  18  19
ATOM     19  N   UNL     1       5.210  -1.788  -5.189  0.00  0.00    -0.358 N 
ATOM     20  H   UNL     1       4.784  -2.799  -5.264  0.00  0.00    +0.142 HD
ATOM     21  H   UNL     1       5.674  -1.320  -6.070  0.00  0.00    +0.142 HD
ENDBRANCH  18  19
ENDBRANCH   1  15
TORSDOF 3
