REMARK  Name = ZINC20440508
REMARK  7 active torsions:
REMARK  status: ('A' for Active; 'I' for Inactive)
REMARK    1  A    between atoms: C_1  and  C_2
REMARK    2  A    between atoms: C_2  and  C_3
REMARK    3  A    between atoms: C_3  and  C_4
REMARK    4  A    between atoms: C_4  and  N_5
REMARK    5  A    between atoms: C_9  and  N_10
REMARK    6  A    between atoms: N_10  and  C_11
REMARK    7  A    between atoms: C_17  and  N_19
REMARK                            x       y       z     vdW  Elec       q    Type
REMARK                         _______ _______ _______ _____ _____    ______ ____
ROOT
ATOM      1  N   UNL     1       1.391  -2.875  -2.385  0.00  0.00    -0.222 N 
ATOM      2  C   UNL     1       0.713  -2.875  -3.551  0.00  0.00    +0.260 C 
ATOM      3  O   UNL     1      -0.425  -2.449  -3.612  0.00  0.00    -0.269 OA
ATOM      4  C   UNL     1       1.387  -3.405  -4.750  0.00  0.00    +0.113 C 
ATOM      5  C   UNL     1       0.755  -3.437  -5.979  0.00  0.00    +0.086 C 
ATOM      6  C   UNL     1       2.766  -3.899  -4.580  0.00  0.00    +0.258 C 
ATOM      7  O   UNL     1       3.388  -4.351  -5.523  0.00  0.00    -0.270 OA
ATOM      8  N   UNL     1       3.319  -3.837  -3.352  0.00  0.00    -0.235 N 
ATOM      9  C   UNL     1       2.647  -3.337  -2.305  0.00  0.00    +0.315 C 
ATOM     10  O   UNL     1       3.205  -3.304  -1.226  0.00  0.00    -0.252 OA
ATOM     11  H   UNL     1       4.225  -4.159  -3.223  0.00  0.00    +0.159 HD
ENDROOT
BRANCH   5  12
ATOM     12  N   UNL     1       1.449  -3.773  -7.085  0.00  0.00    -0.348 N 
ATOM     13  H   UNL     1       2.407  -3.914  -7.032  0.00  0.00    +0.146 HD
BRANCH  12  14
ATOM     14  C   UNL     1       0.755  -3.925  -8.366  0.00  0.00    +0.055 C 
ATOM     15  C   UNL     1       0.184  -5.340  -8.472  0.00  0.00    +0.020 C 
ATOM     16  C   UNL     1      -0.540  -5.499  -9.811  0.00  0.00    +0.002 C 
ATOM     17  C   UNL     1       0.446  -5.260 -10.956  0.00  0.00    -0.001 C 
ATOM     18  C   UNL     1       1.017  -3.844 -10.850  0.00  0.00    -0.014 C 
ATOM     19  C   UNL     1       1.742  -3.686  -9.511  0.00  0.00    -0.055 C 
BRANCH  19  20
ATOM     20  N   UNL     1       2.290  -2.327  -9.409  0.00  0.00    +0.381 N 
ATOM     21  H   UNL     1       2.768  -2.222  -8.527  0.00  0.00    -0.090 HD
ATOM     22  H   UNL     1       2.940  -2.169 -10.165  0.00  0.00    -0.090 HD
ATOM     23  H   UNL     1       1.539  -1.655  -9.467  0.00  0.00    -0.090 HD
ENDBRANCH  19  20
ENDBRANCH  12  14
ENDBRANCH   5  12
BRANCH   1  24
ATOM     24  C   UNL     1       0.742  -2.353  -1.180  0.00  0.00    +0.118 C 
BRANCH  24  25
ATOM     25  C   UNL     1       1.020  -0.854  -1.060  0.00  0.00    +0.019 C 
BRANCH  25  27
ATOM     26  C   UNL     1       0.620   1.191   0.319  0.00  0.00    +0.004 C 
ATOM     27  C   UNL     1       0.343  -0.308   0.199  0.00  0.00    -0.002 C 
ENDBRANCH  25  27
ENDBRANCH  24  25
ENDBRANCH   1  24
TORSDOF 6
