REMARK  Name = ZINC50927113
REMARK  5 active torsions:
REMARK  status: ('A' for Active; 'I' for Inactive)
REMARK    1  A    between atoms: C_4  and  C_7
REMARK    2  A    between atoms: C_7  and  C_25
REMARK    3  A    between atoms: N_10  and  C_14
REMARK    4  A    between atoms: C_14  and  N_15
REMARK    5  A    between atoms: C_19  and  C_22
REMARK                            x       y       z     vdW  Elec       q    Type
REMARK                         _______ _______ _______ _____ _____    ______ ____
ROOT
ATOM      1  C   UNL     1       3.711  -0.707  -0.038  0.00  0.00    +0.164 C 
ATOM      2  C   UNL     1       4.277  -0.758   1.368  0.00  0.00    +0.257 C 
ATOM      3  O   UNL     1       3.770  -1.270   2.343  0.00  0.00    -0.272 OA
ATOM      4  N   UNL     1       5.461  -0.117   1.307  0.00  0.00    -0.210 N 
ATOM      5  C   UNL     1       5.719   0.327   0.072  0.00  0.00    +0.311 C 
ATOM      6  O   UNL     1       6.727   0.934  -0.231  0.00  0.00    -0.252 OA
ATOM      7  N   UNL     1       4.739   0.025  -0.798  0.00  0.00    -0.278 N 
ATOM      8  H   UNL     1       4.713   0.246  -1.742  0.00  0.00    +0.152 HD
ENDROOT
BRANCH   1  12
ATOM      9  C   UNL     1       0.004   1.414  -0.091  0.00  0.00    +0.000 A 
ATOM     10  C   UNL     1       0.954   1.658  -1.065  0.00  0.00    +0.000 A 
ATOM     11  C   UNL     1       2.153   0.972  -1.048  0.00  0.00    +0.006 A 
ATOM     12  C   UNL     1       2.404   0.042  -0.056  0.00  0.00    -0.011 A 
ATOM     13  C   UNL     1       1.454  -0.201   0.919  0.00  0.00    +0.006 A 
ATOM     14  C   UNL     1       0.254   0.484   0.901  0.00  0.00    +0.000 A 
ENDBRANCH   1  12
BRANCH   1  15
ATOM     15  C   UNL     1       3.532  -2.097  -0.591  0.00  0.00    -0.011 A 
ATOM     16  C   UNL     1       4.301  -2.520  -1.659  0.00  0.00    +0.006 A 
ATOM     17  C   UNL     1       4.136  -3.796  -2.167  0.00  0.00    +0.000 A 
ATOM     18  C   UNL     1       3.204  -4.648  -1.607  0.00  0.00    +0.000 A 
ATOM     19  C   UNL     1       2.435  -4.225  -0.538  0.00  0.00    +0.000 A 
ATOM     20  C   UNL     1       2.603  -2.951  -0.027  0.00  0.00    +0.006 A 
ENDBRANCH   1  15
BRANCH   4  21
ATOM     21  C   UNL     1       6.355   0.071   2.453  0.00  0.00    +0.205 C 
BRANCH  21  22
ATOM     22  N   UNL     1       7.285  -1.063   2.539  0.00  0.00    -0.281 NA
ATOM     23  C   UNL     1       6.653  -2.215   3.197  0.00  0.00    +0.114 C 
ATOM     24  C   UNL     1       7.635  -3.389   3.212  0.00  0.00    +0.176 C 
ATOM     25  O   UNL     1       8.842  -2.987   3.866  0.00  0.00    -0.365 OA
ATOM     26  C   UNL     1       9.484  -1.868   3.251  0.00  0.00    +0.217 C 
ATOM     27  C   UNL     1       8.521  -0.678   3.236  0.00  0.00    +0.127 C 
BRANCH  26  28
ATOM     28  C   UNL     1      10.721  -1.506   4.032  0.00  0.00    +0.241 C 
ATOM     29  O   UNL     1      10.975  -2.083   5.067  0.00  0.00    -0.273 OA
ATOM     30  N   UNL     1      11.546  -0.540   3.579  0.00  0.00    -0.327 N 
ATOM     31  H   UNL     1      11.343  -0.078   2.750  0.00  0.00    +0.145 HD
ATOM     32  H   UNL     1      12.342  -0.307   4.082  0.00  0.00    +0.145 HD
ENDBRANCH  26  28
ENDBRANCH  21  22
ENDBRANCH   4  21
TORSDOF 5
