REMARK  Name = ZINC32282160
REMARK  4 active torsions:
REMARK  status: ('A' for Active; 'I' for Inactive)
REMARK    1  A    between atoms: C_1  and  C_2
REMARK    2  A    between atoms: C_2  and  C_4
REMARK    3  A    between atoms: C_2  and  N_15
REMARK    4  A    between atoms: C_16  and  C_18
REMARK                            x       y       z     vdW  Elec       q    Type
REMARK                         _______ _______ _______ _____ _____    ______ ____
ROOT
ATOM      1  N   UNL     1       0.311  -0.096   2.749  0.00  0.00    -0.308 N 
ATOM      2  C   UNL     1       0.057   1.202   2.487  0.00  0.00    +0.218 C 
ATOM      3  O   UNL     1       0.468   2.063   3.235  0.00  0.00    -0.275 OA
ATOM      4  H   UNL     1      -0.062  -0.877   2.071  0.00  0.00    +0.149 HD
ENDROOT
BRANCH   2   5
ATOM      5  C   UNL     1      -0.739   1.581   1.265  0.00  0.00    +0.092 C 
ATOM      6  C   UNL     1      -0.882   3.104   1.197  0.00  0.00    +0.016 C 
ATOM      7  C   UNL     1      -1.714   3.489  -0.028  0.00  0.00    +0.020 C 
ATOM      8  C   UNL     1      -0.998   3.015  -1.296  0.00  0.00    +0.109 C 
ATOM      9  N   UNL     1      -0.730   1.575  -1.177  0.00  0.00    -0.285 N 
ATOM     10  C   UNL     1      -0.015   1.085   0.009  0.00  0.00    +0.122 C 
ATOM     11  C   UNL     1      -1.132   0.720  -2.138  0.00  0.00    +0.300 C 
ATOM     12  O   UNL     1      -0.826  -0.455  -2.074  0.00  0.00    -0.253 OA
ATOM     13  N   UNL     1      -1.875   1.167  -3.170  0.00  0.00    -0.313 N 
ATOM     14  H   UNL     1      -2.204   0.469  -3.954  0.00  0.00    +0.146 HD
ATOM     15  H   UNL     1      -2.153   2.229  -3.228  0.00  0.00    +0.146 HD
ENDBRANCH   2   5
BRANCH   1  17
ATOM     16  C   UNL     1       0.150  -0.555   5.146  0.00  0.00    +0.033 C 
ATOM     17  C   UNL     1       1.084  -0.465   3.938  0.00  0.00    +0.100 C 
BRANCH  17  18
ATOM     18  C   UNL     1       1.744  -1.801   3.712  0.00  0.00    -0.024 A 
ATOM     19  C   UNL     1       1.054  -2.811   3.067  0.00  0.00    +0.009 A 
ATOM     20  C   UNL     1       1.656  -4.037   2.852  0.00  0.00    +0.050 A 
ATOM     21  C   UNL     1       2.950  -4.254   3.295  0.00  0.00    +0.162 A 
ATOM     22  C   UNL     1       3.641  -3.243   3.946  0.00  0.00    +0.162 A 
ATOM     23  C   UNL     1       3.037  -2.014   4.156  0.00  0.00    +0.055 A 
ATOM     24  O   UNL     1       4.916  -3.467   4.378  0.00  0.00    -0.488 OA
ATOM     25  C   UNL     1       5.057  -4.399   5.452  0.00  0.00    +0.232 C 
ATOM     26  C   UNL     1       5.104  -5.825   4.926  0.00  0.00    +0.082 C 
ATOM     27  C   UNL     1       3.799  -6.241   4.266  0.00  0.00    +0.232 C 
ATOM     28  O   UNL     1       3.553  -5.462   3.093  0.00  0.00    -0.488 OA
ENDBRANCH  17  18
ENDBRANCH   1  17
TORSDOF 3
