REMARK  Name = ZINC40328328
REMARK  3 active torsions:
REMARK  status: ('A' for Active; 'I' for Inactive)
REMARK    1  A    between atoms: C_1  and  N_2
REMARK    2  A    between atoms: C_4  and  N_21
REMARK    3  A    between atoms: C_6  and  C_7
REMARK                            x       y       z     vdW  Elec       q    Type
REMARK                         _______ _______ _______ _____ _____    ______ ____
ROOT
ATOM      1  C   UNL     1      -0.187  -0.371   2.506  0.00  0.00    +0.264 C 
ATOM      2  O   UNL     1      -0.135  -1.185   3.410  0.00  0.00    -0.268 OA
ATOM      3  N   UNL     1      -0.390   0.932   2.783  0.00  0.00    -0.289 N 
ATOM      4  C   UNL     1      -0.617   1.913   1.709  0.00  0.00    +0.136 C 
ATOM      5  C   UNL     1       0.342   3.091   1.913  0.00  0.00    +0.179 C 
ATOM      6  O   UNL     1       0.224   3.573   3.254  0.00  0.00    -0.373 OA
ATOM      7  C   UNL     1       0.575   2.610   4.248  0.00  0.00    +0.139 C 
ATOM      8  C   UNL     1      -0.400   1.425   4.173  0.00  0.00    +0.105 C 
ATOM      9  C   UNL     1      -1.817   1.899   4.505  0.00  0.00    +0.025 C 
ATOM     10  C   UNL     1      -1.844   2.506   5.908  0.00  0.00    +0.002 C 
ATOM     11  C   UNL     1      -0.896   3.706   5.958  0.00  0.00    +0.003 C 
ATOM     12  C   UNL     1       0.523   3.236   5.638  0.00  0.00    +0.033 C 
ENDROOT
BRANCH   1  18
ATOM     13  C   UNL     1      -0.848  -3.184   1.396  0.00  0.00    +0.149 C 
ATOM     14  N   UNL     1      -0.322  -2.059   0.619  0.00  0.00    -0.344 N 
ATOM     15  C   UNL     1      -0.048  -2.074  -0.713  0.00  0.00    +0.108 A 
ATOM     16  C   UNL     1       0.422  -0.852  -1.076  0.00  0.00    +0.043 A 
ATOM     17  C   UNL     1       0.444  -0.044   0.069  0.00  0.00    +0.055 A 
ATOM     18  C   UNL     1      -0.029  -0.810   1.115  0.00  0.00    +0.106 A 
BRANCH  16  19
ATOM     19  N   UNL     1       0.818  -0.467  -2.370  0.00  0.00    -0.357 N 
ATOM     20  H   UNL     1       0.766  -1.102  -3.102  0.00  0.00    +0.142 HD
ATOM     21  H   UNL     1       1.143   0.433  -2.531  0.00  0.00    +0.142 HD
ENDBRANCH  16  19
ENDBRANCH   1  18
TORSDOF 2
