REMARK  Name = ZINC25261869
REMARK  7 active torsions:
REMARK  status: ('A' for Active; 'I' for Inactive)
REMARK    1  A    between atoms: C_1  and  C_2
REMARK    2  A    between atoms: C_2  and  C_3
REMARK    3  A    between atoms: C_3  and  C_5
REMARK    4  A    between atoms: C_3  and  C_6
REMARK    5  A    between atoms: C_6  and  C_8
REMARK    6  A    between atoms: C_6  and  N_24
REMARK    7  A    between atoms: N_10  and  C_11
REMARK                            x       y       z     vdW  Elec       q    Type
REMARK                         _______ _______ _______ _____ _____    ______ ____
ROOT
ATOM      1  C   UNL     1       0.589   3.923   0.140  0.00  0.00    +0.238 C 
ATOM      2  O   UNL     1      -0.140   3.203   0.789  0.00  0.00    -0.273 OA
ATOM      3  N   UNL     1       1.752   3.444  -0.343  0.00  0.00    -0.284 N 
ATOM      4  H   UNL     1       2.469   4.125  -0.827  0.00  0.00    +0.155 HD
ENDROOT
BRANCH   3   5
ATOM      5  C   UNL     1       2.049   2.082  -0.230  0.00  0.00    +0.034 A 
ATOM      6  C   UNL     1       1.562   1.351   0.847  0.00  0.00    +0.024 A 
ATOM      7  C   UNL     1       1.853   0.010   0.962  0.00  0.00    +0.010 A 
ATOM      8  C   UNL     1       2.638  -0.622  -0.005  0.00  0.00    -0.014 A 
ATOM      9  C   UNL     1       3.123   0.117  -1.083  0.00  0.00    -0.034 A 
ATOM     10  C   UNL     1       2.831   1.458  -1.195  0.00  0.00    +0.028 A 
ATOM     11  C   UNL     1       3.927  -0.820  -1.951  0.00  0.00    +0.071 C 
ATOM     12  C   UNL     1       3.864  -2.169  -1.278  0.00  0.00    -0.035 A 
ATOM     13  C   UNL     1       3.095  -2.028  -0.126  0.00  0.00    -0.014 A 
ATOM     14  C   UNL     1       2.876  -3.139   0.692  0.00  0.00    +0.009 A 
ATOM     15  C   UNL     1       3.420  -4.361   0.354  0.00  0.00    +0.001 A 
ATOM     16  C   UNL     1       4.183  -4.491  -0.793  0.00  0.00    +0.000 A 
ATOM     17  C   UNL     1       4.404  -3.395  -1.607  0.00  0.00    +0.004 A 
ENDBRANCH   3   5
BRANCH   1  18
ATOM     18  C   UNL     1       0.194   5.352  -0.126  0.00  0.00    +0.163 C 
BRANCH  18  19
ATOM     19  N   UNL     1      -1.267   5.456  -0.165  0.00  0.00    -0.288 N 
ATOM     20  C   UNL     1      -1.854   6.454  -0.856  0.00  0.00    +0.298 C 
ATOM     21  O   UNL     1      -1.170   7.267  -1.447  0.00  0.00    -0.253 OA
ATOM     22  N   UNL     1      -3.197   6.549  -0.892  0.00  0.00    -0.313 N 
ATOM     23  H   UNL     1      -1.885   4.720   0.370  0.00  0.00    +0.151 HD
ATOM     24  H   UNL     1      -3.676   7.363  -1.456  0.00  0.00    +0.146 HD
ATOM     25  H   UNL     1      -3.816   5.813  -0.358  0.00  0.00    +0.146 HD
ENDBRANCH  18  19
BRANCH  18  26
ATOM     26  C   UNL     1       0.739   6.248   0.989  0.00  0.00    +0.015 C 
ATOM     27  C   UNL     1       0.020   5.925   2.300  0.00  0.00    +0.010 C 
BRANCH  26  29
ATOM     28  C   UNL     1       1.157   8.613   1.677  0.00  0.00    +0.004 C 
ATOM     29  C   UNL     1       0.503   7.715   0.625  0.00  0.00    +0.002 C 
ENDBRANCH  26  29
ENDBRANCH  18  26
ENDBRANCH   1  18
TORSDOF 5
