REMARK  Name = ZINC41327500
REMARK  4 active torsions:
REMARK  status: ('A' for Active; 'I' for Inactive)
REMARK    1  A    between atoms: C_1  and  C_2
REMARK    2  A    between atoms: C_4  and  C_15
REMARK    3  A    between atoms: N_6  and  C_7
REMARK    4  A    between atoms: C_15  and  O_16
REMARK                            x       y       z     vdW  Elec       q    Type
REMARK                         _______ _______ _______ _____ _____    ______ ____
ROOT
ATOM      1  C   UNL     1      -0.379   1.473   0.053  0.00  0.00    +0.066 C 
ATOM      2  C   UNL     1      -0.154  -0.017   0.021  0.00  0.00    +0.042 A 
ATOM      3  C   UNL     1      -0.182  -0.805  -1.079  0.00  0.00    +0.050 A 
ATOM      4  C   UNL     1       0.076  -2.119  -0.675  0.00  0.00    +0.089 A 
ATOM      5  N   UNL     1       0.253  -2.121   0.622  0.00  0.00    -0.169 NA
ATOM      6  N   UNL     1       0.118  -0.806   1.085  0.00  0.00    -0.235 N 
ENDROOT
BRANCH   6   7
ATOM      7  C   UNL     1       0.242  -0.383   2.416  0.00  0.00    +0.085 A 
ATOM      8  C   UNL     1       1.028   0.719   2.725  0.00  0.00    +0.049 A 
ATOM      9  C   UNL     1       1.147   1.134   4.038  0.00  0.00    +0.043 A 
ATOM     10  C   UNL     1       0.484   0.452   5.044  0.00  0.00    +0.021 A 
ATOM     11  C   UNL     1      -0.300  -0.645   4.739  0.00  0.00    +0.023 A 
ATOM     12  C   UNL     1      -0.427  -1.062   3.426  0.00  0.00    +0.066 A 
ATOM     13 CL   UNL     1      -1.417  -2.436   3.043  0.00  0.00    -0.081 Cl
ATOM     14 CL   UNL     1       2.129   2.511   4.427  0.00  0.00    -0.083 Cl
ENDBRANCH   6   7
BRANCH   4  15
ATOM     15  C   UNL     1       0.139  -3.324  -1.577  0.00  0.00    +0.213 C 
BRANCH  15  16
ATOM     16  O   UNL     1      -0.107  -2.923  -2.926  0.00  0.00    -0.389 OA
ATOM     17  H   UNL     1      -0.082  -3.650  -3.564  0.00  0.00    +0.210 HD
ENDBRANCH  15  16
ENDBRANCH   4  15
TORSDOF 3
