REMARK  Name = ZINC13582078
REMARK  5 active torsions:
REMARK  status: ('A' for Active; 'I' for Inactive)
REMARK    1  A    between atoms: C_1  and  C_2
REMARK    2  A    between atoms: C_5  and  C_26
REMARK    3  A    between atoms: C_6  and  N_8
REMARK    4  A    between atoms: N_8  and  S_9
REMARK    5  A    between atoms: S_9  and  C_12
REMARK                            x       y       z     vdW  Elec       q    Type
REMARK                         _______ _______ _______ _____ _____    ______ ____
ROOT
ATOM      1  C   UNL     1       1.288   2.194  -0.125  0.00  0.00    +0.111 A 
ATOM      2  C   UNL     1       2.524   1.571  -0.152  0.00  0.00    +0.031 A 
ATOM      3  C   UNL     1       2.609   0.197  -0.240  0.00  0.00    +0.030 A 
ATOM      4  C   UNL     1       1.450  -0.569  -0.302  0.00  0.00    +0.066 A 
ATOM      5  C   UNL     1       0.203   0.059  -0.275  0.00  0.00    +0.068 A 
ATOM      6  C   UNL     1       0.131   1.445  -0.187  0.00  0.00    +0.056 A 
ATOM      7  N   UNL     1      -0.969  -0.691  -0.337  0.00  0.00    -0.316 N 
ATOM      8  H   UNL     1      -1.830  -0.245  -0.317  0.00  0.00    +0.169 HD
ATOM      9  C   UNL     1      -0.908  -2.035  -0.422  0.00  0.00    +0.314 A 
ATOM     10  O   UNL     1      -1.927  -2.693  -0.477  0.00  0.00    -0.262 OA
ATOM     11  C   UNL     1       0.424  -2.706  -0.451  0.00  0.00    +0.314 A 
ATOM     12  O   UNL     1       0.501  -3.915  -0.528  0.00  0.00    -0.262 OA
ATOM     13  N   UNL     1       1.543  -1.955  -0.390  0.00  0.00    -0.316 N 
ATOM     14  H   UNL     1       2.414  -2.382  -0.407  0.00  0.00    +0.169 HD
ENDROOT
BRANCH   1  15
ATOM     15  S   UNL     1       1.191   3.950  -0.013  0.00  0.00    +0.072 S 
ATOM     16  O   UNL     1       2.419   4.457  -0.519  0.00  0.00    -0.150 OA
ATOM     17  O   UNL     1      -0.068   4.323  -0.555  0.00  0.00    -0.150 OA
BRANCH  15  18
ATOM     18  N   UNL     1       1.147   4.336   1.597  0.00  0.00    -0.216 N 
ATOM     19  H   UNL     1       0.383   4.811   1.960  0.00  0.00    +0.174 HD
BRANCH  18  25
ATOM     20  C   UNL     1       5.971   3.669   2.253  0.00  0.00    +0.044 C 
ATOM     21  C   UNL     1       4.558   3.645   2.775  0.00  0.00    -0.049 A 
ATOM     22  C   UNL     1       4.311   3.268   4.083  0.00  0.00    +0.004 A 
ATOM     23  C   UNL     1       3.016   3.245   4.566  0.00  0.00    +0.005 A 
ATOM     24  C   UNL     1       1.964   3.603   3.746  0.00  0.00    -0.028 A 
ATOM     25  C   UNL     1       2.208   3.977   2.430  0.00  0.00    +0.051 A 
ATOM     26  C   UNL     1       3.511   4.000   1.948  0.00  0.00    +0.028 A 
ATOM     27  C   UNL     1       0.553   3.583   4.275  0.00  0.00    +0.046 C 
ENDBRANCH  18  25
ENDBRANCH  15  18
ENDBRANCH   1  15
TORSDOF 3
