REMARK  Name = ZINC39922307
REMARK  6 active torsions:
REMARK  status: ('A' for Active; 'I' for Inactive)
REMARK    1  A    between atoms: C_3  and  S_27
REMARK    2  A    between atoms: C_6  and  N_7
REMARK    3  A    between atoms: C_8  and  C_10
REMARK    4  A    between atoms: C_10  and  S_11
REMARK    5  A    between atoms: S_11  and  C_12
REMARK    6  A    between atoms: S_27  and  N_30
REMARK                            x       y       z     vdW  Elec       q    Type
REMARK                         _______ _______ _______ _____ _____    ______ ____
ROOT
ATOM      1  N   UNL     1      -1.199  -0.722   0.010  0.00  0.00    -0.285 N 
ATOM      2  C   UNL     1      -1.183  -2.065  -0.099  0.00  0.00    +0.227 C 
ATOM      3  O   UNL     1      -0.125  -2.659  -0.113  0.00  0.00    -0.275 OA
ATOM      4  H   UNL     1      -2.044  -0.253   0.098  0.00  0.00    +0.155 HD
ENDROOT
BRANCH   1  10
ATOM      5  C   UNL     1       1.072  -0.453  -0.766  0.00  0.00    +0.025 A 
ATOM      6  C   UNL     1       2.256   0.259  -0.778  0.00  0.00    +0.030 A 
ATOM      7  C   UNL     1       2.376   1.416  -0.032  0.00  0.00    +0.105 A 
ATOM      8  C   UNL     1       1.312   1.866   0.729  0.00  0.00    +0.030 A 
ATOM      9  C   UNL     1       0.126   1.160   0.744  0.00  0.00    +0.025 A 
ATOM     10  C   UNL     1       0.002  -0.004  -0.004  0.00  0.00    +0.034 A 
BRANCH   7  11
ATOM     11  S   UNL     1       3.889   2.320  -0.048  0.00  0.00    +0.056 S 
ATOM     12  O   UNL     1       3.928   3.069   1.159  0.00  0.00    -0.153 OA
ATOM     13  O   UNL     1       4.909   1.398  -0.406  0.00  0.00    -0.153 OA
BRANCH  11  14
ATOM     14  N   UNL     1       3.789   3.419  -1.284  0.00  0.00    -0.204 NA
ATOM     15  H   UNL     1       2.989   3.462  -1.831  0.00  0.00    +0.144 HD
ATOM     16  H   UNL     1       4.530   4.019  -1.460  0.00  0.00    +0.144 HD
ENDBRANCH  11  14
ENDBRANCH   7  11
ENDBRANCH   1  10
BRANCH   2  17
ATOM     17  C   UNL     1      -2.478  -2.828  -0.204  0.00  0.00    +0.173 C 
BRANCH  17  18
ATOM     18  S   UNL     1      -2.124  -4.603  -0.337  0.00  0.00    -0.079 S 
BRANCH  18  19
ATOM     19  C   UNL     1      -3.717  -5.347  -0.450  0.00  0.00    +0.182 C 
ATOM     20  N   UNL     1      -4.781  -4.563  -0.426  0.00  0.00    -0.151 NA
ATOM     21  C   UNL     1      -6.025  -5.036  -0.500  0.00  0.00    +0.272 C 
ATOM     22  O   UNL     1      -6.985  -4.283  -0.478  0.00  0.00    -0.268 OA
ATOM     23  C   UNL     1      -6.210  -6.519  -0.612  0.00  0.00    +0.071 C 
ATOM     24  C   UNL     1      -7.364  -7.205  -0.636  0.00  0.00    -0.042 C 
ATOM     25  C   UNL     1      -8.732  -6.578  -0.379  0.00  0.00    +0.033 C 
ATOM     26  C   UNL     1      -9.377  -7.375   0.762  0.00  0.00    +0.004 C 
ATOM     27  C   UNL     1      -9.373  -8.867   0.433  0.00  0.00    +0.002 C 
ATOM     28  C   UNL     1      -7.940  -9.395   0.319  0.00  0.00    +0.019 C 
ATOM     29  C   UNL     1      -7.260  -8.709  -0.869  0.00  0.00    +0.079 C 
ATOM     30  S   UNL     1      -5.449  -8.981  -0.797  0.00  0.00    -0.097 S 
ATOM     31  C   UNL     1      -4.945  -7.286  -0.639  0.00  0.00    +0.112 C 
ATOM     32  N   UNL     1      -3.792  -6.674  -0.561  0.00  0.00    -0.217 NA
ENDBRANCH  18  19
ENDBRANCH  17  18
ENDBRANCH   2  17
TORSDOF 6
