REMARK  Name = ZINC28527370
REMARK  6 active torsions:
REMARK  status: ('A' for Active; 'I' for Inactive)
REMARK    1  A    between atoms: C_1  and  C_2
REMARK    2  A    between atoms: C_7  and  N_8
REMARK    3  A    between atoms: N_12  and  N_25
REMARK    4  A    between atoms: C_13  and  S_16
REMARK    5  A    between atoms: S_16  and  C_17
REMARK    6  A    between atoms: C_17  and  C_18
REMARK                            x       y       z     vdW  Elec       q    Type
REMARK                         _______ _______ _______ _____ _____    ______ ____
ROOT
ATOM      1  N   UNL     1       3.634  -0.434  -0.035  0.00  0.00    -0.293 N 
ATOM      2  C   UNL     1       2.373   0.164  -0.027  0.00  0.00    +0.212 A 
ATOM      3  C   UNL     1       1.199  -0.635  -0.040  0.00  0.00    +0.312 A 
ATOM      4  O   UNL     1       1.269  -1.853  -0.057  0.00  0.00    -0.262 OA
ATOM      5  N   UNL     1       0.002  -0.006  -0.032  0.00  0.00    -0.205 N 
ATOM      6  C   UNL     1      -0.018   1.359  -0.012  0.00  0.00    +0.210 A 
ATOM      7  N   UNL     1       1.108   2.046  -0.002  0.00  0.00    -0.121 NA
ATOM      8  N   UNL     1       2.259   1.474  -0.009  0.00  0.00    -0.126 NA
ATOM      9  H   UNL     1       3.725  -1.528   0.047  0.00  0.00    +0.154 HD
ENDROOT
BRANCH   1  16
ATOM     10  C   UNL     1       6.082  -1.472   0.978  0.00  0.00    +0.045 C 
ATOM     11  C   UNL     1       5.998  -0.112   0.334  0.00  0.00    -0.029 A 
ATOM     12  C   UNL     1       7.130   0.671   0.221  0.00  0.00    +0.005 A 
ATOM     13  C   UNL     1       7.053   1.919  -0.370  0.00  0.00    +0.000 A 
ATOM     14  C   UNL     1       5.843   2.387  -0.851  0.00  0.00    +0.002 A 
ATOM     15  C   UNL     1       4.709   1.607  -0.746  0.00  0.00    +0.023 A 
ATOM     16  C   UNL     1       4.781   0.355  -0.147  0.00  0.00    +0.035 A 
ENDBRANCH   1  16
BRANCH   5  17
ATOM     17  N   UNL     1      -1.163  -0.720  -0.043  0.00  0.00    -0.293 N 
ATOM     18  H   UNL     1      -2.130  -0.196  -0.036  0.00  0.00    +0.163 HD
ATOM     19  H   UNL     1      -1.133  -1.819  -0.059  0.00  0.00    +0.163 HD
ENDBRANCH   5  17
BRANCH   6  20
ATOM     20  S   UNL     1      -1.560   2.211  -0.009  0.00  0.00    -0.080 S 
BRANCH  20  21
ATOM     21  C   UNL     1      -0.974   3.923   0.019  0.00  0.00    +0.112 C 
BRANCH  21  22
ATOM     22  C   UNL     1      -2.155   4.859   0.026  0.00  0.00    -0.037 A 
ATOM     23  C   UNL     1      -2.686   5.309  -1.168  0.00  0.00    +0.005 A 
ATOM     24  C   UNL     1      -3.773   6.164  -1.162  0.00  0.00    +0.015 A 
ATOM     25  C   UNL     1      -4.322   6.576   0.038  0.00  0.00    +0.018 A 
ATOM     26  C   UNL     1      -3.787   6.129   1.233  0.00  0.00    +0.015 A 
ATOM     27  C   UNL     1      -2.703   5.271   1.226  0.00  0.00    +0.005 A 
ATOM     28 BR   UNL     1      -5.804   7.750   0.047  0.00  0.00    -0.050 Br
ENDBRANCH  21  22
ENDBRANCH  20  21
ENDBRANCH   6  20
TORSDOF 5
