REMARK  Name = ZINC43735682
REMARK  4 active torsions:
REMARK  status: ('A' for Active; 'I' for Inactive)
REMARK    1  A    between atoms: C_1  and  C_2
REMARK    2  A    between atoms: C_11  and  C_29
REMARK    3  A    between atoms: C_21  and  C_28
REMARK    4  A    between atoms: C_24  and  O_27
REMARK                            x       y       z     vdW  Elec       q    Type
REMARK                         _______ _______ _______ _____ _____    ______ ____
ROOT
ATOM      1  C   UNL     1      -0.018   1.503   0.010  0.00  0.00    +0.068 C 
ATOM      2  C   UNL     1       0.002  -0.004   0.002  0.00  0.00    +0.064 A 
ATOM      3  C   UNL     1       0.008  -0.818  -1.137  0.00  0.00    +0.002 A 
ATOM      4  C   UNL     1       0.025  -2.108  -0.725  0.00  0.00    +0.040 A 
ATOM      5  N   UNL     1       0.035  -2.107   0.626  0.00  0.00    -0.281 N 
ATOM      6  H   UNL     1       0.051  -2.892   1.197  0.00  0.00    +0.189 HD
ATOM      7  N   UNL     1       0.023  -0.775   1.058  0.00  0.00    -0.179 NA
ATOM      8  C   UNL     1       0.020  -3.039  -1.920  0.00  0.00    +0.059 C 
ATOM      9  C   UNL     1      -0.459  -2.152  -3.101  0.00  0.00    +0.009 C 
ATOM     10  C   UNL     1       0.005  -0.774  -2.647  0.00  0.00    -0.000 C 
ATOM     11  C   UNL     1      -0.766   0.399  -3.187  0.00  0.00    +0.012 C 
ATOM     12  C   UNL     1      -2.274   0.174  -3.163  0.00  0.00    +0.005 C 
ATOM     13  C   UNL     1      -2.587  -1.105  -3.943  0.00  0.00    +0.003 C 
ATOM     14  C   UNL     1      -1.968  -2.299  -3.217  0.00  0.00    +0.001 C 
ATOM     15  C   UNL     1      -2.583  -2.380  -1.815  0.00  0.00    +0.031 C 
ATOM     16  C   UNL     1      -4.078  -2.453  -1.935  0.00  0.00    -0.027 C 
ATOM     17  C   UNL     1      -4.736  -1.972  -2.949  0.00  0.00    -0.065 C 
ATOM     18  C   UNL     1      -4.085  -1.284  -4.091  0.00  0.00    -0.008 C 
ATOM     19  C   UNL     1      -4.761   0.068  -4.333  0.00  0.00    +0.014 C 
ATOM     20  C   UNL     1      -6.272  -0.136  -4.463  0.00  0.00    +0.032 C 
ATOM     21  C   UNL     1      -6.832  -0.691  -3.152  0.00  0.00    +0.119 C 
ATOM     22  C   UNL     1      -6.250  -2.096  -2.952  0.00  0.00    +0.062 C 
ATOM     23  C   UNL     1      -4.342  -2.155  -5.323  0.00  0.00    +0.016 C 
ATOM     24  C   UNL     1       1.456  -0.607  -3.100  0.00  0.00    +0.016 C 
ENDROOT
BRANCH  21  25
ATOM     25  O   UNL     1      -6.494   0.189  -2.079  0.00  0.00    -0.391 OA
ATOM     26  H   UNL     1      -6.819  -0.101  -1.215  0.00  0.00    +0.210 HD
ENDBRANCH  21  25
TORSDOF 1
