REMARK  Name = ZINC61125965
REMARK  4 active torsions:
REMARK  status: ('A' for Active; 'I' for Inactive)
REMARK    1  A    between atoms: C_3  and  C_9
REMARK    2  A    between atoms: C_4  and  O_8
REMARK    3  A    between atoms: N_15  and  C_18
REMARK    4  A    between atoms: C_18  and  C_19
REMARK                            x       y       z     vdW  Elec       q    Type
REMARK                         _______ _______ _______ _____ _____    ______ ____
ROOT
ATOM      1  C   UNL     1       3.925   2.134  -0.103  0.00  0.00    +0.250 C 
ATOM      2  O   UNL     1       5.046   1.663  -0.098  0.00  0.00    -0.270 OA
ATOM      3  N   UNL     1       3.756   3.470  -0.140  0.00  0.00    -0.299 N 
ATOM      4  C   UNL     1       2.389   4.018  -0.023  0.00  0.00    +0.106 C 
ATOM      5  C   UNL     1       2.366   5.260   0.886  0.00  0.00    +0.000 C 
ATOM      6  C   UNL     1       3.286   5.037   2.066  0.00  0.00    -0.076 C 
ATOM      7  N   UNL     1       4.606   5.584   1.757  0.00  0.00    +0.388 N 
ATOM      8  C   UNL     1       5.482   4.691   1.100  0.00  0.00    -0.059 C 
ATOM      9  C   UNL     1       4.920   4.318  -0.286  0.00  0.00    +0.089 C 
ATOM     10  H   UNL     1       4.485   6.398   1.174  0.00  0.00    -0.081 HD
ENDROOT
BRANCH   1  13
ATOM     11  C   UNL     1       0.651   0.532  -0.995  0.00  0.00    +0.021 A 
ATOM     12  C   UNL     1       1.745   1.369  -1.031  0.00  0.00    +0.018 A 
ATOM     13  C   UNL     1       2.751   1.242  -0.070  0.00  0.00    +0.078 A 
ATOM     14  C   UNL     1       2.639   0.262   0.926  0.00  0.00    +0.130 A 
ATOM     15  C   UNL     1       1.531  -0.572   0.949  0.00  0.00    +0.066 A 
ATOM     16  C   UNL     1       0.543  -0.436  -0.008  0.00  0.00    +0.044 A 
ATOM     17 CL   UNL     1      -0.841  -1.483   0.025  0.00  0.00    -0.083 Cl
BRANCH  14  18
ATOM     18  O   UNL     1       3.610   0.129   1.865  0.00  0.00    -0.506 OA
ATOM     19  H   UNL     1       3.468   0.667   2.656  0.00  0.00    +0.292 HD
ENDBRANCH  14  18
ENDBRANCH   1  13
BRANCH   7  20
ATOM     20  C   UNL     1       5.236   6.011   3.014  0.00  0.00    +0.048 C 
BRANCH  20  21
ATOM     21  C   UNL     1       4.474   7.178   3.587  0.00  0.00    +0.340 C 
ATOM     22  O   UNL     1       3.568   7.687   2.949  0.00  0.00    -0.249 OA
ATOM     23  O   UNL     1       4.765   7.614   4.687  0.00  0.00    -0.249 OA
ENDBRANCH  20  21
ENDBRANCH   7  20
TORSDOF 4
