REMARK  Name = ZINC58213217
REMARK  6 active torsions:
REMARK  status: ('A' for Active; 'I' for Inactive)
REMARK    1  A    between atoms: C_1  and  C_2
REMARK    2  A    between atoms: C_2  and  N_3
REMARK    3  A    between atoms: C_4  and  C_6
REMARK    4  A    between atoms: C_6  and  N_12
REMARK    5  A    between atoms: C_13  and  C_15
REMARK    6  A    between atoms: C_15  and  C_16
REMARK                            x       y       z     vdW  Elec       q    Type
REMARK                         _______ _______ _______ _____ _____    ______ ____
ROOT
ATOM      1  N   UNL     1      -3.874  -1.598   0.822  0.00  0.00    -0.301 N 
ATOM      2  C   UNL     1      -4.182  -0.368   0.364  0.00  0.00    +0.215 C 
ATOM      3  O   UNL     1      -3.644   0.059  -0.635  0.00  0.00    -0.276 OA
ATOM      4  H   UNL     1      -4.250  -1.913   1.659  0.00  0.00    +0.150 HD
ENDROOT
BRANCH   1   5
ATOM      5  C   UNL     1      -2.970  -2.460   0.055  0.00  0.00    +0.111 C 
ATOM      6  C   UNL     1      -3.577  -2.737  -1.322  0.00  0.00    +0.035 C 
ATOM      7  C   UNL     1      -4.927  -3.436  -1.153  0.00  0.00    +0.003 C 
ATOM      8  C   UNL     1      -4.728  -4.758  -0.407  0.00  0.00    +0.000 C 
ATOM      9  C   UNL     1      -4.122  -4.480   0.970  0.00  0.00    +0.003 C 
ATOM     10  C   UNL     1      -2.771  -3.781   0.800  0.00  0.00    +0.035 C 
BRANCH   5  12
ATOM     11  N   UNL     1      -1.151  -1.002   0.881  0.00  0.00    -0.314 N 
ATOM     12  C   UNL     1      -1.640  -1.771  -0.111  0.00  0.00    +0.237 C 
ATOM     13  O   UNL     1      -1.010  -1.909  -1.138  0.00  0.00    -0.273 OA
ATOM     14  H   UNL     1      -1.684  -0.836   1.674  0.00  0.00    +0.149 HD
BRANCH  11  16
ATOM     15  C   UNL     1       0.497   0.405   2.015  0.00  0.00    +0.024 C 
ATOM     16  C   UNL     1       0.187  -0.417   0.763  0.00  0.00    +0.101 C 
ENDBRANCH  11  16
ENDBRANCH   5  12
ENDBRANCH   1   5
BRANCH   2  17
ATOM     17  C   UNL     1      -5.195   0.475   1.094  0.00  0.00    +0.119 C 
BRANCH  17  18
ATOM     18  C   UNL     1      -5.359   1.814   0.373  0.00  0.00    +0.146 C 
ATOM     19  C   UNL     1      -6.286   2.704   1.160  0.00  0.00    +0.231 C 
ATOM     20  O   UNL     1      -5.799   3.545   1.886  0.00  0.00    -0.274 OA
ATOM     21  N   UNL     1      -7.610   2.613   1.097  0.00  0.00    -0.284 N 
ATOM     22  C   UNL     1      -8.347   1.798   0.242  0.00  0.00    +0.047 A 
ATOM     23  C   UNL     1      -9.688   1.556   0.524  0.00  0.00    +0.024 A 
ATOM     24  C   UNL     1     -10.438   0.744  -0.303  0.00  0.00    +0.002 A 
ATOM     25  C   UNL     1      -9.866   0.162  -1.420  0.00  0.00    +0.001 A 
ATOM     26  C   UNL     1      -8.536   0.397  -1.715  0.00  0.00    +0.016 A 
ATOM     27  C   UNL     1      -7.780   1.215  -0.890  0.00  0.00    +0.030 A 
ATOM     28  S   UNL     1      -6.080   1.537  -1.274  0.00  0.00    -0.110 S 
ATOM     29  H   UNL     1      -8.114   3.170   1.710  0.00  0.00    +0.155 HD
ENDBRANCH  17  18
ENDBRANCH   2  17
TORSDOF 5
