REMARK  Name = ZINC35662919
REMARK  6 active torsions:
REMARK  status: ('A' for Active; 'I' for Inactive)
REMARK    1  A    between atoms: C_1  and  C_2
REMARK    2  A    between atoms: C_2  and  C_4
REMARK    3  A    between atoms: C_2  and  O_7
REMARK    4  A    between atoms: O_7  and  C_8
REMARK    5  A    between atoms: C_9  and  C_16
REMARK    6  A    between atoms: C_17  and  C_18
REMARK                            x       y       z     vdW  Elec       q    Type
REMARK                         _______ _______ _______ _____ _____    ______ ____
ROOT
ATOM      1  C   UNL     1      -0.050  -0.699   2.273  0.00  0.00    +0.147 A 
ATOM      2  C   UNL     1      -0.251   0.333   3.204  0.00  0.00    +0.020 A 
ATOM      3  C   UNL     1      -1.020   0.091   4.349  0.00  0.00    +0.031 A 
ATOM      4  C   UNL     1      -1.574  -1.154   4.554  0.00  0.00    +0.043 A 
ATOM      5  C   UNL     1      -1.372  -2.170   3.632  0.00  0.00    +0.043 A 
ATOM      6  C   UNL     1      -0.619  -1.944   2.494  0.00  0.00    +0.085 A 
ATOM      7 CL   UNL     1      -0.381  -3.223   1.345  0.00  0.00    -0.080 Cl
ATOM      8 CL   UNL     1      -2.527  -1.453   5.973  0.00  0.00    -0.083 Cl
ENDROOT
BRANCH   2   9
ATOM      9  C   UNL     1       0.342   1.657   2.979  0.00  0.00    +0.019 C 
ATOM     10  C   UNL     1       0.145   2.649   3.879  0.00  0.00    +0.096 C 
BRANCH  10  11
ATOM     11  C   UNL     1       0.717   3.923   3.662  0.00  0.00    +0.380 C 
ATOM     12  O   UNL     1       1.389   4.130   2.659  0.00  0.00    -0.241 OA
ATOM     13  O   UNL     1       0.539   4.821   4.477  0.00  0.00    -0.241 OA
ENDBRANCH  10  11
ENDBRANCH   2   9
BRANCH   1  14
ATOM     14  O   UNL     1       0.693  -0.477   1.160  0.00  0.00    -0.478 OA
BRANCH  14  16
ATOM     15  C   UNL     1      -0.019   1.526   0.010  0.00  0.00    +0.062 C 
ATOM     16  C   UNL     1       0.002  -0.004   0.002  0.00  0.00    +0.255 C 
BRANCH  16  17
ATOM     17  C   UNL     1       0.707  -0.490  -1.238  0.00  0.00    +0.251 C 
ATOM     18  O   UNL     1       1.753  -1.097  -1.142  0.00  0.00    -0.272 OA
ATOM     19  N   UNL     1       0.176  -0.250  -2.453  0.00  0.00    -0.326 N 
ATOM     20  H   UNL     1      -0.660   0.235  -2.530  0.00  0.00    +0.145 HD
ATOM     21  H   UNL     1       0.630  -0.563  -3.251  0.00  0.00    +0.145 HD
ENDBRANCH  16  17
ENDBRANCH  14  16
ENDBRANCH   1  14
TORSDOF 5
