REMARK  Name = ZINC40177473
REMARK  6 active torsions:
REMARK  status: ('A' for Active; 'I' for Inactive)
REMARK    1  A    between atoms: C_7  and  N_9
REMARK    2  A    between atoms: N_9  and  C_10
REMARK    3  A    between atoms: C_10  and  C_11
REMARK    4  A    between atoms: C_11  and  N_12
REMARK    5  A    between atoms: C_15  and  N_18
REMARK    6  A    between atoms: N_18  and  C_19
REMARK                            x       y       z     vdW  Elec       q    Type
REMARK                         _______ _______ _______ _____ _____    ______ ____
ROOT
ATOM      1  N   UNL     1      -3.108  -3.723   0.466  0.00  0.00    +0.381 N 
ATOM      2  C   UNL     1      -3.034  -3.674   1.931  0.00  0.00    -0.077 C 
ATOM      3  C   UNL     1      -3.138  -5.091   2.498  0.00  0.00    -0.000 C 
ATOM      4  C   UNL     1      -4.474  -5.708   2.073  0.00  0.00    +0.050 C 
ATOM      5  C   UNL     1      -4.572  -5.686   0.545  0.00  0.00    -0.000 C 
ATOM      6  C   UNL     1      -4.414  -4.247   0.050  0.00  0.00    -0.077 C 
ATOM      7  H   UNL     1      -2.378  -4.324   0.114  0.00  0.00    -0.082 HD
ENDROOT
BRANCH   4   8
ATOM      8  N   UNL     1      -4.548  -7.096   2.550  0.00  0.00    -0.309 NA
ATOM      9  H   UNL     1      -4.044  -7.717   1.934  0.00  0.00    +0.123 HD
BRANCH   8  10
ATOM     10  C   UNL     1      -5.944  -7.526   2.705  0.00  0.00    +0.076 C 
ATOM     11  C   UNL     1      -6.458  -7.126   4.098  0.00  0.00    +0.043 C 
ATOM     12  C   UNL     1      -7.797  -7.844   4.392  0.00  0.00    +0.167 C 
ATOM     13  S   UNL     1      -7.658  -9.383   3.395  0.00  0.00    -0.029 S 
ATOM     14  O   UNL     1      -8.677  -9.386   2.405  0.00  0.00    -0.174 OA
ATOM     15  O   UNL     1      -7.532 -10.493   4.272  0.00  0.00    -0.174 OA
ATOM     16  C   UNL     1      -6.034  -9.074   2.582  0.00  0.00    +0.184 C 
ENDBRANCH   8  10
ENDBRANCH   4   8
BRANCH   1  17
ATOM     17  C   UNL     1      -2.930  -2.369  -0.077  0.00  0.00    -0.064 C 
BRANCH  17  18
ATOM     18  C   UNL     1      -1.521  -1.870   0.250  0.00  0.00    +0.062 C 
BRANCH  18  19
ATOM     19  N   UNL     1      -1.343  -0.517  -0.293  0.00  0.00    -0.313 NA
ATOM     20  H   UNL     1      -2.053   0.109   0.055  0.00  0.00    +0.122 HD
BRANCH  19  27
ATOM     21  C   UNL     1      -0.019   1.534   0.011  0.00  0.00    +0.043 C 
ATOM     22  C   UNL     1       1.429   2.081  -0.000  0.00  0.00    +0.167 C 
ATOM     23  S   UNL     1       2.358   0.748  -0.862  0.00  0.00    -0.029 S 
ATOM     24  O   UNL     1       3.316   0.199   0.034  0.00  0.00    -0.174 OA
ATOM     25  O   UNL     1       2.781   1.225  -2.131  0.00  0.00    -0.174 OA
ATOM     26  C   UNL     1       0.996  -0.469  -1.101  0.00  0.00    +0.184 C 
ATOM     27  C   UNL     1       0.002  -0.004   0.002  0.00  0.00    +0.076 C 
ENDBRANCH  19  27
ENDBRANCH  18  19
ENDBRANCH  17  18
ENDBRANCH   1  17
TORSDOF 6
