REMARK  Name = ZINC00468697
REMARK  3 active torsions:
REMARK  status: ('A' for Active; 'I' for Inactive)
REMARK    1  A    between atoms: C_1  and  C_2
REMARK    2  A    between atoms: C_10  and  C_11
REMARK    3  A    between atoms: C_14  and  O_18
REMARK                            x       y       z     vdW  Elec       q    Type
REMARK                         _______ _______ _______ _____ _____    ______ ____
ROOT
ATOM      1  C   UNL     1      -5.222   5.687  -3.463  0.00  0.00    +0.109 C 
ATOM      2  C   UNL     1      -4.543   4.554  -2.738  0.00  0.00    +0.215 C 
ATOM      3  O   UNL     1      -5.187   3.591  -2.380  0.00  0.00    -0.276 OA
ATOM      4  N   UNL     1      -3.220   4.611  -2.486  0.00  0.00    -0.267 N 
ATOM      5  C   UNL     1      -2.600   3.575  -1.823  0.00  0.00    +0.158 C 
ATOM      6  N   UNL     1      -3.136   2.458  -1.363  0.00  0.00    -0.154 NA
ATOM      7  C   UNL     1      -2.429   1.539  -0.741  0.00  0.00    +0.276 C 
ATOM      8  O   UNL     1      -2.936   0.512  -0.320  0.00  0.00    -0.267 OA
ATOM      9  C   UNL     1      -0.984   1.821  -0.580  0.00  0.00    +0.079 C 
ATOM     10  C   UNL     1      -0.013   1.076   0.008  0.00  0.00    +0.028 C 
ATOM     11  S   UNL     1      -0.879   3.421  -1.371  0.00  0.00    -0.051 S 
ATOM     12  H   UNL     1      -2.705   5.381  -2.773  0.00  0.00    +0.157 HD
ENDROOT
BRANCH  10  13
ATOM     13  C   UNL     1       1.395   1.473  -0.119  0.00  0.00    -0.022 A 
ATOM     14  C   UNL     1       1.758   2.506  -0.993  0.00  0.00    +0.011 A 
ATOM     15  C   UNL     1       3.078   2.878  -1.104  0.00  0.00    +0.047 A 
ATOM     16  C   UNL     1       4.053   2.223  -0.360  0.00  0.00    +0.135 A 
ATOM     17  C   UNL     1       3.700   1.193   0.505  0.00  0.00    +0.083 A 
ATOM     18  C   UNL     1       2.380   0.816   0.629  0.00  0.00    +0.031 A 
ATOM     19 CL   UNL     1       4.923   0.381   1.431  0.00  0.00    -0.080 Cl
BRANCH  16  20
ATOM     20  O   UNL     1       5.355   2.591  -0.478  0.00  0.00    -0.505 OA
ATOM     21  H   UNL     1       5.838   2.112  -1.166  0.00  0.00    +0.292 HD
ENDBRANCH  16  20
ENDBRANCH  10  13
TORSDOF 2
