REMARK  Name = ZINC19910809
REMARK  7 active torsions:
REMARK  status: ('A' for Active; 'I' for Inactive)
REMARK    1  A    between atoms: C_1  and  C_2
REMARK    2  A    between atoms: C_5  and  O_32
REMARK    3  A    between atoms: C_17  and  O_31
REMARK    4  A    between atoms: C_19  and  C_30
REMARK    5  A    between atoms: C_24  and  C_26
REMARK    6  A    between atoms: C_26  and  O_28
REMARK    7  A    between atoms: O_28  and  C_29
REMARK                            x       y       z     vdW  Elec       q    Type
REMARK                         _______ _______ _______ _____ _____    ______ ____
ROOT
ATOM      1  C   UNL     1      -0.776   2.077   1.209  0.00  0.00    +0.012 C 
ATOM      2  C   UNL     1      -0.018   1.517   0.010  0.00  0.00    -0.026 C 
ATOM      3  C   UNL     1      -0.575   2.171  -1.267  0.00  0.00    +0.010 C 
ATOM      4  C   UNL     1      -0.383   3.684  -1.220  0.00  0.00    +0.032 C 
ATOM      5  C   UNL     1       1.094   4.038  -1.064  0.00  0.00    +0.115 C 
ATOM      6  C   UNL     1       1.663   3.378   0.192  0.00  0.00    +0.035 C 
ATOM      7  C   UNL     1       1.466   1.870   0.112  0.00  0.00    -0.002 C 
ATOM      8  C   UNL     1       2.076   1.178   1.330  0.00  0.00    +0.004 C 
ATOM      9  C   UNL     1       2.055  -0.327   1.099  0.00  0.00    +0.004 C 
ATOM     10  C   UNL     1       0.659  -0.852   0.788  0.00  0.00    -0.004 C 
ATOM     11  C   UNL     1      -0.172   0.009  -0.114  0.00  0.00    +0.001 C 
ATOM     12  C   UNL     1      -1.617  -0.431  -0.240  0.00  0.00    +0.036 C 
ATOM     13  C   UNL     1      -2.264  -0.939   1.031  0.00  0.00    +0.122 C 
ATOM     14  C   UNL     1      -1.426  -1.954   1.784  0.00  0.00    +0.010 C 
ATOM     15  C   UNL     1       0.008  -1.448   2.001  0.00  0.00    +0.002 C 
ATOM     16  C   UNL     1      -0.014  -0.564   3.248  0.00  0.00    +0.005 C 
ATOM     17  C   UNL     1      -1.319  -0.914   4.000  0.00  0.00    +0.015 C 
ATOM     18  C   UNL     1      -1.939  -2.099   3.239  0.00  0.00    +0.106 C 
ATOM     19  C   UNL     1      -1.423  -3.318   1.070  0.00  0.00    +0.015 C 
ENDROOT
BRANCH  18  20
ATOM     20  C   UNL     1      -3.435  -2.116   3.338  0.00  0.00    +0.311 C 
ATOM     21  O   UNL     1      -4.108  -2.021   2.338  0.00  0.00    -0.251 OA
BRANCH  20  22
ATOM     22  O   UNL     1      -4.027  -2.236   4.536  0.00  0.00    -0.468 OA
ATOM     23  C   UNL     1      -5.479  -2.245   4.556  0.00  0.00    +0.280 C 
ENDBRANCH  20  22
ENDBRANCH  18  20
BRANCH  13  24
ATOM     24  O   UNL     1      -2.669   0.148   1.857  0.00  0.00    -0.391 OA
ATOM     25  H   UNL     1      -3.159  -0.047   2.822  0.00  0.00    +0.210 HD
ENDBRANCH  13  24
BRANCH   5  26
ATOM     26  O   UNL     1       1.228   5.460  -0.957  0.00  0.00    -0.392 OA
ATOM     27  H   UNL     1       2.225   5.911  -0.838  0.00  0.00    +0.210 HD
ENDBRANCH   5  26
TORSDOF 4
