REMARK  Name = ZINC09430080
REMARK  9 active torsions:
REMARK  status: ('A' for Active; 'I' for Inactive)
REMARK    1  A    between atoms: C_1  and  C_2
REMARK    2  A    between atoms: C_2  and  C_3
REMARK    3  A    between atoms: C_10  and  S_15
REMARK    4  A    between atoms: S_15  and  C_18
REMARK    5  A    between atoms: C_18  and  C_19
REMARK    6  A    between atoms: C_19  and  C_20
REMARK    7  A    between atoms: N_22  and  C_23
REMARK    8  A    between atoms: C_25  and  C_30
REMARK    9  A    between atoms: C_28  and  C_29
REMARK                            x       y       z     vdW  Elec       q    Type
REMARK                         _______ _______ _______ _____ _____    ______ ____
ROOT
ATOM      1  S   UNL     1       4.883   8.418  -0.451  0.00  0.00    -0.003 S 
ATOM      2  O   UNL     1       5.625   8.319   0.757  0.00  0.00    -0.169 OA
ATOM      3  O   UNL     1       5.498   8.145  -1.703  0.00  0.00    -0.169 OA
ENDROOT
BRANCH   1  10
ATOM      4  C   UNL     1       2.333  14.726   0.796  0.00  0.00    +0.137 C 
ATOM      5  C   UNL     1       3.149  14.079   1.885  0.00  0.00    +0.231 C 
ATOM      6  O   UNL     1       3.233  14.642   2.957  0.00  0.00    -0.274 OA
ATOM      7  N   UNL     1       3.782  12.921   1.728  0.00  0.00    -0.284 N 
ATOM      8  C   UNL     1       3.894  12.189   0.550  0.00  0.00    +0.049 A 
ATOM      9  C   UNL     1       4.274  10.852   0.611  0.00  0.00    +0.051 A 
ATOM     10  C   UNL     1       4.400  10.109  -0.546  0.00  0.00    +0.090 A 
ATOM     11  C   UNL     1       4.155  10.686  -1.779  0.00  0.00    +0.028 A 
ATOM     12  C   UNL     1       3.774  12.013  -1.856  0.00  0.00    +0.018 A 
ATOM     13  C   UNL     1       3.650  12.763  -0.698  0.00  0.00    +0.030 A 
ATOM     14  S   UNL     1       3.184  14.464  -0.791  0.00  0.00    -0.111 S 
ATOM     15  H   UNL     1       4.211  12.548   2.514  0.00  0.00    +0.155 HD
BRANCH   4  17
ATOM     16  C   UNL     1       0.086  14.814  -0.293  0.00  0.00    +0.005 C 
ATOM     17  C   UNL     1       0.943  14.089   0.747  0.00  0.00    +0.020 C 
ENDBRANCH   4  17
ENDBRANCH   1  10
BRANCH   1  18
ATOM     18  C   UNL     1       3.328   7.496  -0.305  0.00  0.00    +0.181 C 
BRANCH  18  19
ATOM     19  C   UNL     1       3.629   5.998  -0.215  0.00  0.00    +0.119 C 
BRANCH  19  20
ATOM     20  C   UNL     1       2.336   5.233  -0.093  0.00  0.00    +0.219 C 
ATOM     21  O   UNL     1       1.279   5.827  -0.081  0.00  0.00    -0.275 OA
ATOM     22  N   UNL     1       2.356   3.889   0.001  0.00  0.00    -0.285 N 
ATOM     23  H   UNL     1       3.202   3.420   0.071  0.00  0.00    +0.155 HD
BRANCH  22  24
ATOM     24  C   UNL     1       1.155   3.170  -0.003  0.00  0.00    +0.037 A 
ATOM     25  C   UNL     1       0.022   3.710  -0.598  0.00  0.00    +0.027 A 
ATOM     26  C   UNL     1      -1.161   2.998  -0.600  0.00  0.00    -0.049 A 
ATOM     27  C   UNL     1      -1.217   1.746  -0.015  0.00  0.00    +0.004 A 
ATOM     28  C   UNL     1      -0.093   1.208   0.583  0.00  0.00    +0.005 A 
ATOM     29  C   UNL     1       1.094   1.915   0.589  0.00  0.00    -0.029 A 
ATOM     30  C   UNL     1       2.321   1.325   1.235  0.00  0.00    +0.045 C 
ATOM     31  C   UNL     1      -2.390   3.583  -1.245  0.00  0.00    +0.044 C 
ENDBRANCH  22  24
ENDBRANCH  19  20
ENDBRANCH  18  19
ENDBRANCH   1  18
TORSDOF 6
