REMARK  Name = ZINC22263447
REMARK  3 active torsions:
REMARK  status: ('A' for Active; 'I' for Inactive)
REMARK    1  A    between atoms: C_4  and  C_20
REMARK    2  A    between atoms: C_5  and  C_7
REMARK    3  A    between atoms: C_7  and  N_8
REMARK                            x       y       z     vdW  Elec       q    Type
REMARK                         _______ _______ _______ _____ _____    ______ ____
ROOT
ATOM      1  C   UNL     1       7.651  -4.812   3.668  0.00  0.00    +0.000 A 
ATOM      2  C   UNL     1       7.917  -4.042   4.786  0.00  0.00    +0.001 A 
ATOM      3  C   UNL     1       7.993  -2.669   4.680  0.00  0.00    +0.011 A 
ATOM      4  C   UNL     1       7.801  -2.056   3.442  0.00  0.00    +0.016 A 
ATOM      5  C   UNL     1       7.533  -2.837   2.318  0.00  0.00    -0.023 A 
ATOM      6  C   UNL     1       7.454  -4.210   2.438  0.00  0.00    +0.005 A 
ENDROOT
BRANCH   4   7
ATOM      7  C   UNL     1       7.881  -0.583   3.321  0.00  0.00    +0.095 C 
ATOM      8  N   UNL     1       7.596  -0.005   2.189  0.00  0.00    -0.387 N 
ATOM      9  N   UNL     1       8.256   0.178   4.407  0.00  0.00    -0.345 N 
ATOM     10  H   UNL     1       7.655   1.089   2.099  0.00  0.00    +0.157 HD
ATOM     11  H   UNL     1       8.315   1.273   4.317  0.00  0.00    +0.144 HD
ATOM     12  H   UNL     1       8.496  -0.309   5.363  0.00  0.00    +0.144 HD
ATOM     13  H   UNL     1       7.297  -0.613   1.322  0.00  0.00    +0.157 HD
ENDBRANCH   4   7
BRANCH   5  14
ATOM     14  C   UNL     1       7.324  -2.183   0.977  0.00  0.00    +0.120 C 
BRANCH  14  15
ATOM     15  N   UNL     1       5.997  -1.554   0.940  0.00  0.00    -0.295 NA
ATOM     16  C   UNL     1       5.886  -0.623  -0.191  0.00  0.00    +0.103 C 
ATOM     17  C   UNL     1       4.521   0.069  -0.147  0.00  0.00    +0.123 C 
ATOM     18  N   UNL     1       3.459  -0.945  -0.198  0.00  0.00    -0.297 N 
ATOM     19  C   UNL     1       3.570  -1.876   0.934  0.00  0.00    +0.123 C 
ATOM     20  C   UNL     1       4.934  -2.568   0.890  0.00  0.00    +0.103 C 
ATOM     21  C   UNL     1       2.209  -0.352  -0.232  0.00  0.00    +0.218 A 
ATOM     22  N   UNL     1       1.130  -1.121  -0.279  0.00  0.00    -0.223 NA
ATOM     23  C   UNL     1      -0.079  -0.586  -0.313  0.00  0.00    +0.116 A 
ATOM     24  C   UNL     1      -0.210   0.794  -0.298  0.00  0.00    +0.039 A 
ATOM     25  C   UNL     1       0.940   1.567  -0.248  0.00  0.00    +0.116 A 
ATOM     26  N   UNL     1       2.119   0.969  -0.217  0.00  0.00    -0.223 NA
ENDBRANCH  14  15
ENDBRANCH   5  14
TORSDOF 3
