REMARK  Name = ZINC65698587
REMARK  5 active torsions:
REMARK  status: ('A' for Active; 'I' for Inactive)
REMARK    1  A    between atoms: C_4  and  N_7
REMARK    2  A    between atoms: N_10  and  N_11
REMARK    3  A    between atoms: N_14  and  C_15
REMARK    4  A    between atoms: C_15  and  C_16
REMARK    5  A    between atoms: C_16  and  C_17
REMARK                            x       y       z     vdW  Elec       q    Type
REMARK                         _______ _______ _______ _____ _____    ______ ____
ROOT
ATOM      1  N   UNL     1       6.023  -1.922   0.136  0.00  0.00    -0.217 N 
ATOM      2  C   UNL     1       7.201  -2.571   0.222  0.00  0.00    +0.316 C 
ATOM      3  O   UNL     1       8.243  -1.944   0.215  0.00  0.00    -0.251 OA
ATOM      4  N   UNL     1       7.224  -3.916   0.316  0.00  0.00    -0.298 N 
ATOM      5  H   UNL     1       6.006  -0.955   0.068  0.00  0.00    +0.174 HD
ATOM      6  H   UNL     1       6.393  -4.416   0.322  0.00  0.00    +0.150 HD
ENDROOT
BRANCH   1  10
ATOM      7  N   UNL     1       3.622  -0.651  -0.036  0.00  0.00    -0.268 N 
ATOM      8  C   UNL     1       3.645  -1.995   0.058  0.00  0.00    +0.320 C 
ATOM      9  O   UNL     1       2.603  -2.622   0.065  0.00  0.00    -0.251 OA
ATOM     10  N   UNL     1       4.823  -2.644   0.144  0.00  0.00    -0.217 N 
ATOM     11  H   UNL     1       4.452  -0.156  -0.120  0.00  0.00    +0.156 HD
ATOM     12  H   UNL     1       4.839  -3.612   0.212  0.00  0.00    +0.174 HD
BRANCH   7  16
ATOM     13  C   UNL     1      -0.015   1.381   0.032  0.00  0.00    +0.000 A 
ATOM     14  C   UNL     1       0.140   0.219   0.766  0.00  0.00    +0.002 A 
ATOM     15  C   UNL     1       1.344  -0.457   0.745  0.00  0.00    +0.023 A 
ATOM     16  C   UNL     1       2.400   0.031  -0.014  0.00  0.00    +0.035 A 
ATOM     17  C   UNL     1       2.241   1.199  -0.749  0.00  0.00    +0.023 A 
ATOM     18  C   UNL     1       1.034   1.870  -0.724  0.00  0.00    +0.002 A 
ENDBRANCH   7  16
ENDBRANCH   1  10
BRANCH   4  19
ATOM     19  C   UNL     1       8.504  -4.621   0.410  0.00  0.00    +0.110 C 
BRANCH  19  20
ATOM     20  C   UNL     1       8.251  -6.127   0.506  0.00  0.00    +0.057 C 
BRANCH  20  21
ATOM     21  C   UNL     1       9.568  -6.853   0.603  0.00  0.00    -0.010 A 
ATOM     22  C   UNL     1      10.166  -7.355  -0.538  0.00  0.00    +0.021 A 
ATOM     23  C   UNL     1      11.374  -8.021  -0.450  0.00  0.00    +0.018 A 
ATOM     24  C   UNL     1      11.986  -8.186   0.780  0.00  0.00    +0.018 A 
ATOM     25  C   UNL     1      11.389  -7.685   1.922  0.00  0.00    +0.040 A 
ATOM     26  C   UNL     1      10.182  -7.013   1.833  0.00  0.00    +0.127 A 
ATOM     27  F   UNL     1       9.601  -6.518   2.948  0.00  0.00    -0.205 F 
ATOM     28 BR   UNL     1      12.191  -8.708  -2.011  0.00  0.00    -0.050 Br
ENDBRANCH  20  21
ENDBRANCH  19  20
ENDBRANCH   4  19
TORSDOF 5
