REMARK  Name = ZINC64790002
REMARK  5 active torsions:
REMARK  status: ('A' for Active; 'I' for Inactive)
REMARK    1  A    between atoms: C_8  and  C_12
REMARK    2  A    between atoms: C_14  and  C_17
REMARK    3  A    between atoms: C_17  and  C_18
REMARK    4  A    between atoms: C_18  and  C_19
REMARK    5  A    between atoms: N_21  and  C_22
REMARK                            x       y       z     vdW  Elec       q    Type
REMARK                         _______ _______ _______ _____ _____    ______ ____
ROOT
ATOM      1  C   UNL     1       2.545  -4.213  -0.049  0.00  0.00    +0.207 A 
ATOM      2  N   UNL     1       3.665  -4.960  -0.061  0.00  0.00    -0.191 NA
ATOM      3  C   UNL     1       3.356  -6.225  -0.061  0.00  0.00    +0.228 A 
ATOM      4  O   UNL     1       2.022  -6.338  -0.049  0.00  0.00    -0.338 OA
ATOM      5  N   UNL     1       1.507  -5.014  -0.036  0.00  0.00    -0.056 NA
ENDROOT
BRANCH   1  13
ATOM      6  C   UNL     1       0.035   1.387  -0.001  0.00  0.00    +0.001 A 
ATOM      7  C   UNL     1       1.225   2.103  -0.015  0.00  0.00    +0.002 A 
ATOM      8  C   UNL     1       2.437   1.449  -0.033  0.00  0.00    +0.026 A 
ATOM      9  C   UNL     1       2.475   0.057  -0.037  0.00  0.00    +0.049 A 
ATOM     10  C   UNL     1       1.268  -0.666  -0.022  0.00  0.00    -0.001 A 
ATOM     11  C   UNL     1       0.046   0.023  -0.004  0.00  0.00    +0.010 A 
ATOM     12  C   UNL     1       1.291  -2.084  -0.026  0.00  0.00    +0.027 A 
ATOM     13  C   UNL     1       2.494  -2.732  -0.045  0.00  0.00    +0.087 A 
ATOM     14  C   UNL     1       3.733  -1.950  -0.060  0.00  0.00    +0.260 A 
ATOM     15  N   UNL     1       3.685  -0.605  -0.055  0.00  0.00    -0.322 N 
ATOM     16  O   UNL     1       4.811  -2.519  -0.076  0.00  0.00    -0.267 OA
ATOM     17  H   UNL     1       4.510  -0.095  -0.064  0.00  0.00    +0.169 HD
ENDBRANCH   1  13
BRANCH   3  18
ATOM     18  C   UNL     1       4.336  -7.370  -0.073  0.00  0.00    +0.108 C 
BRANCH  18  19
ATOM     19  C   UNL     1       4.681  -7.761   1.365  0.00  0.00    +0.105 C 
BRANCH  19  20
ATOM     20  C   UNL     1       5.660  -8.906   1.353  0.00  0.00    +0.218 C 
ATOM     21  O   UNL     1       6.045  -9.364   0.298  0.00  0.00    -0.275 OA
ATOM     22  N   UNL     1       6.109  -9.421   2.515  0.00  0.00    -0.285 N 
ATOM     23  H   UNL     1       5.854  -9.012   3.357  0.00  0.00    +0.155 HD
BRANCH  22  24
ATOM     24  C   UNL     1       6.943 -10.545   2.507  0.00  0.00    +0.033 A 
ATOM     25  C   UNL     1       6.839 -11.496   3.514  0.00  0.00    +0.025 A 
ATOM     26  C   UNL     1       7.662 -12.604   3.503  0.00  0.00    +0.022 A 
ATOM     27  C   UNL     1       8.591 -12.768   2.490  0.00  0.00    +0.041 A 
ATOM     28  C   UNL     1       8.697 -11.823   1.486  0.00  0.00    +0.022 A 
ATOM     29  C   UNL     1       7.871 -10.715   1.488  0.00  0.00    +0.025 A 
ATOM     30 CL   UNL     1       9.625 -14.163   2.480  0.00  0.00    -0.084 Cl
ENDBRANCH  22  24
ENDBRANCH  19  20
ENDBRANCH  18  19
ENDBRANCH   3  18
TORSDOF 5
