REMARK  Name = ZINC52770571
REMARK  10 active torsions:
REMARK  status: ('A' for Active; 'I' for Inactive)
REMARK    1  A    between atoms: C_1  and  N_2
REMARK    2  A    between atoms: N_2  and  C_3
REMARK    3  A    between atoms: N_2  and  S_4
REMARK    4  A    between atoms: S_4  and  N_7
REMARK    5  A    between atoms: C_8  and  C_10
REMARK    6  A    between atoms: C_12  and  O_22
REMARK    7  A    between atoms: C_13  and  O_17
REMARK    8  A    between atoms: O_17  and  C_18
REMARK    9  A    between atoms: C_18  and  C_19
REMARK   10  A    between atoms: O_22  and  C_23
REMARK                            x       y       z     vdW  Elec       q    Type
REMARK                         _______ _______ _______ _____ _____    ______ ____
ROOT
ATOM      1  C   UNL     1       3.278  -1.867  -3.375  0.00  0.00    +0.048 A 
ATOM      2  C   UNL     1       3.587  -2.532  -4.563  0.00  0.00    +0.062 A 
ATOM      3  C   UNL     1       4.908  -2.714  -4.927  0.00  0.00    +0.164 A 
ATOM      4  C   UNL     1       5.928  -2.234  -4.109  0.00  0.00    +0.181 A 
ATOM      5  C   UNL     1       5.622  -1.573  -2.927  0.00  0.00    +0.087 A 
ATOM      6  C   UNL     1       4.304  -1.384  -2.562  0.00  0.00    +0.037 A 
ATOM      7 CL   UNL     1       6.897  -0.978  -1.911  0.00  0.00    -0.080 Cl
ENDROOT
BRANCH   1   9
ATOM      8  N   UNL     1       1.581  -1.045  -1.877  0.00  0.00    -0.075 NA
ATOM      9  C   UNL     1       1.867  -1.670  -2.982  0.00  0.00    +0.296 C 
ATOM     10  O   UNL     1       0.873  -2.138  -3.771  0.00  0.00    -0.264 OA
BRANCH   8  11
ATOM     11  S   UNL     1      -0.000  -0.824  -1.437  0.00  0.00    +0.142 S 
ATOM     12  O   UNL     1      -0.531  -2.115  -1.167  0.00  0.00    -0.134 OA
ATOM     13  O   UNL     1      -0.572   0.049  -2.401  0.00  0.00    -0.134 OA
BRANCH  11  15
ATOM     14  C   UNL     1      -0.018   1.461   0.010  0.00  0.00    +0.133 C 
ATOM     15  N   UNL     1       0.002  -0.004   0.002  0.00  0.00    -0.166 NA
ATOM     16  C   UNL     1       0.024  -0.743   1.267  0.00  0.00    +0.133 C 
ENDBRANCH  11  15
ENDBRANCH   8  11
ENDBRANCH   1   9
BRANCH   3  17
ATOM     17  O   UNL     1       5.211  -3.361  -6.084  0.00  0.00    -0.491 OA
ATOM     18  C   UNL     1       4.115  -3.826  -6.874  0.00  0.00    +0.277 C 
ENDBRANCH   3  17
BRANCH   4  19
ATOM     19  O   UNL     1       7.227  -2.415  -4.468  0.00  0.00    -0.478 OA
BRANCH  19  20
ATOM     20  C   UNL     1       7.827  -1.392  -5.265  0.00  0.00    +0.324 C 
BRANCH  20  21
ATOM     21  C   UNL     1       9.258  -1.762  -5.562  0.00  0.00    +0.248 C 
ATOM     22  O   UNL     1       9.717  -2.800  -5.134  0.00  0.00    -0.272 OA
ATOM     23  N   UNL     1      10.026  -0.941  -6.304  0.00  0.00    -0.327 N 
ATOM     24  H   UNL     1       9.659  -0.111  -6.647  0.00  0.00    +0.145 HD
ATOM     25  H   UNL     1      10.947  -1.179  -6.496  0.00  0.00    +0.145 HD
ENDBRANCH  20  21
ENDBRANCH  19  20
ENDBRANCH   4  19
TORSDOF 7
