REMARK  Name = ZINC44124425
REMARK  9 active torsions:
REMARK  status: ('A' for Active; 'I' for Inactive)
REMARK    1  A    between atoms: C_3  and  S_24
REMARK    2  A    between atoms: C_6  and  N_7
REMARK    3  A    between atoms: N_7  and  C_8
REMARK    4  A    between atoms: C_10  and  O_23
REMARK    5  A    between atoms: C_12  and  O_22
REMARK    6  A    between atoms: C_14  and  O_21
REMARK    7  A    between atoms: C_16  and  C_19
REMARK    8  A    between atoms: C_19  and  O_20
REMARK    9  A    between atoms: S_24  and  C_27
REMARK                            x       y       z     vdW  Elec       q    Type
REMARK                         _______ _______ _______ _____ _____    ______ ____
ROOT
ATOM      1  C   UNL     1      -0.017   1.385   0.010  0.00  0.00    +0.025 A 
ATOM      2  C   UNL     1       1.171   2.090   0.002  0.00  0.00    +0.029 A 
ATOM      3  C   UNL     1       2.377   1.415  -0.013  0.00  0.00    +0.094 A 
ATOM      4  C   UNL     1       2.400   0.032  -0.021  0.00  0.00    +0.029 A 
ATOM      5  C   UNL     1       1.216  -0.679  -0.014  0.00  0.00    +0.025 A 
ATOM      6  C   UNL     1       0.002  -0.004   0.002  0.00  0.00    +0.029 A 
ENDROOT
BRANCH   3   7
ATOM      7  S   UNL     1       3.890   2.319  -0.024  0.00  0.00    +0.033 S 
ATOM      8  O   UNL     1       4.872   1.461  -0.589  0.00  0.00    -0.164 OA
ATOM      9  O   UNL     1       3.595   3.599  -0.566  0.00  0.00    -0.164 OA
BRANCH   7  10
ATOM     10  C   UNL     1       4.354   2.577   1.656  0.00  0.00    +0.152 A 
ATOM     11  C   UNL     1       5.122   1.811   2.468  0.00  0.00    +0.148 A 
ATOM     12  N   UNL     1       5.313   2.247   3.700  0.00  0.00    -0.232 NA
ATOM     13  C   UNL     1       4.777   3.376   4.112  0.00  0.00    +0.157 A 
ATOM     14  S   UNL     1       3.950   3.925   2.754  0.00  0.00    -0.034 S 
ATOM     15  N   UNL     1       4.876   3.971   5.360  0.00  0.00    -0.337 N 
ATOM     16  H   UNL     1       5.394   3.546   6.061  0.00  0.00    +0.144 HD
ATOM     17  H   UNL     1       4.426   4.813   5.533  0.00  0.00    +0.144 HD
ENDBRANCH   7  10
ENDBRANCH   3   7
BRANCH   6  18
ATOM     18  N   UNL     1      -1.197  -0.720   0.010  0.00  0.00    -0.317 N 
ATOM     19  H   UNL     1      -2.044  -0.248   0.021  0.00  0.00    +0.149 HD
BRANCH  18  20
ATOM     20  C   UNL     1      -1.175  -2.185   0.002  0.00  0.00    +0.235 C 
ATOM     21  C   UNL     1      -2.342  -2.718   0.838  0.00  0.00    +0.192 C 
ATOM     22  C   UNL     1      -3.662  -2.269   0.203  0.00  0.00    +0.178 C 
ATOM     23  C   UNL     1      -3.712  -2.763  -1.246  0.00  0.00    +0.177 C 
ATOM     24  C   UNL     1      -2.493  -2.228  -2.002  0.00  0.00    +0.177 C 
ATOM     25  O   UNL     1      -1.299  -2.656  -1.341  0.00  0.00    -0.348 OA
BRANCH  23  26
ATOM     26  O   UNL     1      -3.699  -4.191  -1.265  0.00  0.00    -0.386 OA
ATOM     27  H   UNL     1      -4.442  -4.598  -0.799  0.00  0.00    +0.210 HD
ENDBRANCH  23  26
BRANCH  22  28
ATOM     28  O   UNL     1      -4.757  -2.821   0.936  0.00  0.00    -0.386 OA
ATOM     29  H   UNL     1      -4.783  -2.554   1.865  0.00  0.00    +0.210 HD
ENDBRANCH  22  28
BRANCH  21  30
ATOM     30  O   UNL     1      -2.290  -4.145   0.876  0.00  0.00    -0.385 OA
ATOM     31  H   UNL     1      -1.477  -4.499   1.263  0.00  0.00    +0.210 HD
ENDBRANCH  21  30
BRANCH  24  32
ATOM     32  C   UNL     1      -2.504  -2.766  -3.434  0.00  0.00    +0.190 C 
BRANCH  32  33
ATOM     33  O   UNL     1      -1.432  -2.176  -4.173  0.00  0.00    -0.392 OA
ATOM     34  H   UNL     1      -1.379  -2.472  -5.092  0.00  0.00    +0.210 HD
ENDBRANCH  32  33
ENDBRANCH  24  32
ENDBRANCH  18  20
ENDBRANCH   6  18
TORSDOF 9
