REMARK  Name = ZINC54527358
REMARK  2 active torsions:
REMARK  status: ('A' for Active; 'I' for Inactive)
REMARK    1  A    between atoms: C_6  and  C_7
REMARK    2  A    between atoms: N_10  and  C_11
REMARK                            x       y       z     vdW  Elec       q    Type
REMARK                         _______ _______ _______ _____ _____    ______ ____
ROOT
ATOM      1  C   UNL     1      -0.092   1.235   0.022  0.00  0.00    +0.023 A 
ATOM      2  C   UNL     1       1.018   2.070   0.032  0.00  0.00    -0.027 A 
ATOM      3  C   UNL     1       2.282   1.520   0.008  0.00  0.00    +0.021 A 
ATOM      4  N   UNL     1       2.442   0.203  -0.033  0.00  0.00    -0.346 N 
ATOM      5  C   UNL     1       1.424  -0.637  -0.046  0.00  0.00    +0.111 A 
ATOM      6  C   UNL     1       0.105  -0.149  -0.016  0.00  0.00    +0.101 A 
ATOM      7  N   UNL     1       1.655  -1.999  -0.090  0.00  0.00    -0.325 N 
ATOM      8  C   UNL     1       3.529   2.368   0.035  0.00  0.00    +0.053 C 
ATOM      9  C   UNL     1       3.208   3.808  -0.357  0.00  0.00    +0.006 C 
ATOM     10  C   UNL     1       2.037   4.296   0.505  0.00  0.00    +0.005 C 
ATOM     11  C   UNL     1       0.776   3.556   0.065  0.00  0.00    +0.037 C 
ATOM     12  H   UNL     1       0.912  -2.619  -0.017  0.00  0.00    +0.148 HD
ATOM     13  H   UNL     1       3.343  -0.156  -0.054  0.00  0.00    +0.167 HD
ENDROOT
BRANCH   7  14
ATOM     14  C   UNL     1       3.020  -2.506  -0.247  0.00  0.00    +0.094 C 
ATOM     15  C   UNL     1       3.693  -2.595   1.133  0.00  0.00    +0.046 C 
ATOM     16  C   UNL     1       5.004  -3.419   0.980  0.00  0.00    +0.168 C 
ATOM     17  S   UNL     1       4.437  -4.745  -0.166  0.00  0.00    -0.029 S 
ATOM     18  O   UNL     1       5.419  -4.936  -1.175  0.00  0.00    -0.174 OA
ATOM     19  O   UNL     1       3.994  -5.859   0.599  0.00  0.00    -0.174 OA
ATOM     20  C   UNL     1       2.976  -3.907  -0.902  0.00  0.00    +0.188 C 
ENDBRANCH   7  14
BRANCH   6  21
ATOM     21  C   UNL     1      -1.040  -1.072  -0.025  0.00  0.00    +0.390 C 
ATOM     22  O   UNL     1      -2.179  -0.633  -0.107  0.00  0.00    -0.240 OA
ATOM     23  O   UNL     1      -0.853  -2.279   0.050  0.00  0.00    -0.240 OA
ENDBRANCH   6  21
TORSDOF 2
