REMARK  Name = ZINC39671205
REMARK  6 active torsions:
REMARK  status: ('A' for Active; 'I' for Inactive)
REMARK    1  A    between atoms: C_1  and  C_2
REMARK    2  A    between atoms: C_5  and  C_7
REMARK    3  A    between atoms: C_7  and  N_8
REMARK    4  A    between atoms: C_9  and  C_11
REMARK    5  A    between atoms: C_22  and  C_24
REMARK    6  A    between atoms: C_24  and  C_25
REMARK                            x       y       z     vdW  Elec       q    Type
REMARK                         _______ _______ _______ _____ _____    ______ ____
ROOT
ATOM      1  C   UNL     1       3.136  -5.210   2.713  0.00  0.00    +0.100 C 
ATOM      2  C   UNL     1       3.886  -4.067   3.433  0.00  0.00    +0.121 C 
ATOM      3  N   UNL     1       3.781  -4.400   4.873  0.00  0.00    -0.300 N 
ATOM      4  C   UNL     1       3.951  -5.872   4.925  0.00  0.00    +0.115 C 
ATOM      5  C   UNL     1       3.184  -6.393   3.694  0.00  0.00    -0.004 C 
ATOM      6  C   UNL     1       3.928  -7.569   3.067  0.00  0.00    -0.010 C 
ATOM      7  C   UNL     1       3.912  -8.753   4.038  0.00  0.00    -0.082 C 
ATOM      8  N   UNL     1       2.524  -9.128   4.333  0.00  0.00    +0.379 N 
ATOM      9  C   UNL     1       1.843  -8.024   5.020  0.00  0.00    -0.082 C 
ATOM     10  C   UNL     1       1.771  -6.809   4.090  0.00  0.00    -0.010 C 
ATOM     11  C   UNL     1       3.578  -3.555   5.904  0.00  0.00    +0.220 C 
ATOM     12  O   UNL     1       3.516  -3.984   7.036  0.00  0.00    -0.275 OA
ATOM     13  H   UNL     1       2.042  -9.334   3.471  0.00  0.00    -0.086 HD
ATOM     14  H   UNL     1       2.516  -9.946   4.924  0.00  0.00    -0.086 HD
ENDROOT
BRANCH   1  16
ATOM     15  N   UNL     1       1.050  -5.337   1.389  0.00  0.00    -0.306 N 
ATOM     16  C   UNL     1       1.708  -4.811   2.442  0.00  0.00    +0.219 C 
ATOM     17  O   UNL     1       1.151  -4.017   3.170  0.00  0.00    -0.275 OA
ATOM     18  H   UNL     1       1.495  -5.972   0.807  0.00  0.00    +0.149 HD
BRANCH  15  19
ATOM     19  C   UNL     1      -0.338  -4.950   1.126  0.00  0.00    +0.202 C 
BRANCH  19  24
ATOM     20  C   UNL     1      -1.467  -6.165  -3.628  0.00  0.00    +0.111 C 
ATOM     21  C   UNL     1      -1.321  -6.193  -2.129  0.00  0.00    +0.214 A 
ATOM     22  N   UNL     1      -1.718  -7.145  -1.333  0.00  0.00    -0.113 NA
ATOM     23  N   UNL     1      -1.429  -6.835  -0.118  0.00  0.00    -0.111 NA
ATOM     24  C   UNL     1      -0.838  -5.674  -0.098  0.00  0.00    +0.234 A 
ATOM     25  O   UNL     1      -0.751  -5.244  -1.367  0.00  0.00    -0.423 OA
ENDBRANCH  19  24
ENDBRANCH  15  19
ENDBRANCH   1  16
BRANCH  11  26
ATOM     26  C   UNL     1       3.428  -2.077   5.648  0.00  0.00    +0.131 C 
BRANCH  26  27
ATOM     27  C   UNL     1       3.212  -1.361   6.956  0.00  0.00    -0.039 A 
ATOM     28  C   UNL     1       1.931  -1.178   7.441  0.00  0.00    +0.005 A 
ATOM     29  C   UNL     1       1.732  -0.521   8.641  0.00  0.00    +0.020 A 
ATOM     30  C   UNL     1       2.817  -0.046   9.357  0.00  0.00    +0.041 A 
ATOM     31  C   UNL     1       4.099  -0.229   8.871  0.00  0.00    +0.020 A 
ATOM     32  C   UNL     1       4.297  -0.892   7.674  0.00  0.00    +0.005 A 
ATOM     33 CL   UNL     1       2.568   0.780  10.863  0.00  0.00    -0.084 Cl
ENDBRANCH  26  27
ENDBRANCH  11  26
TORSDOF 5
