REMARK  Name = ZINC01612361
REMARK  3 active torsions:
REMARK  status: ('A' for Active; 'I' for Inactive)
REMARK    1  A    between atoms: N_5  and  C_6
REMARK    2  A    between atoms: C_9  and  C_13
REMARK    3  A    between atoms: C_13  and  O_14
REMARK                            x       y       z     vdW  Elec       q    Type
REMARK                         _______ _______ _______ _____ _____    ______ ____
ROOT
ATOM      1  C   UNL     1      -0.013   1.076   0.008  0.00  0.00    +0.202 A 
ATOM      2  N   UNL     1       1.043   1.836   0.002  0.00  0.00    -0.231 NA
ATOM      3  C   UNL     1       0.662   3.138   0.012  0.00  0.00    +0.145 A 
ATOM      4  C   UNL     1      -0.746   3.156   0.025  0.00  0.00    +0.167 A 
ATOM      5  N   UNL     1      -1.141   1.842   0.017  0.00  0.00    -0.308 N 
ATOM      6  N   UNL     1      -1.376   4.324   0.037  0.00  0.00    -0.195 NA
ATOM      7  C   UNL     1      -0.690   5.456   0.035  0.00  0.00    +0.216 A 
ATOM      8  N   UNL     1       0.637   5.478   0.023  0.00  0.00    -0.201 NA
ATOM      9  C   UNL     1       1.342   4.359   0.011  0.00  0.00    +0.162 A 
ATOM     10 CL   UNL     1       3.077   4.406  -0.004  0.00  0.00    -0.060 Cl
ATOM     11  N   UNL     1      -1.380   6.657   0.047  0.00  0.00    -0.327 N 
ATOM     12  H   UNL     1      -0.894   7.496   0.046  0.00  0.00    +0.145 HD
ATOM     13  H   UNL     1      -2.350   6.659   0.056  0.00  0.00    +0.145 HD
ENDROOT
BRANCH   5  14
ATOM     14  C   UNL     1      -2.521   1.352   0.021  0.00  0.00    +0.113 C 
ATOM     15  C   UNL     1      -2.769   0.429  -1.195  0.00  0.00    +0.039 C 
ATOM     16  C   UNL     1      -3.715  -0.632  -0.586  0.00  0.00    +0.039 C 
ATOM     17  C   UNL     1      -3.416  -0.608   0.895  0.00  0.00    -0.023 C 
ATOM     18  C   UNL     1      -2.765   0.474   1.226  0.00  0.00    -0.006 C 
BRANCH  16  19
ATOM     19  C   UNL     1      -5.176  -0.256  -0.841  0.00  0.00    +0.163 C 
BRANCH  19  20
ATOM     20  O   UNL     1      -6.029  -1.270  -0.307  0.00  0.00    -0.394 OA
ATOM     21  H   UNL     1      -6.972  -1.097  -0.433  0.00  0.00    +0.209 HD
ENDBRANCH  19  20
ENDBRANCH  16  19
ENDBRANCH   5  14
TORSDOF 3
