REMARK  Name = ZINC08896630
REMARK  5 active torsions:
REMARK  status: ('A' for Active; 'I' for Inactive)
REMARK    1  A    between atoms: C_3  and  S_8
REMARK    2  A    between atoms: S_8  and  N_11
REMARK    3  A    between atoms: C_15  and  C_17
REMARK    4  A    between atoms: N_19  and  C_20
REMARK    5  A    between atoms: C_21  and  C_30
REMARK                            x       y       z     vdW  Elec       q    Type
REMARK                         _______ _______ _______ _____ _____    ______ ____
ROOT
ATOM      1  C   UNL     1      -1.856   0.958  -5.787  0.00  0.00    +0.236 C 
ATOM      2  O   UNL     1      -1.925   0.169  -4.868  0.00  0.00    -0.274 OA
ATOM      3  N   UNL     1      -0.967   1.970  -5.742  0.00  0.00    -0.278 N 
ATOM      4  H   UNL     1      -0.912   2.601  -6.477  0.00  0.00    +0.155 HD
ENDROOT
BRANCH   3   5
ATOM      5  C   UNL     1      -0.131   2.109  -4.645  0.00  0.00    +0.084 A 
ATOM      6  C   UNL     1       0.838   3.074  -4.417  0.00  0.00    +0.068 A 
ATOM      7  C   UNL     1       1.586   3.002  -3.169  0.00  0.00    -0.023 A 
ATOM      8  C   UNL     1       1.251   1.972  -2.363  0.00  0.00    -0.004 A 
ATOM      9  S   UNL     1      -0.043   1.121  -3.225  0.00  0.00    -0.077 S 
ATOM     10  C   UNL     1       1.840   1.620  -1.033  0.00  0.00    +0.043 C 
ATOM     11  C   UNL     1       1.887   2.875  -0.152  0.00  0.00    +0.005 C 
ATOM     12  C   UNL     1       3.216   3.585  -0.390  0.00  0.00    +0.001 C 
ATOM     13  C   UNL     1       3.661   3.394  -1.839  0.00  0.00    +0.005 C 
ATOM     14  C   UNL     1       2.653   4.023  -2.795  0.00  0.00    +0.037 C 
BRANCH   6  15
ATOM     15  C   UNL     1       1.100   4.132  -5.398  0.00  0.00    +0.244 C 
ATOM     16  O   UNL     1       0.489   5.183  -5.337  0.00  0.00    -0.270 OA
ATOM     17  N   UNL     1       2.017   3.940  -6.366  0.00  0.00    -0.325 N 
ATOM     18  H   UNL     1       2.504   3.102  -6.415  0.00  0.00    +0.145 HD
ATOM     19  H   UNL     1       2.191   4.640  -7.015  0.00  0.00    +0.145 HD
ENDBRANCH   6  15
ENDBRANCH   3   5
BRANCH   1  24
ATOM     20  N   UNL     1      -2.983  -0.620  -7.281  0.00  0.00    -0.165 NA
ATOM     21  C   UNL     1      -4.376  -0.800  -7.720  0.00  0.00    +0.110 C 
ATOM     22  C   UNL     1      -5.056   0.584  -7.666  0.00  0.00    +0.019 C 
ATOM     23  C   UNL     1      -4.173   1.366  -6.659  0.00  0.00    +0.031 C 
ATOM     24  C   UNL     1      -2.765   0.806  -6.980  0.00  0.00    +0.166 C 
BRANCH  20  25
ATOM     25  S   UNL     1      -1.849  -1.819  -7.145  0.00  0.00    +0.062 S 
ATOM     26  O   UNL     1      -0.802  -1.299  -6.337  0.00  0.00    -0.153 OA
ATOM     27  O   UNL     1      -2.552  -3.007  -6.808  0.00  0.00    -0.153 OA
BRANCH  25  30
ATOM     28  C   UNL     1       0.410  -1.481 -10.450  0.00  0.00    +0.040 A 
ATOM     29  C   UNL     1      -0.126  -1.281  -9.192  0.00  0.00    +0.031 A 
ATOM     30  C   UNL     1      -1.167  -2.076  -8.749  0.00  0.00    +0.106 A 
ATOM     31  C   UNL     1      -1.669  -3.076  -9.561  0.00  0.00    +0.031 A 
ATOM     32  C   UNL     1      -1.138  -3.275 -10.821  0.00  0.00    +0.040 A 
ATOM     33  C   UNL     1      -0.096  -2.479 -11.266  0.00  0.00    +0.124 A 
ATOM     34  F   UNL     1       0.427  -2.675 -12.496  0.00  0.00    -0.205 F 
ENDBRANCH  25  30
ENDBRANCH  20  25
ENDBRANCH   1  24
TORSDOF 5
