REMARK  Name = ZINC61700524
REMARK  8 active torsions:
REMARK  status: ('A' for Active; 'I' for Inactive)
REMARK    1  A    between atoms: C_1  and  C_2
REMARK    2  A    between atoms: C_2  and  C_4
REMARK    3  A    between atoms: C_2  and  N_22
REMARK    4  A    between atoms: C_7  and  S_11
REMARK    5  A    between atoms: S_11  and  C_12
REMARK    6  A    between atoms: N_18  and  C_19
REMARK    7  A    between atoms: C_19  and  C_20
REMARK    8  A    between atoms: C_19  and  C_21
REMARK                            x       y       z     vdW  Elec       q    Type
REMARK                         _______ _______ _______ _____ _____    ______ ____
ROOT
ATOM      1  C   UNL     1       1.434  -0.495   0.889  0.00  0.00    -0.061 A 
ATOM      2  C   UNL     1       0.597  -0.470   1.990  0.00  0.00    +0.003 A 
ATOM      3  C   UNL     1       1.047  -0.930   3.213  0.00  0.00    +0.017 A 
ATOM      4  C   UNL     1       2.342  -1.418   3.336  0.00  0.00    +0.034 A 
ATOM      5  C   UNL     1       3.181  -1.442   2.228  0.00  0.00    +0.055 A 
ATOM      6  C   UNL     1       2.722  -0.985   1.007  0.00  0.00    +0.023 A 
ATOM      7 CL   UNL     1       4.800  -2.051   2.376  0.00  0.00    -0.082 Cl
ENDROOT
BRANCH   1   9
ATOM      8  C   UNL     1       1.017   1.534  -0.473  0.00  0.00    -0.009 C 
ATOM      9  C   UNL     1       0.939   0.006  -0.443  0.00  0.00    -0.047 C 
BRANCH   9  10
ATOM     10  N   UNL     1      -0.454  -0.417  -0.638  0.00  0.00    +0.382 N 
ATOM     11  H   UNL     1      -0.785  -0.081  -1.530  0.00  0.00    -0.089 HD
ATOM     12  H   UNL     1      -0.505  -1.424  -0.619  0.00  0.00    -0.089 HD
ATOM     13  H   UNL     1      -1.028  -0.036   0.099  0.00  0.00    -0.089 HD
ENDBRANCH   9  10
ENDBRANCH   1   9
BRANCH   4  14
ATOM     14  S   UNL     1       2.920  -2.004   4.894  0.00  0.00    -0.048 S 
BRANCH  14  15
ATOM     15  C   UNL     1       2.864  -3.758   4.736  0.00  0.00    +0.197 A 
ATOM     16  N   UNL     1       2.392  -4.414   3.716  0.00  0.00    -0.144 NA
ATOM     17  N   UNL     1       2.531  -5.784   3.978  0.00  0.00    -0.226 N 
ATOM     18  H   UNL     1       2.264  -6.511   3.394  0.00  0.00    +0.194 HD
ATOM     19  C   UNL     1       3.103  -5.906   5.194  0.00  0.00    +0.345 A 
ATOM     20  O   UNL     1       3.379  -6.950   5.758  0.00  0.00    -0.245 OA
ATOM     21  N   UNL     1       3.319  -4.663   5.669  0.00  0.00    -0.268 N 
BRANCH  21  22
ATOM     22  C   UNL     1       3.929  -4.332   6.958  0.00  0.00    +0.088 C 
ATOM     23  C   UNL     1       3.091  -4.931   8.089  0.00  0.00    +0.031 C 
ATOM     24  C   UNL     1       5.346  -4.907   7.014  0.00  0.00    +0.031 C 
ENDBRANCH  21  22
ENDBRANCH  14  15
ENDBRANCH   4  14
TORSDOF 5
