REMARK  Name = ZINC09335746
REMARK  10 active torsions:
REMARK  status: ('A' for Active; 'I' for Inactive)
REMARK    1  A    between atoms: C_1  and  C_2
REMARK    2  A    between atoms: C_3  and  N_15
REMARK    3  A    between atoms: N_6  and  C_9
REMARK    4  A    between atoms: N_7  and  C_8
REMARK    5  A    between atoms: C_16  and  C_18
REMARK    6  A    between atoms: C_18  and  C_20
REMARK    7  A    between atoms: C_18  and  O_21
REMARK    8  A    between atoms: O_21  and  C_22
REMARK    9  A    between atoms: C_22  and  C_24
REMARK   10  A    between atoms: C_29  and  N_30
REMARK                            x       y       z     vdW  Elec       q    Type
REMARK                         _______ _______ _______ _____ _____    ______ ____
ROOT
ATOM      1  N   UNL     1      -4.333  -0.882   1.356  0.00  0.00    -0.277 N 
ATOM      2  C   UNL     1      -4.542  -2.023   0.670  0.00  0.00    +0.258 C 
ATOM      3  O   UNL     1      -3.627  -2.800   0.491  0.00  0.00    -0.271 OA
ATOM      4  H   UNL     1      -5.045  -0.228   1.438  0.00  0.00    +0.155 HD
ENDROOT
BRANCH   1   7
ATOM      5  C   UNL     1      -2.561   1.554   0.773  0.00  0.00    +0.067 C 
ATOM      6  C   UNL     1      -2.274   0.421   1.724  0.00  0.00    +0.059 A 
ATOM      7  C   UNL     1      -3.081  -0.639   1.955  0.00  0.00    +0.121 A 
ATOM      8  C   UNL     1      -2.414  -1.485   2.945  0.00  0.00    +0.293 A 
ATOM      9  O   UNL     1      -2.835  -2.530   3.408  0.00  0.00    -0.264 OA
ATOM     10  N   UNL     1      -1.241  -0.889   3.244  0.00  0.00    -0.216 N 
ATOM     11  N   UNL     1      -1.149   0.289   2.493  0.00  0.00    -0.282 N 
ATOM     12  C   UNL     1      -0.026   1.230   2.524  0.00  0.00    +0.171 C 
BRANCH  10  13
ATOM     13  C   UNL     1      -0.285  -1.364   4.147  0.00  0.00    +0.067 A 
ATOM     14  C   UNL     1       1.051  -1.434   3.773  0.00  0.00    +0.028 A 
ATOM     15  C   UNL     1       1.994  -1.900   4.668  0.00  0.00    +0.002 A 
ATOM     16  C   UNL     1       1.608  -2.307   5.932  0.00  0.00    +0.000 A 
ATOM     17  C   UNL     1       0.278  -2.243   6.306  0.00  0.00    +0.002 A 
ATOM     18  C   UNL     1      -0.669  -1.774   5.417  0.00  0.00    +0.028 A 
ENDBRANCH  10  13
ENDBRANCH   1   7
BRANCH   2  19
ATOM     19  C   UNL     1      -5.912  -2.334   0.124  0.00  0.00    +0.259 C 
ATOM     20  C   UNL     1      -6.915  -2.408   1.277  0.00  0.00    +0.062 C 
BRANCH  19  21
ATOM     21  O   UNL     1      -5.878  -3.610  -0.570  0.00  0.00    -0.449 OA
BRANCH  21  22
ATOM     22  C   UNL     1      -6.736  -3.770  -1.597  0.00  0.00    +0.342 C 
ATOM     23  O   UNL     1      -7.491  -2.869  -1.905  0.00  0.00    -0.245 OA
BRANCH  22  24
ATOM     24  C   UNL     1      -6.758  -5.037  -2.347  0.00  0.00    +0.080 A 
ATOM     25  C   UNL     1      -5.987  -6.121  -1.918  0.00  0.00    +0.018 A 
ATOM     26  C   UNL     1      -6.011  -7.303  -2.623  0.00  0.00    +0.021 A 
ATOM     27  C   UNL     1      -6.798  -7.425  -3.760  0.00  0.00    +0.043 A 
ATOM     28  C   UNL     1      -7.565  -6.363  -4.196  0.00  0.00    +0.043 A 
ATOM     29  C   UNL     1      -7.557  -5.165  -3.494  0.00  0.00    +0.040 A 
ATOM     30 CL   UNL     1      -6.818  -8.922  -4.638  0.00  0.00    -0.083 Cl
BRANCH  29  31
ATOM     31  N   UNL     1      -8.332  -4.097  -3.928  0.00  0.00    -0.357 N 
ATOM     32  H   UNL     1      -8.096  -3.191  -3.673  0.00  0.00    +0.142 HD
ATOM     33  H   UNL     1      -9.109  -4.257  -4.486  0.00  0.00    +0.142 HD
ENDBRANCH  29  31
ENDBRANCH  22  24
ENDBRANCH  21  22
ENDBRANCH  19  21
ENDBRANCH   2  19
TORSDOF 7
