REMARK  Name = ZINC66887778
REMARK  8 active torsions:
REMARK  status: ('A' for Active; 'I' for Inactive)
REMARK    1  A    between atoms: C_9  and  O_26
REMARK    2  A    between atoms: C_10  and  C_11
REMARK    3  A    between atoms: N_12  and  C_13
REMARK    4  A    between atoms: C_13  and  C_14
REMARK    5  A    between atoms: C_14  and  C_16
REMARK    6  A    between atoms: C_14  and  O_25
REMARK    7  A    between atoms: C_16  and  O_17
REMARK    8  A    between atoms: O_17  and  C_18
REMARK                            x       y       z     vdW  Elec       q    Type
REMARK                         _______ _______ _______ _____ _____    ______ ____
ROOT
ATOM      1  C   UNL     1       4.982   0.091  -0.046  0.00  0.00    +0.090 C 
ATOM      2  N   UNL     1       6.104  -0.552   0.038  0.00  0.00    -0.387 N 
ATOM      3  H   UNL     1       6.110  -1.522   0.033  0.00  0.00    +0.159 HD
ENDROOT
BRANCH   1  13
ATOM      4  C   UNL     1      -0.016   1.357   0.059  0.00  0.00    +0.001 A 
ATOM      5  C   UNL     1       1.168   2.091   0.052  0.00  0.00    +0.001 A 
ATOM      6  C   UNL     1       2.379   1.465   0.021  0.00  0.00    +0.009 A 
ATOM      7  C   UNL     1       2.434   0.066  -0.004  0.00  0.00    -0.006 A 
ATOM      8  C   UNL     1       1.233  -0.683   0.004  0.00  0.00    -0.017 A 
ATOM      9  C   UNL     1       0.003  -0.004   0.035  0.00  0.00    +0.008 A 
ATOM     10  C   UNL     1       1.290  -2.088  -0.020  0.00  0.00    +0.012 A 
ATOM     11  C   UNL     1       2.485  -2.734  -0.050  0.00  0.00    +0.046 A 
ATOM     12  C   UNL     1       3.696  -2.041  -0.058  0.00  0.00    +0.126 A 
ATOM     13  C   UNL     1       3.711  -0.646  -0.037  0.00  0.00    +0.040 A 
BRANCH  12  14
ATOM     14  O   UNL     1       4.865  -2.728  -0.088  0.00  0.00    -0.506 OA
ATOM     15  H   UNL     1       5.190  -2.913  -0.979  0.00  0.00    +0.292 HD
ENDBRANCH  12  14
ENDBRANCH   1  13
BRANCH   2  16
ATOM     16  C   UNL     1       7.366   0.187   0.139  0.00  0.00    +0.147 C 
BRANCH  16  17
ATOM     17  C   UNL     1       8.010  -0.089   1.499  0.00  0.00    +0.171 C 
BRANCH  17  18
ATOM     18  O   UNL     1       8.373  -1.468   1.583  0.00  0.00    -0.387 OA
ATOM     19  H   UNL     1       9.002  -1.752   0.906  0.00  0.00    +0.210 HD
ENDBRANCH  17  18
BRANCH  17  20
ATOM     20  C   UNL     1       9.262   0.778   1.655  0.00  0.00    +0.262 C 
BRANCH  20  21
ATOM     21  O   UNL     1       9.798   0.607   2.969  0.00  0.00    -0.489 OA
BRANCH  21  22
ATOM     22  C   UNL     1      10.920   1.312   3.273  0.00  0.00    +0.121 A 
ATOM     23  C   UNL     1      11.488   2.155   2.329  0.00  0.00    +0.048 A 
ATOM     24  C   UNL     1      12.628   2.870   2.640  0.00  0.00    +0.042 A 
ATOM     25  C   UNL     1      13.203   2.747   3.894  0.00  0.00    +0.124 A 
ATOM     26  C   UNL     1      12.637   1.906   4.837  0.00  0.00    +0.042 A 
ATOM     27  C   UNL     1      11.494   1.194   4.531  0.00  0.00    +0.048 A 
ATOM     28  F   UNL     1      14.318   3.447   4.197  0.00  0.00    -0.205 F 
ENDBRANCH  21  22
ENDBRANCH  20  21
ENDBRANCH  17  20
ENDBRANCH  16  17
ENDBRANCH   2  16
TORSDOF 8
