REMARK  Name = ZINC65739804
REMARK  8 active torsions:
REMARK  status: ('A' for Active; 'I' for Inactive)
REMARK    1  A    between atoms: C_1  and  C_2
REMARK    2  A    between atoms: C_2  and  O_18
REMARK    3  A    between atoms: C_4  and  O_17
REMARK    4  A    between atoms: C_6  and  O_16
REMARK    5  A    between atoms: C_8  and  C_11
REMARK    6  A    between atoms: C_11  and  C_13
REMARK    7  A    between atoms: C_11  and  O_15
REMARK    8  A    between atoms: C_13  and  O_14
REMARK                            x       y       z     vdW  Elec       q    Type
REMARK                         _______ _______ _______ _____ _____    ______ ____
ROOT
ATOM      1  C   UNL     1      -0.019   1.526   0.010  0.00  0.00    +0.074 C 
ATOM      2  C   UNL     1       0.002  -0.004   0.002  0.00  0.00    +0.167 C 
ATOM      3  C   UNL     1       0.720  -0.498  -1.257  0.00  0.00    +0.098 C 
ATOM      4  C   UNL     1       2.173  -0.014  -1.230  0.00  0.00    +0.151 C 
ATOM      5  C   UNL     1       2.842  -0.512   0.054  0.00  0.00    +0.174 C 
ATOM      6  C   UNL     1       2.042  -0.018   1.263  0.00  0.00    +0.183 C 
ATOM      7  O   UNL     1       0.693  -0.478   1.160  0.00  0.00    -0.341 OA
ENDROOT
BRANCH   5   8
ATOM      8  O   UNL     1       2.873  -1.941   0.053  0.00  0.00    -0.387 OA
ATOM      9  H   UNL     1       3.361  -2.323  -0.689  0.00  0.00    +0.210 HD
ENDBRANCH   5   8
BRANCH   4  10
ATOM     10  O   UNL     1       2.870  -0.530  -2.366  0.00  0.00    -0.389 OA
ATOM     11  H   UNL     1       2.495  -0.258  -3.214  0.00  0.00    +0.210 HD
ENDBRANCH   4  10
BRANCH   2  12
ATOM     12  O   UNL     1      -1.339  -0.499   0.012  0.00  0.00    -0.365 OA
ATOM     13  H   UNL     1      -1.853  -0.225   0.783  0.00  0.00    +0.213 HD
ENDBRANCH   2  12
BRANCH   6  14
ATOM     14  C   UNL     1       2.670  -0.562   2.547  0.00  0.00    +0.171 C 
BRANCH  14  15
ATOM     15  O   UNL     1       2.760  -1.986   2.468  0.00  0.00    -0.387 OA
ATOM     16  H   UNL     1       1.908  -2.428   2.358  0.00  0.00    +0.210 HD
ENDBRANCH  14  15
BRANCH  14  17
ATOM     17  C   UNL     1       1.801  -0.172   3.745  0.00  0.00    +0.189 C 
BRANCH  17  18
ATOM     18  O   UNL     1       2.446  -0.578   4.954  0.00  0.00    -0.392 OA
ATOM     19  H   UNL     1       1.950  -0.362   5.755  0.00  0.00    +0.210 HD
ENDBRANCH  17  18
ENDBRANCH  14  17
ENDBRANCH   6  14
TORSDOF 7
