REMARK  Name = ZINC62926038
REMARK  3 active torsions:
REMARK  status: ('A' for Active; 'I' for Inactive)
REMARK    1  A    between atoms: C_1  and  C_2
REMARK    2  A    between atoms: C_2  and  C_16
REMARK    3  A    between atoms: C_12  and  N_15
REMARK                            x       y       z     vdW  Elec       q    Type
REMARK                         _______ _______ _______ _____ _____    ______ ____
ROOT
ATOM      1  C   UNL     1       1.437   1.492  -1.323  0.00  0.00    +0.024 C 
ATOM      2  C   UNL     1       2.245   1.025  -0.111  0.00  0.00    +0.086 C 
ATOM      3  C   UNL     1       1.373   1.068   1.166  0.00  0.00    +0.038 C 
ATOM      4  C   UNL     1       0.885  -0.396   1.298  0.00  0.00    +0.110 C 
ATOM      5  N   UNL     1       2.061  -1.187   0.866  0.00  0.00    -0.284 N 
ATOM      6  C   UNL     1       2.646  -0.453  -0.271  0.00  0.00    +0.127 C 
ATOM      7  C   UNL     1       2.505  -2.341   1.403  0.00  0.00    +0.305 C 
ATOM      8  O   UNL     1       2.032  -2.747   2.446  0.00  0.00    -0.252 OA
ATOM      9  N   UNL     1       3.474  -3.043   0.783  0.00  0.00    -0.286 N 
ATOM     10  C   UNL     1       3.946  -2.651  -0.552  0.00  0.00    +0.108 C 
ATOM     11  C   UNL     1       3.851  -3.863  -1.484  0.00  0.00    +0.003 C 
ATOM     12  C   UNL     1       4.615  -5.037  -0.867  0.00  0.00    -0.072 C 
ATOM     13  C   UNL     1       3.983  -5.410   0.476  0.00  0.00    +0.003 C 
ATOM     14  C   UNL     1       4.083  -4.212   1.433  0.00  0.00    +0.108 C 
ENDROOT
BRANCH  12  15
ATOM     15  N   UNL     1       4.554  -6.191  -1.774  0.00  0.00    +0.380 N 
ATOM     16  H   UNL     1       4.972  -5.946  -2.659  0.00  0.00    -0.090 HD
ATOM     17  H   UNL     1       5.058  -6.965  -1.367  0.00  0.00    -0.090 HD
ATOM     18  H   UNL     1       3.591  -6.455  -1.918  0.00  0.00    -0.090 HD
ENDBRANCH  12  15
BRANCH   2  19
ATOM     19  C   UNL     1       3.472   1.884   0.062  0.00  0.00    +0.363 C 
ATOM     20  O   UNL     1       3.355   3.086   0.231  0.00  0.00    -0.246 OA
ATOM     21  O   UNL     1       4.580   1.377   0.032  0.00  0.00    -0.246 OA
ENDBRANCH   2  19
TORSDOF 2
