REMARK  Name = ZINC32262148
REMARK  3 active torsions:
REMARK  status: ('A' for Active; 'I' for Inactive)
REMARK    1  A    between atoms: C_5  and  C_6
REMARK    2  A    between atoms: N_8  and  N_9
REMARK    3  A    between atoms: C_10  and  C_12
REMARK                            x       y       z     vdW  Elec       q    Type
REMARK                         _______ _______ _______ _____ _____    ______ ____
ROOT
ATOM      1  C   UNL     1      -6.440   3.187   2.199  0.00  0.00    +0.267 C 
ATOM      2  O   UNL     1      -6.968   2.466   1.373  0.00  0.00    -0.268 OA
ATOM      3  N   UNL     1      -5.100   3.177   2.344  0.00  0.00    -0.230 N 
ATOM      4  H   UNL     1      -4.623   3.828   3.091  0.00  0.00    +0.173 HD
ENDROOT
BRANCH   1   9
ATOM      5  C   UNL     1      -8.637   4.230   3.043  0.00  0.00    +0.022 A 
ATOM      6  C   UNL     1      -9.155   5.127   3.942  0.00  0.00    +0.028 A 
ATOM      7  C   UNL     1      -8.310   5.807   4.763  0.00  0.00    +0.079 A 
ATOM      8  S   UNL     1      -6.748   5.207   4.308  0.00  0.00    -0.072 S 
ATOM      9  C   UNL     1      -7.260   4.065   3.036  0.00  0.00    +0.077 A 
ATOM     10 CL   UNL     1      -8.700   6.989   5.973  0.00  0.00    -0.076 Cl
ENDBRANCH   1   9
BRANCH   3  11
ATOM     11  N   UNL     1      -4.315   2.337   1.544  0.00  0.00    -0.232 N 
ATOM     12  C   UNL     1      -2.975   2.327   1.689  0.00  0.00    +0.258 C 
ATOM     13  O   UNL     1      -2.449   3.045   2.512  0.00  0.00    -0.271 OA
ATOM     14  H   UNL     1      -4.792   1.685   0.797  0.00  0.00    +0.173 HD
BRANCH  12  15
ATOM     15  C   UNL     1      -2.131   1.423   0.827  0.00  0.00    +0.205 C 
ATOM     16  C   UNL     1      -2.230   1.847  -0.655  0.00  0.00    +0.043 C 
ATOM     17  C   UNL     1      -0.804   1.620  -1.206  0.00  0.00    +0.031 C 
ATOM     18  C   UNL     1      -0.013   1.086   0.008  0.00  0.00    +0.161 C 
ATOM     19  O   UNL     1      -0.731   1.573   1.163  0.00  0.00    -0.367 OA
ENDBRANCH  12  15
ENDBRANCH   3  11
TORSDOF 3
