REMARK  Name = ZINC62961972
REMARK  2 active torsions:
REMARK  status: ('A' for Active; 'I' for Inactive)
REMARK    1  A    between atoms: C_6  and  N_7
REMARK    2  A    between atoms: N_7  and  C_8
REMARK                            x       y       z     vdW  Elec       q    Type
REMARK                         _______ _______ _______ _____ _____    ______ ____
ROOT
ATOM      1  C   UNL     1      -0.017   1.384   0.010  0.00  0.00    +0.024 A 
ATOM      2  C   UNL     1       1.173   2.089   0.002  0.00  0.00    +0.018 A 
ATOM      3  C   UNL     1       2.379   1.409  -0.014  0.00  0.00    +0.030 A 
ATOM      4  C   UNL     1       2.409   0.014  -0.025  0.00  0.00    +0.049 A 
ATOM      5  C   UNL     1       1.209  -0.687  -0.015  0.00  0.00    +0.047 A 
ATOM      6  C   UNL     1       0.002  -0.004   0.002  0.00  0.00    +0.029 A 
ATOM      7  N   UNL     1       3.611  -0.689  -0.052  0.00  0.00    -0.284 N 
ATOM      8  C   UNL     1       4.800  -0.230   0.328  0.00  0.00    +0.227 C 
ATOM      9  O   UNL     1       5.754  -0.976   0.252  0.00  0.00    -0.275 OA
ATOM     10  C   UNL     1       5.027   1.164   0.847  0.00  0.00    +0.170 C 
ATOM     11  S   UNL     1       3.902   2.301  -0.019  0.00  0.00    -0.114 S 
ATOM     12  H   UNL     1       3.578  -1.601  -0.380  0.00  0.00    +0.155 HD
ENDROOT
BRANCH   6  13
ATOM     13  N   UNL     1      -1.202  -0.717   0.012  0.00  0.00    -0.339 N 
ATOM     14  H   UNL     1      -1.192  -1.687   0.007  0.00  0.00    +0.146 HD
BRANCH  13  15
ATOM     15  C   UNL     1      -2.479   0.001   0.031  0.00  0.00    +0.093 C 
ATOM     16  C   UNL     1      -2.885   0.358  -1.409  0.00  0.00    +0.046 C 
ATOM     17  C   UNL     1      -4.367   0.830  -1.391  0.00  0.00    +0.168 C 
ATOM     18  S   UNL     1      -5.092  -0.380  -0.206  0.00  0.00    -0.029 S 
ATOM     19  O   UNL     1      -5.940   0.312   0.701  0.00  0.00    -0.174 OA
ATOM     20  O   UNL     1      -5.602  -1.490  -0.932  0.00  0.00    -0.174 OA
ATOM     21  C   UNL     1      -3.563  -0.895   0.676  0.00  0.00    +0.188 C 
ENDBRANCH  13  15
ENDBRANCH   6  13
TORSDOF 2
