REMARK  Name = ZINC35170814
REMARK  5 active torsions:
REMARK  status: ('A' for Active; 'I' for Inactive)
REMARK    1  A    between atoms: C_1  and  C_2
REMARK    2  A    between atoms: C_5  and  N_9
REMARK    3  A    between atoms: C_6  and  C_8
REMARK    4  A    between atoms: C_10  and  C_12
REMARK    5  A    between atoms: C_12  and  N_22
REMARK                            x       y       z     vdW  Elec       q    Type
REMARK                         _______ _______ _______ _____ _____    ______ ____
ROOT
ATOM      1  C   UNL     1      -0.032  -6.295  -1.395  0.00  0.00    +0.116 C 
ATOM      2  C   UNL     1       1.348  -6.956  -1.411  0.00  0.00    +0.022 C 
ATOM      3  C   UNL     1       1.192  -8.455  -1.674  0.00  0.00    +0.009 C 
ATOM      4  C   UNL     1       0.509  -8.668  -3.026  0.00  0.00    -0.010 C 
ATOM      5  C   UNL     1       1.361  -8.042  -4.132  0.00  0.00    +0.007 C 
ATOM      6  C   UNL     1       1.517  -6.543  -3.869  0.00  0.00    -0.010 C 
ATOM      7  C   UNL     1       2.200  -6.330  -2.517  0.00  0.00    +0.009 C 
ATOM      8  C   UNL     1       0.137  -5.882  -3.853  0.00  0.00    +0.009 C 
ATOM      9  C   UNL     1      -0.715  -6.508  -2.747  0.00  0.00    +0.022 C 
ATOM     10  C   UNL     1      -0.871  -8.007  -3.010  0.00  0.00    +0.009 C 
ENDROOT
BRANCH   1  12
ATOM     11  N   UNL     1      -0.933  -4.096  -0.706  0.00  0.00    -0.283 N 
ATOM     12  C   UNL     1       0.121  -4.818  -1.136  0.00  0.00    +0.241 C 
ATOM     13  O   UNL     1       1.193  -4.279  -1.315  0.00  0.00    -0.273 OA
ATOM     14  H   UNL     1      -1.775  -4.536  -0.513  0.00  0.00    +0.155 HD
BRANCH  11  19
ATOM     15  C   UNL     1      -0.439   1.514  -0.025  0.00  0.00    +0.044 C 
ATOM     16  C   UNL     1      -0.570   0.024  -0.206  0.00  0.00    -0.050 A 
ATOM     17  C   UNL     1       0.552  -0.782  -0.132  0.00  0.00    +0.005 A 
ATOM     18  C   UNL     1       0.435  -2.148  -0.297  0.00  0.00    +0.024 A 
ATOM     19  C   UNL     1      -0.811  -2.713  -0.538  0.00  0.00    +0.036 A 
ATOM     20  C   UNL     1      -1.935  -1.901  -0.611  0.00  0.00    -0.029 A 
ATOM     21  C   UNL     1      -1.812  -0.536  -0.440  0.00  0.00    +0.008 A 
ATOM     22  C   UNL     1      -3.289  -2.510  -0.871  0.00  0.00    +0.045 C 
ENDBRANCH  11  19
ENDBRANCH   1  12
BRANCH   1  23
ATOM     23  N   UNL     1      -0.848  -6.894  -0.336  0.00  0.00    -0.304 N 
ATOM     24  C   UNL     1      -0.485  -6.756   0.955  0.00  0.00    +0.326 C 
ATOM     25  O   UNL     1       0.490  -6.095   1.242  0.00  0.00    -0.280 OA
ATOM     26  H   UNL     1      -1.650  -7.390  -0.564  0.00  0.00    +0.149 HD
ENDBRANCH   1  23
TORSDOF 3
