REMARK  Name = ZINC20329386
REMARK  8 active torsions:
REMARK  status: ('A' for Active; 'I' for Inactive)
REMARK    1  A    between atoms: C_1  and  C_2
REMARK    2  A    between atoms: C_16  and  O_17
REMARK    3  A    between atoms: C_24  and  O_25
REMARK    4  A    between atoms: N_26  and  C_27
REMARK    5  A    between atoms: C_27  and  C_28
REMARK    6  A    between atoms: C_28  and  C_29
REMARK    7  A    between atoms: C_29  and  N_30
REMARK    8  A    between atoms: C_35  and  C_37
REMARK                            x       y       z     vdW  Elec       q    Type
REMARK                         _______ _______ _______ _____ _____    ______ ____
ROOT
ATOM      1  C   UNL     1      -5.007  15.808  -0.432  0.00  0.00    +0.044 C 
ATOM      2  C   UNL     1      -5.477  14.618  -1.228  0.00  0.00    -0.047 A 
ATOM      3  C   UNL     1      -6.450  14.779  -2.198  0.00  0.00    +0.005 A 
ATOM      4  C   UNL     1      -6.885  13.691  -2.931  0.00  0.00    +0.032 A 
ATOM      5  C   UNL     1      -6.345  12.436  -2.693  0.00  0.00    +0.107 A 
ATOM      6  C   UNL     1      -5.364  12.273  -1.716  0.00  0.00    +0.154 A 
ATOM      7  C   UNL     1      -4.934  13.370  -0.986  0.00  0.00    +0.051 A 
ATOM      8  O   UNL     1      -4.831  11.047  -1.477  0.00  0.00    -0.452 OA
ATOM      9  C   UNL     1      -5.235   9.959  -2.178  0.00  0.00    +0.156 A 
ATOM     10  C   UNL     1      -4.678   8.726  -1.908  0.00  0.00    +0.074 A 
ATOM     11  C   UNL     1      -5.077   7.596  -2.621  0.00  0.00    +0.050 A 
ATOM     12  C   UNL     1      -6.059   7.704  -3.614  0.00  0.00    +0.053 A 
ATOM     13  C   UNL     1      -6.638   8.965  -3.891  0.00  0.00    +0.059 A 
ATOM     14  C   UNL     1      -6.223  10.086  -3.172  0.00  0.00    +0.118 A 
ATOM     15  N   UNL     1      -6.781  11.329  -3.431  0.00  0.00    -0.240 NA
ATOM     16  C   UNL     1      -7.669   9.088  -4.931  0.00  0.00    +0.135 A 
ATOM     17  C   UNL     1      -8.099   7.893  -5.686  0.00  0.00    +0.028 A 
ATOM     18  C   UNL     1      -9.075   8.000  -6.674  0.00  0.00    +0.012 A 
ATOM     19  C   UNL     1      -9.470   6.876  -7.376  0.00  0.00    +0.001 A 
ATOM     20  C   UNL     1      -8.903   5.644  -7.103  0.00  0.00    +0.001 A 
ATOM     21  C   UNL     1      -7.933   5.519  -6.126  0.00  0.00    +0.012 A 
ATOM     22  C   UNL     1      -7.522   6.641  -5.409  0.00  0.00    +0.028 A 
ATOM     23  C   UNL     1      -6.486   6.518  -4.364  0.00  0.00    +0.134 A 
ATOM     24  N   UNL     1      -4.505   6.364  -2.344  0.00  0.00    -0.384 N 
ATOM     25  H   UNL     1      -4.746   5.492  -2.969  0.00  0.00    +0.160 HD
ENDROOT
BRANCH  16  26
ATOM     26  O   UNL     1      -8.168  10.172  -5.170  0.00  0.00    -0.505 OA
ATOM     27  H   UNL     1      -8.939  10.262  -5.949  0.00  0.00    +0.292 HD
ENDBRANCH  16  26
BRANCH  23  28
ATOM     28  O   UNL     1      -5.987   5.434  -4.125  0.00  0.00    -0.505 OA
ATOM     29  H   UNL     1      -6.308   4.545  -4.687  0.00  0.00    +0.292 HD
ENDBRANCH  23  28
BRANCH  24  30
ATOM     30  C   UNL     1      -3.579   6.224  -1.217  0.00  0.00    +0.111 C 
BRANCH  30  31
ATOM     31  C   UNL     1      -3.096   4.775  -1.132  0.00  0.00    +0.002 C 
BRANCH  31  32
ATOM     32  C   UNL     1      -2.129   4.628   0.045  0.00  0.00    -0.077 C 
BRANCH  32  33
ATOM     33  N   UNL     1      -1.665   3.237   0.127  0.00  0.00    +0.381 N 
ATOM     34  C   UNL     1      -0.846   2.885  -1.040  0.00  0.00    -0.078 C 
ATOM     35  C   UNL     1      -0.503   1.395  -0.995  0.00  0.00    -0.019 C 
ATOM     36  C   UNL     1       0.260   1.091   0.298  0.00  0.00    -0.003 C 
ATOM     37  C   UNL     1      -0.594   1.511   1.498  0.00  0.00    -0.016 C 
ATOM     38  C   UNL     1      -0.935   2.998   1.379  0.00  0.00    -0.072 C 
ATOM     39  C   UNL     1      -1.807   3.417   2.564  0.00  0.00    -0.013 C 
ATOM     40  H   UNL     1      -2.550   2.583   0.125  0.00  0.00    -0.081 HD
ENDBRANCH  32  33
ENDBRANCH  31  32
ENDBRANCH  30  31
ENDBRANCH  24  30
TORSDOF 6
