REMARK  Name = ZINC39545214
REMARK  2 active torsions:
REMARK  status: ('A' for Active; 'I' for Inactive)
REMARK    1  A    between atoms: C_4  and  N_7
REMARK    2  A    between atoms: C_8  and  C_10
REMARK                            x       y       z     vdW  Elec       q    Type
REMARK                         _______ _______ _______ _____ _____    ______ ____
ROOT
ATOM      1  C   UNL     1       5.050  -2.560   0.028  0.00  0.00    +0.152 C 
ATOM      2  C   UNL     1       5.767  -2.243   1.355  0.00  0.00    +0.076 C 
ATOM      3  C   UNL     1       5.957  -3.596   2.003  0.00  0.00    +0.032 C 
ATOM      4  C   UNL     1       5.466  -4.525   1.224  0.00  0.00    +0.085 C 
ATOM      5  N   UNL     1       5.425  -5.905   1.504  0.00  0.00    -0.303 N 
ATOM      6  C   UNL     1       4.271  -6.566   1.048  0.00  0.00    +0.037 A 
ATOM      7  C   UNL     1       4.069  -7.901   1.368  0.00  0.00    +0.023 A 
ATOM      8  C   UNL     1       2.941  -8.553   0.912  0.00  0.00    +0.002 A 
ATOM      9  C   UNL     1       2.018  -7.872   0.139  0.00  0.00    +0.000 A 
ATOM     10  C   UNL     1       2.217  -6.542  -0.176  0.00  0.00    +0.007 A 
ATOM     11  C   UNL     1       3.343  -5.877   0.281  0.00  0.00    -0.010 A 
ATOM     12  C   UNL     1       3.519  -4.420  -0.058  0.00  0.00    +0.124 C 
ATOM     13  N   UNL     1       4.930  -4.027   0.025  0.00  0.00    -0.369 NA
ATOM     14 BR   UNL     1       6.777  -3.897   3.680  0.00  0.00    -0.052 Br
ATOM     15  H   UNL     1       6.138  -6.364   1.976  0.00  0.00    +0.153 HD
ATOM     16  H   UNL     1       5.436  -4.408  -0.760  0.00  0.00    +0.129 HD
ENDROOT
BRANCH   1  18
ATOM     17  N   UNL     1       3.287  -1.234  -1.091  0.00  0.00    -0.113 N 
ATOM     18  C   UNL     1       3.687  -1.918  -0.001  0.00  0.00    +0.264 C 
ATOM     19  O   UNL     1       2.949  -2.017   0.957  0.00  0.00    -0.271 OA
ATOM     20  O   UNL     1       4.102  -1.209  -2.249  0.00  0.00    -0.088 OA
BRANCH  17  24
ATOM     21  C   UNL     1      -0.345   0.806  -1.057  0.00  0.00    +0.000 A 
ATOM     22  C   UNL     1       0.611   1.083  -0.096  0.00  0.00    +0.002 A 
ATOM     23  C   UNL     1       1.816   0.408  -0.105  0.00  0.00    +0.026 A 
ATOM     24  C   UNL     1       2.067  -0.549  -1.080  0.00  0.00    +0.067 A 
ATOM     25  C   UNL     1       1.105  -0.825  -2.042  0.00  0.00    +0.026 A 
ATOM     26  C   UNL     1      -0.098  -0.146  -2.028  0.00  0.00    +0.002 A 
ENDBRANCH  17  24
ENDBRANCH   1  18
TORSDOF 2
