REMARK  Name = ZINC51131002
REMARK  8 active torsions:
REMARK  status: ('A' for Active; 'I' for Inactive)
REMARK    1  A    between atoms: C_1  and  C_2
REMARK    2  A    between atoms: C_9  and  N_15
REMARK    3  A    between atoms: C_10  and  C_11
REMARK    4  A    between atoms: C_11  and  O_13
REMARK    5  A    between atoms: O_13  and  C_14
REMARK    6  A    between atoms: C_16  and  C_18
REMARK    7  A    between atoms: C_18  and  N_19
REMARK    8  A    between atoms: C_23  and  C_26
REMARK                            x       y       z     vdW  Elec       q    Type
REMARK                         _______ _______ _______ _____ _____    ______ ____
ROOT
ATOM      1  N   UNL     1       1.940  -5.826   1.701  0.00  0.00    -0.278 N 
ATOM      2  C   UNL     1       2.250  -6.085   2.987  0.00  0.00    +0.232 C 
ATOM      3  O   UNL     1       2.229  -5.192   3.808  0.00  0.00    -0.274 OA
ATOM      4  H   UNL     1       1.957  -6.540   1.045  0.00  0.00    +0.155 HD
ENDROOT
BRANCH   1  12
ATOM      5  C   UNL     1      -0.019   1.526   0.010  0.00  0.00    +0.008 C 
ATOM      6  C   UNL     1       0.002  -0.004   0.002  0.00  0.00    -0.009 C 
ATOM      7  C   UNL     1       0.724  -0.500  -1.254  0.00  0.00    +0.008 C 
ATOM      8  C   UNL     1       0.537  -2.012  -1.399  0.00  0.00    +0.037 C 
ATOM      9  C   UNL     1       0.935  -2.680  -0.091  0.00  0.00    -0.021 A 
ATOM     10  C   UNL     1       1.020  -1.977   1.059  0.00  0.00    -0.004 A 
ATOM     11  S   UNL     1       1.507  -3.164   2.276  0.00  0.00    -0.077 S 
ATOM     12  C   UNL     1       1.598  -4.539   1.316  0.00  0.00    +0.086 A 
ATOM     13  C   UNL     1       1.254  -4.091   0.050  0.00  0.00    +0.091 A 
ATOM     14  C   UNL     1       0.750  -0.515   1.242  0.00  0.00    +0.046 C 
BRANCH  13  15
ATOM     15  C   UNL     1       1.213  -5.001  -1.097  0.00  0.00    +0.342 C 
ATOM     16  O   UNL     1       2.208  -5.170  -1.774  0.00  0.00    -0.245 OA
BRANCH  15  17
ATOM     17  O   UNL     1       0.071  -5.651  -1.401  0.00  0.00    -0.464 OA
ATOM     18  C   UNL     1       0.103  -6.523  -2.533  0.00  0.00    +0.280 C 
ENDBRANCH  15  17
ENDBRANCH  13  15
ENDBRANCH   1  12
BRANCH   2  19
ATOM     19  C   UNL     1       2.621  -7.484   3.406  0.00  0.00    +0.181 C 
BRANCH  19  20
ATOM     20  N   UNL     1       2.912  -7.504   4.845  0.00  0.00    -0.289 NA
ATOM     21  C   UNL     1       4.120  -6.722   5.149  0.00  0.00    +0.113 C 
ATOM     22  C   UNL     1       4.352  -6.720   6.663  0.00  0.00    +0.176 C 
ATOM     23  O   UNL     1       4.449  -8.069   7.128  0.00  0.00    -0.365 OA
ATOM     24  C   UNL     1       3.289  -8.858   6.849  0.00  0.00    +0.217 C 
ATOM     25  C   UNL     1       3.046  -8.883   5.337  0.00  0.00    +0.126 C 
BRANCH  24  26
ATOM     26  C   UNL     1       3.506 -10.264   7.347  0.00  0.00    +0.241 C 
ATOM     27  O   UNL     1       4.581 -10.586   7.806  0.00  0.00    -0.273 OA
ATOM     28  N   UNL     1       2.504 -11.164   7.283  0.00  0.00    -0.327 N 
ATOM     29  H   UNL     1       1.644 -10.906   6.916  0.00  0.00    +0.145 HD
ATOM     30  H   UNL     1       2.643 -12.068   7.604  0.00  0.00    +0.145 HD
ENDBRANCH  24  26
ENDBRANCH  19  20
ENDBRANCH   2  19
TORSDOF 6
