REMARK  Name = ZINC57875086
REMARK  6 active torsions:
REMARK  status: ('A' for Active; 'I' for Inactive)
REMARK    1  A    between atoms: C_1  and  C_2
REMARK    2  A    between atoms: C_2  and  C_3
REMARK    3  A    between atoms: C_2  and  C_4
REMARK    4  A    between atoms: N_12  and  C_13
REMARK    5  A    between atoms: C_13  and  C_14
REMARK    6  A    between atoms: C_17  and  N_20
REMARK                            x       y       z     vdW  Elec       q    Type
REMARK                         _______ _______ _______ _____ _____    ______ ____
ROOT
ATOM      1  C   UNL     1       0.707  -0.490  -1.238  0.00  0.00    +0.115 A 
ATOM      2  N   UNL     1       0.336  -0.230  -2.457  0.00  0.00    -0.230 NA
ATOM      3  C   UNL     1       1.193  -0.821  -3.328  0.00  0.00    +0.110 A 
ATOM      4  C   UNL     1       1.274  -0.873  -4.723  0.00  0.00    +0.053 A 
ATOM      5  C   UNL     1       2.311  -1.590  -5.290  0.00  0.00    +0.061 A 
ATOM      6  C   UNL     1       3.229  -2.229  -4.469  0.00  0.00    +0.133 A 
ATOM      7  N   UNL     1       3.134  -2.167  -3.157  0.00  0.00    -0.234 NA
ATOM      8  C   UNL     1       2.162  -1.494  -2.563  0.00  0.00    +0.161 A 
ATOM      9  N   UNL     1       1.829  -1.261  -1.245  0.00  0.00    -0.308 N 
ATOM     10 CL   UNL     1       2.463  -1.692  -7.016  0.00  0.00    -0.082 Cl
ENDROOT
BRANCH   1  12
ATOM     11  C   UNL     1      -0.019   1.526   0.010  0.00  0.00    +0.015 C 
ATOM     12  C   UNL     1       0.002  -0.004   0.002  0.00  0.00    +0.049 C 
ATOM     13  C   UNL     1      -1.433  -0.534   0.013  0.00  0.00    +0.015 C 
ENDBRANCH   1  12
BRANCH   9  14
ATOM     14  C   UNL     1       2.550  -1.754  -0.069  0.00  0.00    +0.160 C 
BRANCH  14  15
ATOM     15  C   UNL     1       1.992  -3.095   0.335  0.00  0.00    -0.028 A 
ATOM     16  C   UNL     1       0.941  -3.163   1.231  0.00  0.00    +0.007 A 
ATOM     17  C   UNL     1       0.427  -4.389   1.604  0.00  0.00    +0.023 A 
ATOM     18  C   UNL     1       0.969  -5.556   1.078  0.00  0.00    +0.025 A 
ATOM     19  C   UNL     1       2.025  -5.484   0.179  0.00  0.00    +0.023 A 
ATOM     20  C   UNL     1       2.530  -4.254  -0.194  0.00  0.00    +0.007 A 
BRANCH  18  21
ATOM     21  N   UNL     1       0.453  -6.798   1.454  0.00  0.00    -0.358 N 
ATOM     22  H   UNL     1      -0.285  -6.847   2.082  0.00  0.00    +0.142 HD
ATOM     23  H   UNL     1       0.832  -7.612   1.086  0.00  0.00    +0.142 HD
ENDBRANCH  18  21
ENDBRANCH  14  15
ENDBRANCH   9  14
TORSDOF 4
