REMARK  Name = ZINC39982673
REMARK  9 active torsions:
REMARK  status: ('A' for Active; 'I' for Inactive)
REMARK    1  A    between atoms: C_1  and  C_2
REMARK    2  A    between atoms: C_2  and  C_3
REMARK    3  A    between atoms: C_2  and  C_4
REMARK    4  A    between atoms: C_4  and  C_6
REMARK    5  A    between atoms: C_4  and  N_17
REMARK    6  A    between atoms: C_18  and  C_20
REMARK    7  A    between atoms: C_20  and  S_21
REMARK    8  A    between atoms: S_21  and  C_22
REMARK    9  A    between atoms: C_26  and  C_28
REMARK                            x       y       z     vdW  Elec       q    Type
REMARK                         _______ _______ _______ _____ _____    ______ ____
ROOT
ATOM      1  N   UNL     1      -2.142  -0.048  -1.174  0.00  0.00    -0.308 N 
ATOM      2  C   UNL     1      -2.727   1.166  -1.160  0.00  0.00    +0.224 C 
ATOM      3  O   UNL     1      -2.667   1.857  -0.165  0.00  0.00    -0.275 OA
ATOM      4  H   UNL     1      -2.190  -0.601  -1.970  0.00  0.00    +0.149 HD
ENDROOT
BRANCH   1   5
ATOM      5  C   UNL     1      -1.433  -0.534   0.013  0.00  0.00    +0.106 C 
BRANCH   5   6
ATOM      6  C   UNL     1      -1.413  -2.041   0.005  0.00  0.00    -0.023 A 
ATOM      7  C   UNL     1      -1.201  -2.720  -1.181  0.00  0.00    +0.009 A 
ATOM      8  C   UNL     1      -1.181  -4.103  -1.196  0.00  0.00    +0.050 A 
ATOM      9  C   UNL     1      -1.373  -4.806  -0.018  0.00  0.00    +0.162 A 
ATOM     10  C   UNL     1      -1.585  -4.123   1.171  0.00  0.00    +0.162 A 
ATOM     11  C   UNL     1      -1.601  -2.739   1.184  0.00  0.00    +0.055 A 
ATOM     12  O   UNL     1      -1.772  -4.825   2.327  0.00  0.00    -0.488 OA
ATOM     13  C   UNL     1      -2.989  -5.571   2.415  0.00  0.00    +0.232 C 
ATOM     14  C   UNL     1      -2.839  -6.928   1.746  0.00  0.00    +0.082 C 
ATOM     15  C   UNL     1      -2.602  -6.813   0.249  0.00  0.00    +0.232 C 
ATOM     16  O   UNL     1      -1.353  -6.170  -0.019  0.00  0.00    -0.488 OA
ENDBRANCH   5   6
BRANCH   5  18
ATOM     17  C   UNL     1      -0.019   1.526   0.010  0.00  0.00    +0.009 C 
ATOM     18  C   UNL     1       0.002  -0.004   0.002  0.00  0.00    +0.008 C 
ATOM     19  C   UNL     1       0.742  -0.511   1.242  0.00  0.00    +0.009 C 
ENDBRANCH   5  18
ENDBRANCH   1   5
BRANCH   2  20
ATOM     20  C   UNL     1      -3.456   1.665  -2.381  0.00  0.00    +0.170 C 
BRANCH  20  21
ATOM     21  S   UNL     1      -4.128   3.317  -2.050  0.00  0.00    -0.087 S 
BRANCH  21  22
ATOM     22  C   UNL     1      -4.963   3.768  -3.596  0.00  0.00    +0.339 C 
ATOM     23  N   UNL     1      -6.000   2.777  -3.929  0.00  0.00    -0.219 N 
ATOM     24  N   UNL     1      -5.617   2.232  -5.163  0.00  0.00    -0.145 NA
ATOM     25  C   UNL     1      -4.505   2.783  -5.572  0.00  0.00    +0.238 C 
ATOM     26  O   UNL     1      -4.044   3.713  -4.697  0.00  0.00    -0.443 OA
ATOM     27  H   UNL     1      -6.783   2.549  -3.404  0.00  0.00    +0.173 HD
BRANCH  25  28
ATOM     28  C   UNL     1      -3.862   2.453  -6.773  0.00  0.00    +0.043 C 
ATOM     29  C   UNL     1      -4.277   1.517  -7.723  0.00  0.00    +0.008 A 
ATOM     30  C   UNL     1      -5.393   0.656  -7.788  0.00  0.00    +0.010 A 
ATOM     31  C   UNL     1      -5.546  -0.167  -8.857  0.00  0.00    +0.001 A 
ATOM     32  C   UNL     1      -4.622  -0.187  -9.903  0.00  0.00    +0.002 A 
ATOM     33  C   UNL     1      -3.527   0.613  -9.906  0.00  0.00    +0.026 A 
ATOM     34  C   UNL     1      -3.300   1.500  -8.823  0.00  0.00    +0.043 A 
ATOM     35  N   UNL     1      -2.330   2.364  -8.592  0.00  0.00    -0.380 N 
ATOM     36  C   UNL     1      -2.578   3.040  -7.315  0.00  0.00    +0.154 C 
ATOM     37  H   UNL     1      -1.574   2.528  -9.177  0.00  0.00    +0.160 HD
ENDBRANCH  25  28
ENDBRANCH  21  22
ENDBRANCH  20  21
ENDBRANCH   2  20
TORSDOF 7
