REMARK  Name = ZINC37629998
REMARK  4 active torsions:
REMARK  status: ('A' for Active; 'I' for Inactive)
REMARK    1  A    between atoms: C_3  and  C_4
REMARK    2  A    between atoms: C_9  and  N_12
REMARK    3  A    between atoms: C_13  and  C_15
REMARK    4  A    between atoms: C_18  and  N_21
REMARK                            x       y       z     vdW  Elec       q    Type
REMARK                         _______ _______ _______ _____ _____    ______ ____
ROOT
ATOM      1  N   UNL     1       1.661  -5.600  -2.166  0.00  0.00    -0.312 N 
ATOM      2  C   UNL     1       1.332  -6.733  -2.818  0.00  0.00    +0.216 C 
ATOM      3  O   UNL     1       0.173  -6.961  -3.090  0.00  0.00    -0.276 OA
ATOM      4  H   UNL     1       2.588  -5.417  -1.948  0.00  0.00    +0.149 HD
ENDROOT
BRANCH   1  10
ATOM      5  C   UNL     1      -0.402  -0.698  -1.273  0.00  0.00    +0.219 C 
ATOM      6  O   UNL     1      -0.728  -0.046  -2.242  0.00  0.00    -0.275 OA
ATOM      7  N   UNL     1      -0.402  -2.045  -1.336  0.00  0.00    -0.301 N 
ATOM      8  C   UNL     1      -0.016  -2.849  -0.169  0.00  0.00    +0.109 C 
ATOM      9  C   UNL     1       1.091  -3.823  -0.585  0.00  0.00    +0.041 C 
ATOM     10  C   UNL     1       0.617  -4.645  -1.786  0.00  0.00    +0.076 C 
ATOM     11  C   UNL     1       0.327  -3.711  -2.963  0.00  0.00    +0.041 C 
ATOM     12  C   UNL     1      -0.794  -2.736  -2.572  0.00  0.00    +0.109 C 
BRANCH   5  15
ATOM     13  C   UNL     1      -0.019   1.526   0.010  0.00  0.00    +0.013 C 
ATOM     14  C   UNL     1       1.317   0.779  -0.006  0.00  0.00    +0.013 C 
ATOM     15  C   UNL     1       0.002  -0.004   0.002  0.00  0.00    +0.075 C 
ENDBRANCH   5  15
ENDBRANCH   1  10
BRANCH   2  16
ATOM     16  C   UNL     1       2.406  -7.715  -3.209  0.00  0.00    +0.075 C 
ATOM     17  C   UNL     1       3.409  -7.031  -4.139  0.00  0.00    +0.011 C 
ATOM     18  C   UNL     1       4.500  -8.028  -4.536  0.00  0.00    -0.016 C 
ATOM     19  C   UNL     1       3.864  -9.218  -5.259  0.00  0.00    -0.075 C 
ATOM     20  C   UNL     1       2.860  -9.902  -4.328  0.00  0.00    -0.016 C 
ATOM     21  C   UNL     1       1.770  -8.905  -3.932  0.00  0.00    +0.011 C 
BRANCH  19  22
ATOM     22  N   UNL     1       4.910 -10.175  -5.640  0.00  0.00    +0.380 N 
ATOM     23  H   UNL     1       5.387 -10.500  -4.812  0.00  0.00    -0.090 HD
ATOM     24  H   UNL     1       4.491 -10.960  -6.116  0.00  0.00    -0.090 HD
ATOM     25  H   UNL     1       5.572  -9.724  -6.253  0.00  0.00    -0.090 HD
ENDBRANCH  19  22
ENDBRANCH   2  16
TORSDOF 4
