REMARK  Name = ZINC23486379
REMARK  5 active torsions:
REMARK  status: ('A' for Active; 'I' for Inactive)
REMARK    1  A    between atoms: C_9  and  O_29
REMARK    2  A    between atoms: C_10  and  C_14
REMARK    3  A    between atoms: C_14  and  N_15
REMARK    4  A    between atoms: N_18  and  S_21
REMARK    5  A    between atoms: S_21  and  C_24
REMARK                            x       y       z     vdW  Elec       q    Type
REMARK                         _______ _______ _______ _____ _____    ______ ____
ROOT
ATOM      1  C   UNL     1       0.017  -4.228  -4.378  0.00  0.00    +0.001 A 
ATOM      2  C   UNL     1       0.041  -5.450  -3.725  0.00  0.00    +0.004 A 
ATOM      3  C   UNL     1       0.055  -5.510  -2.348  0.00  0.00    +0.047 A 
ATOM      4  C   UNL     1       0.046  -4.339  -1.599  0.00  0.00    +0.136 A 
ATOM      5  C   UNL     1       0.022  -3.104  -2.262  0.00  0.00    +0.028 A 
ATOM      6  C   UNL     1       0.008  -3.055  -3.652  0.00  0.00    +0.012 A 
ATOM      7  C   UNL     1       0.018  -2.080  -1.200  0.00  0.00    +0.031 A 
ATOM      8  C   UNL     1      -0.006  -0.689  -1.200  0.00  0.00    +0.058 A 
ATOM      9  C   UNL     1       0.002  -0.004   0.002  0.00  0.00    +0.122 A 
ATOM     10  C   UNL     1       0.023  -0.705   1.202  0.00  0.00    +0.012 A 
ATOM     11  C   UNL     1       0.042  -2.084   1.208  0.00  0.00    +0.055 A 
ATOM     12  C   UNL     1       0.040  -2.787   0.009  0.00  0.00    +0.137 A 
ATOM     13  O   UNL     1       0.056  -4.111  -0.268  0.00  0.00    -0.455 OA
ENDROOT
BRANCH   9  14
ATOM     14  O   UNL     1      -0.016   1.356   0.009  0.00  0.00    -0.506 OA
ATOM     15  H   UNL     1      -0.010   1.901   0.965  0.00  0.00    +0.292 HD
ENDBRANCH   9  14
BRANCH  10  16
ATOM     16  C   UNL     1       0.026   0.048   2.508  0.00  0.00    +0.123 C 
BRANCH  16  17
ATOM     17  N   UNL     1       1.358   0.620   2.740  0.00  0.00    -0.296 NA
ATOM     18  C   UNL     1       2.359  -0.437   2.936  0.00  0.00    +0.102 C 
ATOM     19  C   UNL     1       3.756   0.191   2.993  0.00  0.00    +0.125 C 
ATOM     20  N   UNL     1       3.753   1.243   4.021  0.00  0.00    -0.174 NA
ATOM     21  C   UNL     1       2.695   2.263   3.970  0.00  0.00    +0.125 C 
ATOM     22  C   UNL     1       1.340   1.554   3.874  0.00  0.00    +0.102 C 
BRANCH  20  23
ATOM     23  S   UNL     1       4.911   1.278   5.204  0.00  0.00    +0.067 S 
ATOM     24  O   UNL     1       6.037   0.579   4.691  0.00  0.00    -0.152 OA
ATOM     25  O   UNL     1       4.990   2.623   5.655  0.00  0.00    -0.152 OA
BRANCH  23  26
ATOM     26  C   UNL     1       4.302   0.328   6.558  0.00  0.00    +0.143 A 
ATOM     27  C   UNL     1       4.445  -0.998   6.803  0.00  0.00    +0.036 A 
ATOM     28  C   UNL     1       3.878  -1.533   7.944  0.00  0.00    +0.010 A 
ATOM     29  C   UNL     1       3.187  -0.719   8.778  0.00  0.00    +0.047 A 
ATOM     30  S   UNL     1       3.330   0.860   7.957  0.00  0.00    -0.077 S 
ENDBRANCH  23  26
ENDBRANCH  20  23
ENDBRANCH  16  17
ENDBRANCH  10  16
TORSDOF 5
