REMARK  Name = ZINC49234626
REMARK  8 active torsions:
REMARK  status: ('A' for Active; 'I' for Inactive)
REMARK    1  A    between atoms: C_1  and  C_2
REMARK    2  A    between atoms: C_5  and  S_9
REMARK    3  A    between atoms: C_6  and  N_8
REMARK    4  A    between atoms: S_9  and  N_12
REMARK    5  A    between atoms: N_12  and  C_13
REMARK    6  A    between atoms: C_13  and  C_15
REMARK    7  A    between atoms: C_13  and  C_16
REMARK    8  A    between atoms: C_16  and  N_17
REMARK                            x       y       z     vdW  Elec       q    Type
REMARK                         _______ _______ _______ _____ _____    ______ ____
ROOT
ATOM      1  S   UNL     1       0.056  -4.532  -0.120  0.00  0.00    +0.060 S 
ATOM      2  O   UNL     1      -0.963  -5.005   0.750  0.00  0.00    -0.153 OA
ATOM      3  O   UNL     1       0.074  -4.837  -1.508  0.00  0.00    -0.153 OA
ENDROOT
BRANCH   1   8
ATOM      4  C   UNL     1       0.040   1.490   0.329  0.00  0.00    +0.044 C 
ATOM      5  C   UNL     1       0.046  -0.013   0.213  0.00  0.00    -0.049 A 
ATOM      6  C   UNL     1      -0.844  -0.766   0.956  0.00  0.00    +0.005 A 
ATOM      7  C   UNL     1      -0.841  -2.145   0.854  0.00  0.00    +0.030 A 
ATOM      8  C   UNL     1       0.052  -2.775   0.009  0.00  0.00    +0.126 A 
ATOM      9  C   UNL     1       0.948  -2.021  -0.738  0.00  0.00    +0.051 A 
ATOM     10  C   UNL     1       0.938  -0.635  -0.637  0.00  0.00    +0.028 A 
BRANCH   9  11
ATOM     11  N   UNL     1       1.852  -2.654  -1.594  0.00  0.00    -0.356 N 
ATOM     12  H   UNL     1       1.822  -3.617  -1.705  0.00  0.00    +0.142 HD
ATOM     13  H   UNL     1       2.511  -2.131  -2.077  0.00  0.00    +0.142 HD
ENDBRANCH   9  11
ENDBRANCH   1   8
BRANCH   1  14
ATOM     14  N   UNL     1       1.495  -5.066   0.501  0.00  0.00    -0.185 NA
ATOM     15  H   UNL     1       2.143  -5.497  -0.077  0.00  0.00    +0.148 HD
BRANCH  14  16
ATOM     16  C   UNL     1       1.789  -4.886   1.925  0.00  0.00    +0.093 C 
ATOM     17  C   UNL     1       1.361  -6.137   2.696  0.00  0.00    +0.027 C 
BRANCH  16  18
ATOM     18  C   UNL     1       3.291  -4.662   2.111  0.00  0.00    +0.142 C 
BRANCH  18  19
ATOM     19  N   UNL     1       3.680  -3.402   1.474  0.00  0.00    -0.335 N 
ATOM     20  C   UNL     1       4.087  -3.239   0.177  0.00  0.00    +0.107 A 
ATOM     21  C   UNL     1       4.344  -1.928   0.011  0.00  0.00    +0.130 A 
ATOM     22  N   UNL     1       4.101  -1.307   1.174  0.00  0.00    -0.244 NA
ATOM     23  C   UNL     1       3.698  -2.183   2.054  0.00  0.00    +0.199 A 
ENDBRANCH  18  19
ENDBRANCH  16  18
ENDBRANCH  14  16
ENDBRANCH   1  14
TORSDOF 6
