REMARK  Name = ZINC10325960
REMARK  0 active torsions:
REMARK  status: ('A' for Active; 'I' for Inactive)
REMARK                            x       y       z     vdW  Elec       q    Type
REMARK                         _______ _______ _______ _____ _____    ______ ____
ROOT
ATOM      1  C   UNL     1       5.276   5.220  -1.264  0.00  0.00    +0.001 A 
ATOM      2  C   UNL     1       4.607   4.911  -2.438  0.00  0.00    +0.004 A 
ATOM      3  C   UNL     1       3.267   4.574  -2.416  0.00  0.00    +0.046 A 
ATOM      4  C   UNL     1       2.583   4.546  -1.213  0.00  0.00    +0.136 A 
ATOM      5  C   UNL     1       3.260   4.857  -0.023  0.00  0.00    +0.078 A 
ATOM      6  C   UNL     1       4.610   5.195  -0.056  0.00  0.00    +0.017 A 
ATOM      7  C   UNL     1       2.502   4.817   1.244  0.00  0.00    +0.251 C 
ATOM      8  O   UNL     1       2.950   5.313   2.260  0.00  0.00    -0.270 OA
ATOM      9  N   UNL     1       1.293   4.211   1.236  0.00  0.00    -0.262 N 
ATOM     10  C   UNL     1       0.804   3.563   0.021  0.00  0.00    +0.283 C 
ATOM     11  O   UNL     1       1.268   4.226  -1.152  0.00  0.00    -0.455 OA
ATOM     12  C   UNL     1       1.183   2.114   0.002  0.00  0.00    +0.046 A 
ATOM     13  C   UNL     1       2.413   1.494  -0.016  0.00  0.00    +0.027 A 
ATOM     14  C   UNL     1       2.419   0.102  -0.025  0.00  0.00    +0.018 A 
ATOM     15  C   UNL     1       1.243  -0.621  -0.015  0.00  0.00    +0.017 A 
ATOM     16  C   UNL     1       0.002  -0.004   0.002  0.00  0.00    +0.025 A 
ATOM     17  C   UNL     1      -0.017   1.392   0.010  0.00  0.00    +0.043 A 
ATOM     18  N   UNL     1      -1.098   2.255   0.019  0.00  0.00    -0.280 N 
ATOM     19  C   UNL     1      -0.713   3.548   0.029  0.00  0.00    +0.285 C 
ATOM     20  O   UNL     1      -1.443   4.516   0.040  0.00  0.00    -0.269 OA
ATOM     21 BR   UNL     1       4.072  -0.817  -0.050  0.00  0.00    -0.050 Br
ATOM     22  H   UNL     1       0.749   4.205   2.039  0.00  0.00    +0.154 HD
ATOM     23  H   UNL     1      -2.023   1.965   0.020  0.00  0.00    +0.155 HD
ENDROOT
TORSDOF 0
