REMARK  Name = ZINC67575925
REMARK  7 active torsions:
REMARK  status: ('A' for Active; 'I' for Inactive)
REMARK    1  A    between atoms: C_1  and  C_2
REMARK    2  A    between atoms: N_4  and  C_5
REMARK    3  A    between atoms: C_8  and  N_12
REMARK    4  A    between atoms: N_15  and  C_16
REMARK    5  A    between atoms: C_16  and  C_17
REMARK    6  A    between atoms: C_23  and  O_26
REMARK    7  A    between atoms: O_26  and  C_27
REMARK                            x       y       z     vdW  Elec       q    Type
REMARK                         _______ _______ _______ _____ _____    ______ ____
ROOT
ATOM      1  N   UNL     1      -0.707  -6.245   0.176  0.00  0.00    -0.268 N 
ATOM      2  C   UNL     1       0.501  -6.819   0.342  0.00  0.00    +0.304 C 
ATOM      3  O   UNL     1       1.503  -6.131   0.364  0.00  0.00    -0.252 OA
ATOM      4  N   UNL     1       0.599  -8.156   0.482  0.00  0.00    -0.292 N 
ATOM      5  H   UNL     1      -1.500  -6.799   0.092  0.00  0.00    +0.156 HD
ATOM      6  H   UNL     1      -0.201  -8.705   0.465  0.00  0.00    +0.151 HD
ENDROOT
BRANCH   1  10
ATOM      7  C   UNL     1      -1.041  -2.090   0.024  0.00  0.00    +0.035 A 
ATOM      8  C   UNL     1       0.077  -2.718  -0.510  0.00  0.00    +0.025 A 
ATOM      9  C   UNL     1       0.187  -4.093  -0.460  0.00  0.00    +0.026 A 
ATOM     10  C   UNL     1      -0.819  -4.849   0.126  0.00  0.00    +0.053 A 
ATOM     11  C   UNL     1      -1.938  -4.222   0.661  0.00  0.00    +0.064 A 
ATOM     12  C   UNL     1      -2.045  -2.845   0.615  0.00  0.00    +0.045 A 
ATOM     13 CL   UNL     1      -3.196  -5.167   1.393  0.00  0.00    -0.082 Cl
BRANCH   7  17
ATOM     14  C   UNL     1      -1.763   1.480   0.981  0.00  0.00    +0.109 C 
ATOM     15  C   UNL     1      -1.734  -0.027   0.988  0.00  0.00    +0.214 C 
ATOM     16  O   UNL     1      -2.235  -0.639   1.908  0.00  0.00    -0.276 OA
ATOM     17  N   UNL     1      -1.152  -0.695  -0.028  0.00  0.00    -0.286 N 
ATOM     18  H   UNL     1      -0.811  -0.209  -0.795  0.00  0.00    +0.155 HD
ENDBRANCH   7  17
ENDBRANCH   1  10
BRANCH   4  19
ATOM     19  C   UNL     1       1.912  -8.780   0.662  0.00  0.00    +0.180 C 
BRANCH  19  20
ATOM     20  C   UNL     1       1.746 -10.271   0.795  0.00  0.00    +0.124 A 
ATOM     21  C   UNL     1       1.765 -11.139  -0.226  0.00  0.00    +0.055 A 
ATOM     22  C   UNL     1       1.567 -12.469   0.363  0.00  0.00    +0.024 A 
ATOM     23  C   UNL     1       1.489 -13.763  -0.154  0.00  0.00    +0.012 A 
ATOM     24  C   UNL     1       1.292 -14.821   0.690  0.00  0.00    +0.004 A 
ATOM     25  C   UNL     1       1.169 -14.618   2.056  0.00  0.00    +0.049 A 
ATOM     26  C   UNL     1       1.243 -13.343   2.588  0.00  0.00    +0.163 A 
ATOM     27  C   UNL     1       1.444 -12.253   1.744  0.00  0.00    +0.177 A 
ATOM     28  O   UNL     1       1.563 -10.926   1.955  0.00  0.00    -0.454 OA
BRANCH  26  29
ATOM     29  O   UNL     1       1.121 -13.155   3.929  0.00  0.00    -0.491 OA
ATOM     30  C   UNL     1       0.918 -14.320   4.732  0.00  0.00    +0.277 C 
ENDBRANCH  26  29
ENDBRANCH  19  20
ENDBRANCH   4  19
TORSDOF 5
