REMARK  Name = ZINC12161427
REMARK  11 active torsions:
REMARK  status: ('A' for Active; 'I' for Inactive)
REMARK    1  A    between atoms: C_1  and  C_2
REMARK    2  A    between atoms: C_5  and  C_8
REMARK    3  A    between atoms: C_8  and  C_9
REMARK    4  A    between atoms: C_9  and  C_10
REMARK    5  A    between atoms: N_12  and  C_13
REMARK    6  A    between atoms: C_16  and  C_27
REMARK    7  A    between atoms: C_19  and  C_20
REMARK    8  A    between atoms: C_19  and  N_57
REMARK    9  A    between atoms: C_25  and  O_26
REMARK   10  A    between atoms: C_27  and  O_29
REMARK   11  A    between atoms: O_29  and  C_30
REMARK                            x       y       z     vdW  Elec       q    Type
REMARK                         _______ _______ _______ _____ _____    ______ ____
ROOT
ATOM      1  C   UNL     1      -0.733   1.572  -1.232  0.00  0.00    +0.055 C 
ATOM      2  C   UNL     1      -1.915   2.399  -0.677  0.00  0.00    +0.016 C 
ATOM      3  C   UNL     1      -1.437   2.775   0.748  0.00  0.00    +0.045 C 
ATOM      4  C   UNL     1       0.022   1.067   0.011  0.00  0.00    -0.055 C 
ATOM      5  N   UNL     1      -0.724   1.563   1.172  0.00  0.00    +0.393 N 
ATOM      6  H   UNL     1      -1.399   0.854   1.481  0.00  0.00    -0.080 HD
ENDROOT
BRANCH   1   9
ATOM      7  C   UNL     1      -0.435  -0.137  -2.943  0.00  0.00    +0.213 C 
ATOM      8  O   UNL     1       0.690   0.279  -3.121  0.00  0.00    -0.276 OA
ATOM      9  N   UNL     1      -1.229   0.441  -2.020  0.00  0.00    -0.314 N 
ATOM     10  H   UNL     1      -2.129   0.108  -1.877  0.00  0.00    +0.149 HD
BRANCH   7  11
ATOM     11  C   UNL     1      -0.945  -1.300  -3.754  0.00  0.00    +0.100 C 
BRANCH  11  12
ATOM     12  C   UNL     1       0.145  -1.765  -4.721  0.00  0.00    +0.044 C 
BRANCH  12  17
ATOM     13  C   UNL     1      -1.811  -6.226  -7.830  0.00  0.00    +0.044 C 
ATOM     14  C   UNL     1      -1.301  -5.063  -7.019  0.00  0.00    -0.050 A 
ATOM     15  C   UNL     1      -1.479  -3.771  -7.477  0.00  0.00    +0.003 A 
ATOM     16  C   UNL     1      -1.011  -2.703  -6.733  0.00  0.00    +0.004 A 
ATOM     17  C   UNL     1      -0.365  -2.929  -5.532  0.00  0.00    -0.047 A 
ATOM     18  C   UNL     1      -0.182  -4.221  -5.077  0.00  0.00    +0.004 A 
ATOM     19  C   UNL     1      -0.653  -5.288  -5.819  0.00  0.00    +0.003 A 
ENDBRANCH  12  17
ENDBRANCH  11  12
ENDBRANCH   7  11
ENDBRANCH   1   9
BRANCH   3  20
ATOM     20  C   UNL     1      -2.613   3.061   1.645  0.00  0.00    +0.293 C 
ATOM     21  O   UNL     1      -2.802   2.384   2.628  0.00  0.00    -0.253 OA
BRANCH  20  22
ATOM     22  O   UNL     1      -3.451   4.068   1.353  0.00  0.00    -0.469 OA
ATOM     23  C   UNL     1      -4.562   4.286   2.262  0.00  0.00    +0.280 C 
ENDBRANCH  20  22
ENDBRANCH   3  20
BRANCH   5  24
ATOM     24  C   UNL     1       0.215   1.867   2.297  0.00  0.00    -0.038 C 
BRANCH  24  25
ATOM     25  C   UNL     1       1.108   3.013   1.894  0.00  0.00    -0.022 A 
ATOM     26  C   UNL     1       2.346   2.760   1.335  0.00  0.00    +0.005 A 
ATOM     27  C   UNL     1       3.165   3.810   0.965  0.00  0.00    +0.000 A 
ATOM     28  C   UNL     1       2.748   5.115   1.152  0.00  0.00    +0.004 A 
ATOM     29  C   UNL     1       1.511   5.373   1.709  0.00  0.00    +0.045 A 
ATOM     30  C   UNL     1       0.685   4.321   2.078  0.00  0.00    +0.118 A 
BRANCH  30  31
ATOM     31  O   UNL     1      -0.535   4.572   2.622  0.00  0.00    -0.507 OA
ATOM     32  H   UNL     1      -0.528   4.647   3.586  0.00  0.00    +0.292 HD
ENDBRANCH  30  31
ENDBRANCH  24  25
ENDBRANCH   5  24
TORSDOF 9
