REMARK  Name = ZINC32889589
REMARK  8 active torsions:
REMARK  status: ('A' for Active; 'I' for Inactive)
REMARK    1  A    between atoms: C_1  and  C_2
REMARK    2  A    between atoms: C_2  and  S_3
REMARK    3  A    between atoms: S_3  and  C_6
REMARK    4  A    between atoms: C_9  and  O_27
REMARK    5  A    between atoms: C_10  and  N_12
REMARK    6  A    between atoms: N_15  and  C_16
REMARK    7  A    between atoms: C_16  and  C_18
REMARK    8  A    between atoms: C_16  and  C_19
REMARK                            x       y       z     vdW  Elec       q    Type
REMARK                         _______ _______ _______ _____ _____    ______ ____
ROOT
ATOM      1  N   UNL     1      -1.253  -5.165   2.400  0.00  0.00    -0.266 N 
ATOM      2  C   UNL     1      -1.202  -4.495   3.568  0.00  0.00    +0.304 C 
ATOM      3  O   UNL     1      -1.315  -3.284   3.580  0.00  0.00    -0.252 OA
ATOM      4  N   UNL     1      -1.026  -5.167   4.723  0.00  0.00    -0.293 N 
ATOM      5  H   UNL     1      -1.224  -6.264   2.394  0.00  0.00    +0.156 HD
ATOM      6  H   UNL     1      -0.924  -6.262   4.712  0.00  0.00    +0.151 HD
ENDROOT
BRANCH   1  11
ATOM      7  C   UNL     1      -2.146  -2.582  -0.065  0.00  0.00    +0.090 A 
ATOM      8  C   UNL     1      -1.522  -3.070  -1.198  0.00  0.00    +0.030 A 
ATOM      9  C   UNL     1      -0.800  -4.247  -1.142  0.00  0.00    +0.049 A 
ATOM     10  C   UNL     1      -0.709  -4.948   0.050  0.00  0.00    +0.138 A 
ATOM     11  C   UNL     1      -1.342  -4.460   1.191  0.00  0.00    +0.078 A 
ATOM     12  C   UNL     1      -2.060  -3.275   1.128  0.00  0.00    +0.054 A 
BRANCH   7  13
ATOM     13  S   UNL     1      -3.059  -1.077  -0.142  0.00  0.00    -0.003 S 
ATOM     14  O   UNL     1      -4.024  -1.185   0.895  0.00  0.00    -0.169 OA
ATOM     15  O   UNL     1      -3.465  -0.969  -1.500  0.00  0.00    -0.169 OA
BRANCH  13  17
ATOM     16  C   UNL     1      -2.545   1.585   0.217  0.00  0.00    +0.028 C 
ATOM     17  C   UNL     1      -1.855   0.220   0.255  0.00  0.00    +0.168 C 
ENDBRANCH  13  17
ENDBRANCH   7  13
BRANCH  10  18
ATOM     18  O   UNL     1      -0.003  -6.109   0.106  0.00  0.00    -0.505 OA
ATOM     19  H   UNL     1       0.068  -6.664   1.053  0.00  0.00    +0.292 HD
ENDBRANCH  10  18
ENDBRANCH   1  11
BRANCH   4  20
ATOM     20  C   UNL     1      -0.971  -4.439   5.993  0.00  0.00    +0.103 C 
ATOM     21  C   UNL     1       0.456  -3.942   6.235  0.00  0.00    +0.033 C 
BRANCH  20  22
ATOM     22  C   UNL     1      -1.381  -5.356   7.116  0.00  0.00    -0.009 A 
ATOM     23  C   UNL     1      -1.240  -6.724   6.978  0.00  0.00    +0.008 A 
ATOM     24  C   UNL     1      -1.611  -7.565   8.009  0.00  0.00    +0.020 A 
ATOM     25  C   UNL     1      -2.134  -7.039   9.178  0.00  0.00    +0.042 A 
ATOM     26  C   UNL     1      -2.280  -5.671   9.315  0.00  0.00    +0.040 A 
ATOM     27  C   UNL     1      -1.904  -4.829   8.284  0.00  0.00    +0.047 A 
ATOM     28 CL   UNL     1      -2.088  -3.111   8.454  0.00  0.00    -0.083 Cl
ATOM     29 CL   UNL     1      -2.605  -8.097  10.471  0.00  0.00    -0.083 Cl
ENDBRANCH  20  22
ENDBRANCH   4  20
TORSDOF 6
