REMARK  Name = ZINC16449295
REMARK  6 active torsions:
REMARK  status: ('A' for Active; 'I' for Inactive)
REMARK    1  A    between atoms: C_4  and  N_22
REMARK    2  A    between atoms: C_5  and  C_7
REMARK    3  A    between atoms: N_9  and  C_10
REMARK    4  A    between atoms: C_10  and  N_12
REMARK    5  A    between atoms: N_12  and  C_13
REMARK    6  A    between atoms: C_18  and  C_19
REMARK                            x       y       z     vdW  Elec       q    Type
REMARK                         _______ _______ _______ _____ _____    ______ ____
ROOT
ATOM      1  C   UNL     1      -4.707   0.282   0.670  0.00  0.00    +0.141 C 
ATOM      2  S   UNL     1      -4.647   1.985   0.841  0.00  0.00    -0.018 S 
ENDROOT
BRANCH   1   5
ATOM      3  C   UNL     1      -2.376   0.191   0.761  0.00  0.00    +0.252 C 
ATOM      4  O   UNL     1      -2.334   1.399   0.882  0.00  0.00    -0.270 OA
ATOM      5  N   UNL     1      -3.565  -0.433   0.648  0.00  0.00    -0.264 N 
ATOM      6  H   UNL     1      -3.599  -1.398   0.551  0.00  0.00    +0.157 HD
BRANCH   3  11
ATOM      7  C   UNL     1       0.234  -2.372   1.610  0.00  0.00    +0.001 A 
ATOM      8  C   UNL     1       1.222  -2.064   0.692  0.00  0.00    +0.002 A 
ATOM      9  C   UNL     1       1.042  -1.028  -0.207  0.00  0.00    +0.033 A 
ATOM     10  C   UNL     1      -0.123  -0.288  -0.186  0.00  0.00    +0.138 A 
ATOM     11  C   UNL     1      -1.124  -0.594   0.737  0.00  0.00    +0.067 A 
ATOM     12  C   UNL     1      -0.938  -1.644   1.638  0.00  0.00    +0.015 A 
BRANCH  10  13
ATOM     13  N   UNL     1      -0.312   0.824  -1.146  0.00  0.00    +0.057 N 
ATOM     14  O   UNL     1       0.603   1.163  -1.873  0.00  0.00    -0.126 OA
ATOM     15  O   UNL     1      -1.386   1.396  -1.211  0.00  0.00    -0.126 OA
ENDBRANCH  10  13
ENDBRANCH   3  11
ENDBRANCH   1   5
BRANCH   1  16
ATOM     16  N   UNL     1      -5.896  -0.342   0.557  0.00  0.00    -0.296 N 
ATOM     17  H   UNL     1      -5.932  -1.310   0.498  0.00  0.00    +0.154 HD
BRANCH  16  18
ATOM     18  C   UNL     1      -7.072   0.401   0.525  0.00  0.00    +0.047 A 
ATOM     19  C   UNL     1      -7.125   1.595  -0.183  0.00  0.00    +0.025 A 
ATOM     20  C   UNL     1      -8.292   2.330  -0.213  0.00  0.00    +0.017 A 
ATOM     21  C   UNL     1      -9.419   1.886   0.461  0.00  0.00    +0.019 A 
ATOM     22  C   UNL     1      -9.386   0.704   1.169  0.00  0.00    +0.032 A 
ATOM     23  C   UNL     1      -8.213  -0.055   1.204  0.00  0.00    +0.085 A 
ATOM     24 BR   UNL     1     -11.010   2.908   0.409  0.00  0.00    -0.050 Br
BRANCH  23  25
ATOM     25  C   UNL     1      -8.173  -1.323   1.954  0.00  0.00    +0.388 C 
ATOM     26  O   UNL     1      -7.125  -1.929   2.066  0.00  0.00    -0.241 OA
ATOM     27  O   UNL     1      -9.297  -1.810   2.514  0.00  0.00    -0.241 OA
ENDBRANCH  23  25
ENDBRANCH  16  18
ENDBRANCH   1  16
TORSDOF 6
