REMARK  Name = ZINC32952370
REMARK  7 active torsions:
REMARK  status: ('A' for Active; 'I' for Inactive)
REMARK    1  A    between atoms: C_1  and  C_2
REMARK    2  A    between atoms: C_5  and  C_25
REMARK    3  A    between atoms: C_6  and  N_8
REMARK    4  A    between atoms: C_9  and  N_24
REMARK    5  A    between atoms: C_10  and  C_14
REMARK    6  A    between atoms: N_16  and  C_17
REMARK    7  A    between atoms: C_22  and  C_23
REMARK                            x       y       z     vdW  Elec       q    Type
REMARK                         _______ _______ _______ _____ _____    ______ ____
ROOT
ATOM      1  N   UNL     1       0.303   0.487  -7.082  0.00  0.00    -0.285 N 
ATOM      2  C   UNL     1       0.247  -0.416  -6.079  0.00  0.00    +0.121 A 
ATOM      3  C   UNL     1       0.142   0.061  -4.795  0.00  0.00    +0.115 A 
ATOM      4  S   UNL     1       0.140   1.825  -5.069  0.00  0.00    -0.055 S 
ATOM      5  C   UNL     1       0.266   1.807  -6.799  0.00  0.00    +0.132 A 
ATOM      6  S   UNL     1       0.328   3.134  -7.880  0.00  0.00    -0.024 S 
ENDROOT
BRANCH   1  12
ATOM      7  C   UNL     1       3.109  -0.785 -10.915  0.00  0.00    +0.044 C 
ATOM      8  C   UNL     1       1.754  -0.569 -10.293  0.00  0.00    -0.048 A 
ATOM      9  C   UNL     1       0.609  -0.797 -11.035  0.00  0.00    +0.004 A 
ATOM     10  C   UNL     1      -0.636  -0.600 -10.468  0.00  0.00    +0.005 A 
ATOM     11  C   UNL     1      -0.741  -0.174  -9.158  0.00  0.00    -0.027 A 
ATOM     12  C   UNL     1       0.406   0.055  -8.411  0.00  0.00    +0.052 A 
ATOM     13  C   UNL     1       1.656  -0.138  -8.985  0.00  0.00    +0.030 A 
ATOM     14  C   UNL     1      -2.099   0.040  -8.541  0.00  0.00    +0.046 C 
ENDBRANCH   1  12
BRANCH   3  15
ATOM     15  C   UNL     1       0.062  -0.654  -3.581  0.00  0.00    +0.258 C 
ATOM     16  O   UNL     1       0.078  -1.873  -3.589  0.00  0.00    -0.269 OA
ATOM     17  N   UNL     1      -0.032   0.011  -2.412  0.00  0.00    -0.281 N 
ATOM     18  H   UNL     1      -0.138   1.105  -2.409  0.00  0.00    +0.155 HD
BRANCH  17  19
ATOM     19  C   UNL     1       0.005  -0.692  -1.204  0.00  0.00    +0.037 A 
ATOM     20  C   UNL     1       0.631  -1.930  -1.137  0.00  0.00    +0.023 A 
ATOM     21  C   UNL     1       0.662  -2.623   0.057  0.00  0.00    +0.002 A 
ATOM     22  C   UNL     1       0.074  -2.084   1.187  0.00  0.00    +0.000 A 
ATOM     23  C   UNL     1      -0.546  -0.849   1.125  0.00  0.00    +0.005 A 
ATOM     24  C   UNL     1      -0.580  -0.151  -0.066  0.00  0.00    -0.029 A 
ATOM     25  C   UNL     1      -1.257   1.194  -0.133  0.00  0.00    +0.045 C 
ENDBRANCH  17  19
ENDBRANCH   3  15
BRANCH   2  26
ATOM     26  N   UNL     1       0.291  -1.768  -6.335  0.00  0.00    -0.343 N 
ATOM     27  H   UNL     1       0.244  -2.487  -5.504  0.00  0.00    +0.144 HD
ATOM     28  H   UNL     1       0.372  -2.130  -7.371  0.00  0.00    +0.144 HD
ENDBRANCH   2  26
TORSDOF 4
