REMARK  Name = ZINC65395891
REMARK  3 active torsions:
REMARK  status: ('A' for Active; 'I' for Inactive)
REMARK    1  A    between atoms: C_4  and  N_16
REMARK    2  A    between atoms: C_5  and  C_7
REMARK    3  A    between atoms: C_17  and  C_19
REMARK                            x       y       z     vdW  Elec       q    Type
REMARK                         _______ _______ _______ _____ _____    ______ ____
ROOT
ATOM      1  C   UNL     1       0.026   1.292   0.141  0.00  0.00    +0.001 A 
ATOM      2  C   UNL     1       1.268   1.869  -0.071  0.00  0.00    +0.002 A 
ATOM      3  C   UNL     1       2.382   1.077  -0.263  0.00  0.00    +0.024 A 
ATOM      4  C   UNL     1       2.265  -0.306  -0.243  0.00  0.00    +0.046 A 
ATOM      5  C   UNL     1       1.009  -0.893  -0.028  0.00  0.00    +0.058 A 
ATOM      6  C   UNL     1      -0.109  -0.079   0.164  0.00  0.00    +0.015 A 
ENDROOT
BRANCH   5   7
ATOM      7  C   UNL     1       0.871  -2.362  -0.005  0.00  0.00    +0.249 C 
ATOM      8  O   UNL     1       1.278  -3.025  -0.939  0.00  0.00    -0.270 OA
ATOM      9  N   UNL     1       0.294  -2.968   1.052  0.00  0.00    -0.287 N 
ATOM     10  C   UNL     1       0.228  -4.436   1.151  0.00  0.00    +0.127 C 
ATOM     11  C   UNL     1       1.002  -4.865   2.399  0.00  0.00    +0.123 C 
ATOM     12  N   UNL     1       0.633  -4.043   3.544  0.00  0.00    -0.313 N 
ATOM     13  C   UNL     1       0.091  -2.828   3.459  0.00  0.00    +0.230 C 
ATOM     14  O   UNL     1      -0.099  -2.207   4.484  0.00  0.00    -0.274 OA
ATOM     15  C   UNL     1      -0.289  -2.191   2.155  0.00  0.00    +0.203 C 
ATOM     16  H   UNL     1       0.793  -4.406   4.429  0.00  0.00    +0.149 HD
ENDBRANCH   5   7
BRANCH   4  17
ATOM     17  N   UNL     1       3.388  -1.107  -0.437  0.00  0.00    -0.286 N 
ATOM     18  C   UNL     1       4.369  -0.702  -1.269  0.00  0.00    +0.207 C 
ATOM     19  O   UNL     1       4.228   0.307  -1.927  0.00  0.00    -0.277 OA
ATOM     20  H   UNL     1       3.464  -1.955   0.026  0.00  0.00    +0.155 HD
BRANCH  18  21
ATOM     21  C   UNL     1       5.640  -1.504  -1.381  0.00  0.00    +0.040 C 
ATOM     22  C   UNL     1       5.342  -2.885  -1.915  0.00  0.00    -0.040 C 
ATOM     23  C   UNL     1       6.228  -3.201  -2.826  0.00  0.00    -0.051 C 
ATOM     24  C   UNL     1       7.208  -2.062  -2.992  0.00  0.00    -0.054 C 
ATOM     25  N   UNL     1       6.551  -0.885  -2.373  0.00  0.00    +0.391 N 
ATOM     26  H   UNL     1       6.029  -0.364  -3.062  0.00  0.00    -0.084 HD
ATOM     27  H   UNL     1       7.230  -0.295  -1.915  0.00  0.00    -0.084 HD
ENDBRANCH  18  21
ENDBRANCH   4  17
TORSDOF 3
