REMARK  Name = ZINC67533303
REMARK  11 active torsions:
REMARK  status: ('A' for Active; 'I' for Inactive)
REMARK    1  A    between atoms: C_1  and  C_2
REMARK    2  A    between atoms: C_5  and  N_11
REMARK    3  A    between atoms: C_7  and  C_8
REMARK    4  A    between atoms: C_12  and  C_14
REMARK    5  A    between atoms: N_16  and  C_17
REMARK    6  A    between atoms: C_17  and  C_19
REMARK    7  A    between atoms: C_17  and  C_26
REMARK    8  A    between atoms: C_19  and  C_20
REMARK    9  A    between atoms: C_26  and  N_27
REMARK   10  A    between atoms: N_27  and  C_28
REMARK   11  A    between atoms: N_27  and  C_29
REMARK                            x       y       z     vdW  Elec       q    Type
REMARK                         _______ _______ _______ _____ _____    ______ ____
ROOT
ATOM      1  C   UNL     1      -0.517  -6.086  -1.627  0.00  0.00    +0.299 C 
ATOM      2  O   UNL     1      -0.730  -6.905  -0.757  0.00  0.00    -0.265 OA
ATOM      3  N   UNL     1      -0.349  -6.487  -2.903  0.00  0.00    -0.306 N 
ATOM      4  H   UNL     1      -0.105  -5.843  -3.585  0.00  0.00    +0.149 HD
ENDROOT
BRANCH   1   6
ATOM      5  N   UNL     1      -0.608  -4.234  -0.008  0.00  0.00    -0.278 N 
ATOM      6  C   UNL     1      -0.440  -4.635  -1.284  0.00  0.00    +0.303 C 
ATOM      7  O   UNL     1      -0.227  -3.816  -2.154  0.00  0.00    -0.265 OA
ATOM      8  H   UNL     1      -0.849  -4.879   0.675  0.00  0.00    +0.155 HD
BRANCH   5  13
ATOM      9  C   UNL     1       0.074   1.230   1.390  0.00  0.00    +0.044 C 
ATOM     10  C   UNL     1      -0.104  -0.219   1.016  0.00  0.00    -0.038 A 
ATOM     11  C   UNL     1      -1.073  -0.978   1.642  0.00  0.00    +0.006 A 
ATOM     12  C   UNL     1      -1.241  -2.307   1.303  0.00  0.00    +0.023 A 
ATOM     13  C   UNL     1      -0.435  -2.889   0.330  0.00  0.00    +0.035 A 
ATOM     14  C   UNL     1       0.540  -2.134  -0.304  0.00  0.00    +0.036 A 
ATOM     15  C   UNL     1       0.705  -0.791   0.034  0.00  0.00    +0.041 A 
BRANCH  15  16
ATOM     16  C   UNL     1       1.739   0.022  -0.641  0.00  0.00    +0.242 C 
ATOM     17  O   UNL     1       1.810   1.216  -0.426  0.00  0.00    -0.270 OA
ATOM     18  N   UNL     1       2.603  -0.561  -1.496  0.00  0.00    -0.325 N 
ATOM     19  H   UNL     1       2.546  -1.514  -1.668  0.00  0.00    +0.145 HD
ATOM     20  H   UNL     1       3.281  -0.028  -1.939  0.00  0.00    +0.145 HD
ENDBRANCH  15  16
ENDBRANCH   5  13
ENDBRANCH   1   6
BRANCH   3  21
ATOM     21  C   UNL     1      -0.534  -7.896  -3.258  0.00  0.00    +0.061 C 
BRANCH  21  22
ATOM     22  C   UNL     1      -0.926  -8.003  -4.733  0.00  0.00    +0.055 C 
BRANCH  22  23
ATOM     23  C   UNL     1      -2.272  -7.359  -4.943  0.00  0.00    -0.046 A 
ATOM     24  C   UNL     1      -3.426  -8.110  -4.815  0.00  0.00    +0.004 A 
ATOM     25  C   UNL     1      -4.660  -7.519  -5.008  0.00  0.00    +0.000 A 
ATOM     26  C   UNL     1      -4.742  -6.176  -5.327  0.00  0.00    +0.000 A 
ATOM     27  C   UNL     1      -3.589  -5.425  -5.454  0.00  0.00    +0.000 A 
ATOM     28  C   UNL     1      -2.354  -6.015  -5.257  0.00  0.00    +0.004 A 
ENDBRANCH  22  23
ENDBRANCH  21  22
BRANCH  21  29
ATOM     29  C   UNL     1       0.772  -8.658  -3.021  0.00  0.00    -0.057 C 
BRANCH  29  30
ATOM     30  N   UNL     1       0.554 -10.090  -3.263  0.00  0.00    +0.377 N 
ATOM     31  C   UNL     1       1.833 -10.805  -3.159  0.00  0.00    -0.097 C 
ATOM     32  C   UNL     1      -0.385 -10.618  -2.263  0.00  0.00    -0.097 C 
ATOM     33  H   UNL     1       0.170 -10.221  -4.186  0.00  0.00    -0.083 HD
ENDBRANCH  29  30
ENDBRANCH  21  29
ENDBRANCH   3  21
TORSDOF 8
