REMARK  Name = ZINC55134585
REMARK  5 active torsions:
REMARK  status: ('A' for Active; 'I' for Inactive)
REMARK    1  A    between atoms: C_1  and  C_2
REMARK    2  A    between atoms: C_6  and  C_22
REMARK    3  A    between atoms: C_10  and  C_12
REMARK    4  A    between atoms: C_12  and  C_13
REMARK    5  A    between atoms: C_19  and  N_21
REMARK                            x       y       z     vdW  Elec       q    Type
REMARK                         _______ _______ _______ _____ _____    ______ ____
ROOT
ATOM      1  C   UNL     1      -0.019   1.526   0.010  0.00  0.00    +0.028 C 
ATOM      2  C   UNL     1       0.002  -0.004   0.002  0.00  0.00    +0.073 C 
ATOM      3  C   UNL     1      -1.434  -0.537   0.020  0.00  0.00    +0.023 C 
ATOM      4  C   UNL     1      -2.101  -0.151   1.343  0.00  0.00    +0.016 C 
ATOM      5  C   UNL     1      -1.335  -0.786   2.506  0.00  0.00    +0.092 C 
ATOM      6  C   UNL     1       0.102  -0.256   2.516  0.00  0.00    +0.120 C 
ATOM      7  N   UNL     1       0.706  -0.494   1.195  0.00  0.00    -0.298 N 
ATOM      8  C   UNL     1       1.879  -1.149   1.080  0.00  0.00    +0.216 C 
ATOM      9  O   UNL     1       2.362  -1.339  -0.016  0.00  0.00    -0.276 OA
ENDROOT
BRANCH   5  10
ATOM     10  C   UNL     1      -2.011  -0.433   3.805  0.00  0.00    +0.215 C 
ATOM     11  O   UNL     1      -1.405   0.180   4.658  0.00  0.00    -0.276 OA
ATOM     12  N   UNL     1      -3.291  -0.798   4.020  0.00  0.00    -0.329 N 
ATOM     13  H   UNL     1      -3.776  -1.288   3.338  0.00  0.00    +0.145 HD
ATOM     14  H   UNL     1      -3.726  -0.571   4.856  0.00  0.00    +0.145 HD
ENDBRANCH   5  10
BRANCH   8  15
ATOM     15  C   UNL     1       2.589  -1.645   2.313  0.00  0.00    +0.098 C 
BRANCH  15  16
ATOM     16  C   UNL     1       3.885  -2.348   1.907  0.00  0.00    -0.017 C 
ATOM     17  C   UNL     1       3.553  -3.604   1.098  0.00  0.00    +0.002 C 
ATOM     18  C   UNL     1       2.705  -4.550   1.951  0.00  0.00    +0.000 C 
ATOM     19  C   UNL     1       3.487  -4.943   3.206  0.00  0.00    -0.002 C 
ATOM     20  C   UNL     1       3.820  -3.687   4.015  0.00  0.00    -0.016 C 
ATOM     21  C   UNL     1       4.667  -2.741   3.161  0.00  0.00    -0.072 C 
BRANCH  21  22
ATOM     22  N   UNL     1       4.987  -1.536   3.937  0.00  0.00    +0.380 N 
ATOM     23  H   UNL     1       4.131  -1.072   4.205  0.00  0.00    -0.090 HD
ATOM     24  H   UNL     1       5.502  -1.795   4.765  0.00  0.00    -0.090 HD
ATOM     25  H   UNL     1       5.545  -0.912   3.375  0.00  0.00    -0.090 HD
ENDBRANCH  21  22
ENDBRANCH  15  16
ENDBRANCH   8  15
TORSDOF 4
