REMARK  Name = ZINC55412337
REMARK  8 active torsions:
REMARK  status: ('A' for Active; 'I' for Inactive)
REMARK    1  A    between atoms: C_1  and  C_2
REMARK    2  A    between atoms: C_3  and  C_23
REMARK    3  A    between atoms: C_4  and  C_16
REMARK    4  A    between atoms: C_9  and  C_11
REMARK    5  A    between atoms: C_11  and  C_12
REMARK    6  A    between atoms: C_12  and  C_13
REMARK    7  A    between atoms: C_13  and  O_14
REMARK    8  A    between atoms: C_19  and  O_22
REMARK                            x       y       z     vdW  Elec       q    Type
REMARK                         _______ _______ _______ _____ _____    ______ ____
ROOT
ATOM      1  C   UNL     1      -0.727   0.594  -1.212  0.00  0.00    +0.062 C 
ATOM      2  C   UNL     1      -1.036   1.848  -1.989  0.00  0.00    +0.034 C 
ATOM      3  C   UNL     1      -0.658   3.174  -1.393  0.00  0.00    +0.148 C 
ATOM      4  C   UNL     1      -0.283   4.186  -2.481  0.00  0.00    +0.158 C 
ATOM      5  N   UNL     1      -1.241   4.046  -3.578  0.00  0.00    -0.221 N 
ATOM      6  C   UNL     1      -1.847   2.864  -3.873  0.00  0.00    +0.249 A 
ATOM      7  N   UNL     1      -2.626   3.065  -4.905  0.00  0.00    -0.194 NA
ATOM      8  C   UNL     1      -2.549   4.342  -5.283  0.00  0.00    +0.153 A 
ATOM      9  N   UNL     1      -1.715   4.979  -4.494  0.00  0.00    -0.153 NA
ATOM     10  N   UNL     1      -1.609   1.735  -3.142  0.00  0.00    -0.220 NA
ENDROOT
BRANCH   4  11
ATOM     11  C   UNL     1      -0.350   5.584  -1.921  0.00  0.00    -0.022 A 
ATOM     12  C   UNL     1      -0.161   5.795  -0.567  0.00  0.00    +0.009 A 
ATOM     13  C   UNL     1      -0.222   7.074  -0.051  0.00  0.00    +0.046 A 
ATOM     14  C   UNL     1      -0.472   8.149  -0.892  0.00  0.00    +0.117 A 
ATOM     15  C   UNL     1      -0.661   7.935  -2.250  0.00  0.00    +0.046 A 
ATOM     16  C   UNL     1      -0.594   6.654  -2.762  0.00  0.00    +0.009 A 
BRANCH  14  17
ATOM     17  O   UNL     1      -0.533   9.409  -0.387  0.00  0.00    -0.507 OA
ATOM     18  H   UNL     1       0.317   9.870  -0.376  0.00  0.00    +0.292 HD
ENDBRANCH  14  17
ENDBRANCH   4  11
BRANCH   3  19
ATOM     19  C   UNL     1      -1.823   3.708  -0.600  0.00  0.00    +0.221 C 
ATOM     20  O   UNL     1      -2.713   4.310  -1.162  0.00  0.00    -0.275 OA
ATOM     21  N   UNL     1      -1.875   3.518   0.733  0.00  0.00    -0.329 N 
ATOM     22  H   UNL     1      -1.163   3.036   1.182  0.00  0.00    +0.145 HD
ATOM     23  H   UNL     1      -2.625   3.862   1.243  0.00  0.00    +0.145 HD
ENDBRANCH   3  19
BRANCH   8  24
ATOM     24  C   UNL     1      -3.303   4.958  -6.434  0.00  0.00    +0.080 C 
BRANCH  24  25
ATOM     25  C   UNL     1      -4.646   5.494  -5.935  0.00  0.00    +0.035 C 
BRANCH  25  26
ATOM     26  C   UNL     1      -5.411   6.119  -7.104  0.00  0.00    +0.156 C 
BRANCH  26  27
ATOM     27  O   UNL     1      -6.665   6.620  -6.638  0.00  0.00    -0.395 OA
ATOM     28  H   UNL     1      -7.205   7.032  -7.327  0.00  0.00    +0.209 HD
ENDBRANCH  26  27
ENDBRANCH  25  26
ENDBRANCH  24  25
ENDBRANCH   8  24
TORSDOF 7
