REMARK  Name = ZINC18466972
REMARK  6 active torsions:
REMARK  status: ('A' for Active; 'I' for Inactive)
REMARK    1  A    between atoms: C_1  and  C_2
REMARK    2  A    between atoms: C_2  and  C_4
REMARK    3  A    between atoms: C_2  and  S_15
REMARK    4  A    between atoms: N_6  and  C_7
REMARK    5  A    between atoms: S_15  and  C_16
REMARK    6  A    between atoms: N_21  and  C_22
REMARK                            x       y       z     vdW  Elec       q    Type
REMARK                         _______ _______ _______ _____ _____    ______ ____
ROOT
ATOM      1  S   UNL     1       1.020   1.767  -0.708  0.00  0.00    -0.084 S 
ENDROOT
BRANCH   1   2
ATOM      2  C   UNL     1       2.017   0.953  -1.912  0.00  0.00    +0.161 A 
ATOM      3  N   UNL     1       1.662   0.102  -2.855  0.00  0.00    -0.133 NA
ATOM      4  N   UNL     1       2.614  -0.421  -3.699  0.00  0.00    -0.125 NA
ATOM      5  C   UNL     1       3.877  -0.069  -3.561  0.00  0.00    +0.187 A 
ATOM      6  S   UNL     1       3.779   1.067  -2.186  0.00  0.00    -0.024 S 
ATOM      7  N   UNL     1       4.988  -0.470  -4.295  0.00  0.00    -0.292 N 
ATOM      8  H   UNL     1       5.876  -0.191  -4.022  0.00  0.00    +0.154 HD
BRANCH   7   9
ATOM      9  C   UNL     1       4.826  -1.277  -5.424  0.00  0.00    +0.036 A 
ATOM     10  C   UNL     1       3.623  -1.266  -6.119  0.00  0.00    +0.023 A 
ATOM     11  C   UNL     1       3.464  -2.064  -7.236  0.00  0.00    +0.005 A 
ATOM     12  C   UNL     1       4.501  -2.873  -7.663  0.00  0.00    +0.038 A 
ATOM     13  C   UNL     1       5.702  -2.886  -6.973  0.00  0.00    +0.125 A 
ATOM     14  C   UNL     1       5.869  -2.085  -5.857  0.00  0.00    +0.061 A 
ATOM     15  F   UNL     1       6.714  -3.677  -7.393  0.00  0.00    -0.205 F 
ENDBRANCH   7   9
ENDBRANCH   1   2
BRANCH   1  17
ATOM     16  C   UNL     1      -1.101   1.651  -2.431  0.00  0.00    +0.029 C 
ATOM     17  C   UNL     1      -0.657   1.166  -1.049  0.00  0.00    +0.136 C 
BRANCH  17  18
ATOM     18  C   UNL     1      -1.603   1.696  -0.003  0.00  0.00    +0.230 C 
ATOM     19  O   UNL     1      -1.338   2.720   0.591  0.00  0.00    -0.274 OA
ATOM     20  N   UNL     1      -2.743   1.033   0.274  0.00  0.00    -0.284 N 
ATOM     21  H   UNL     1      -2.919   0.176  -0.145  0.00  0.00    +0.155 HD
BRANCH  20  22
ATOM     22  C   UNL     1      -3.673   1.580   1.165  0.00  0.00    +0.036 A 
ATOM     23  C   UNL     1      -4.462   0.746   1.947  0.00  0.00    +0.026 A 
ATOM     24  C   UNL     1      -5.375   1.286   2.830  0.00  0.00    +0.043 A 
ATOM     25  C   UNL     1      -5.515   2.660   2.929  0.00  0.00    +0.159 A 
ATOM     26  C   UNL     1      -4.733   3.496   2.147  0.00  0.00    +0.160 A 
ATOM     27  C   UNL     1      -3.813   2.958   1.265  0.00  0.00    +0.064 A 
ATOM     28  F   UNL     1      -4.870   4.837   2.245  0.00  0.00    -0.202 F 
ATOM     29  F   UNL     1      -6.413   3.187   3.790  0.00  0.00    -0.202 F 
ENDBRANCH  20  22
ENDBRANCH  17  18
ENDBRANCH   1  17
TORSDOF 5
