REMARK  Name = ZINC40336138
REMARK  9 active torsions:
REMARK  status: ('A' for Active; 'I' for Inactive)
REMARK    1  A    between atoms: C_2  and  N_19
REMARK    2  A    between atoms: C_5  and  S_8
REMARK    3  A    between atoms: S_8  and  N_11
REMARK    4  A    between atoms: N_11  and  C_12
REMARK    5  A    between atoms: N_11  and  C_15
REMARK    6  A    between atoms: C_12  and  C_13
REMARK    7  A    between atoms: C_13  and  O_14
REMARK    8  A    between atoms: C_15  and  C_16
REMARK    9  A    between atoms: C_16  and  O_17
REMARK                            x       y       z     vdW  Elec       q    Type
REMARK                         _______ _______ _______ _____ _____    ______ ____
ROOT
ATOM      1  S   UNL     1       1.231  -2.443  -0.024  0.00  0.00    +0.066 S 
ATOM      2  O   UNL     1      -0.015  -2.861  -0.565  0.00  0.00    -0.153 OA
ATOM      3  O   UNL     1       2.476  -2.831  -0.589  0.00  0.00    -0.153 OA
ENDROOT
BRANCH   1   8
ATOM      4  C   UNL     1      -0.017   1.379   0.010  0.00  0.00    +0.063 A 
ATOM      5  C   UNL     1       1.177   2.089   0.002  0.00  0.00    +0.030 A 
ATOM      6  C   UNL     1       2.387   1.408  -0.013  0.00  0.00    +0.063 A 
ATOM      7  C   UNL     1       2.401   0.025  -0.021  0.00  0.00    +0.154 A 
ATOM      8  C   UNL     1       1.210  -0.681  -0.014  0.00  0.00    +0.176 A 
ATOM      9  C   UNL     1       0.002  -0.004   0.002  0.00  0.00    +0.154 A 
ATOM     10  F   UNL     1      -1.159  -0.695   0.010  0.00  0.00    -0.203 F 
ATOM     11  F   UNL     1       3.579  -0.638  -0.035  0.00  0.00    -0.203 F 
BRANCH   5  12
ATOM     12  N   UNL     1       1.161   3.485   0.009  0.00  0.00    -0.358 N 
ATOM     13  H   UNL     1       0.315   3.960   0.019  0.00  0.00    +0.142 HD
ATOM     14  H   UNL     1       1.995   3.980   0.004  0.00  0.00    +0.142 HD
ENDBRANCH   5  12
ENDBRANCH   1   8
BRANCH   1  15
ATOM     15  N   UNL     1       1.252  -2.942   1.555  0.00  0.00    -0.172 NA
BRANCH  15  16
ATOM     16  C   UNL     1      -0.008  -3.177   2.265  0.00  0.00    +0.137 C 
BRANCH  16  17
ATOM     17  C   UNL     1      -0.370  -4.662   2.183  0.00  0.00    +0.173 C 
BRANCH  17  18
ATOM     18  O   UNL     1       0.609  -5.430   2.885  0.00  0.00    -0.394 OA
ATOM     19  H   UNL     1       0.443  -6.383   2.874  0.00  0.00    +0.209 HD
ENDBRANCH  17  18
ENDBRANCH  16  17
ENDBRANCH  15  16
BRANCH  15  20
ATOM     20  C   UNL     1       2.529  -3.147   2.242  0.00  0.00    +0.137 C 
BRANCH  20  21
ATOM     21  C   UNL     1       2.900  -1.882   3.018  0.00  0.00    +0.173 C 
BRANCH  21  22
ATOM     22  O   UNL     1       1.944  -1.663   4.057  0.00  0.00    -0.394 OA
ATOM     23  H   UNL     1       2.117  -0.875   4.591  0.00  0.00    +0.209 HD
ENDBRANCH  21  22
ENDBRANCH  20  21
ENDBRANCH  15  20
ENDBRANCH   1  15
TORSDOF 9
