REMARK  Name = ZINC19789288
REMARK  0 active torsions:
REMARK  status: ('A' for Active; 'I' for Inactive)
REMARK                            x       y       z     vdW  Elec       q    Type
REMARK                         _______ _______ _______ _____ _____    ______ ____
ROOT
ATOM      1  C   UNL     1       0.061   1.406   0.676  0.00  0.00    +0.017 A 
ATOM      2  C   UNL     1       1.203   2.114   0.358  0.00  0.00    +0.025 A 
ATOM      3  C   UNL     1       2.402   1.445   0.139  0.00  0.00    +0.042 A 
ATOM      4  C   UNL     1       2.431   0.047   0.247  0.00  0.00    +0.011 A 
ATOM      5  C   UNL     1       1.275  -0.658   0.568  0.00  0.00    +0.025 A 
ATOM      6  C   UNL     1       0.093   0.025   0.781  0.00  0.00    +0.019 A 
ATOM      7 BR   UNL     1      -1.482  -0.926   1.218  0.00  0.00    -0.050 Br
ATOM      8  C   UNL     1       3.822  -0.365  -0.037  0.00  0.00    +0.065 C 
ATOM      9  C   UNL     1       4.333  -1.648  -0.049  0.00  0.00    +0.090 C 
ATOM     10  C   UNL     1       3.618  -2.949   0.044  0.00  0.00    +0.257 C 
ATOM     11  O   UNL     1       2.409  -3.007   0.148  0.00  0.00    -0.269 OA
ATOM     12  N   UNL     1       4.365  -4.040   0.007  0.00  0.00    -0.261 N 
ATOM     13  C   UNL     1       5.737  -3.951  -0.112  0.00  0.00    +0.158 C 
ATOM     14  N   UNL     1       6.608  -4.918  -0.162  0.00  0.00    -0.279 NA
ATOM     15  S   UNL     1       6.029  -2.192  -0.188  0.00  0.00    -0.049 S 
ATOM     16  C   UNL     1       4.546   0.893  -0.304  0.00  0.00    +0.250 C 
ATOM     17  O   UNL     1       5.727   0.995  -0.582  0.00  0.00    -0.270 OA
ATOM     18  N   UNL     1       3.672   1.907  -0.188  0.00  0.00    -0.281 N 
ATOM     19  H   UNL     1       3.943  -4.912   0.065  0.00  0.00    +0.157 HD
ATOM     20  H   UNL     1       7.553  -4.716  -0.248  0.00  0.00    +0.189 HD
ATOM     21  H   UNL     1       3.898   2.842  -0.316  0.00  0.00    +0.155 HD
ENDROOT
TORSDOF 0
