REMARK  Name = ZINC02265404
REMARK  7 active torsions:
REMARK  status: ('A' for Active; 'I' for Inactive)
REMARK    1  A    between atoms: C_1  and  C_2
REMARK    2  A    between atoms: C_5  and  N_9
REMARK    3  A    between atoms: C_10  and  C_12
REMARK    4  A    between atoms: C_12  and  S_13
REMARK    5  A    between atoms: S_13  and  C_14
REMARK    6  A    between atoms: C_17  and  C_20
REMARK    7  A    between atoms: N_18  and  N_19
REMARK                            x       y       z     vdW  Elec       q    Type
REMARK                         _______ _______ _______ _____ _____    ______ ____
ROOT
ATOM      1  C   UNL     1      -7.656   3.789  -0.449  0.00  0.00    +0.209 A 
ATOM      2  N   UNL     1      -7.590   5.089  -0.263  0.00  0.00    -0.121 NA
ATOM      3  N   UNL     1      -8.769   5.598  -0.290  0.00  0.00    -0.127 NA
ATOM      4  C   UNL     1      -9.661   4.655  -0.486  0.00  0.00    +0.182 A 
ATOM      5  N   UNL     1      -8.975   3.467  -0.594  0.00  0.00    -0.224 N 
ENDROOT
BRANCH   4   6
ATOM      6  C   UNL     1     -11.126   4.835  -0.574  0.00  0.00    +0.021 A 
ATOM      7  C   UNL     1     -11.664   6.104  -0.796  0.00  0.00    +0.013 A 
ATOM      8  C   UNL     1     -13.031   6.265  -0.883  0.00  0.00    +0.021 A 
ATOM      9  C   UNL     1     -13.870   5.173  -0.739  0.00  0.00    +0.041 A 
ATOM     10  C   UNL     1     -13.342   3.912  -0.513  0.00  0.00    +0.021 A 
ATOM     11  C   UNL     1     -11.976   3.738  -0.430  0.00  0.00    +0.013 A 
ATOM     12 CL   UNL     1     -15.590   5.384  -0.842  0.00  0.00    -0.084 Cl
ENDBRANCH   4   6
BRANCH   5  13
ATOM     13  N   UNL     1      -9.504   2.225  -0.803  0.00  0.00    -0.295 N 
ATOM     14  H   UNL     1      -9.802   1.808   0.067  0.00  0.00    +0.163 HD
ATOM     15  H   UNL     1     -10.264   2.262  -1.465  0.00  0.00    +0.163 HD
ENDBRANCH   5  13
BRANCH   1  16
ATOM     16  S   UNL     1      -6.296   2.670  -0.496  0.00  0.00    -0.075 S 
BRANCH  16  17
ATOM     17  C   UNL     1      -4.928   3.826  -0.235  0.00  0.00    +0.173 C 
BRANCH  17  19
ATOM     18  N   UNL     1      -2.462   3.730  -0.058  0.00  0.00    -0.285 N 
ATOM     19  C   UNL     1      -3.624   3.071  -0.236  0.00  0.00    +0.227 C 
ATOM     20  O   UNL     1      -3.620   1.869  -0.398  0.00  0.00    -0.275 OA
ATOM     21  H   UNL     1      -2.470   4.678   0.147  0.00  0.00    +0.155 HD
BRANCH  18  26
ATOM     22  C   UNL     1       2.473   0.966  -0.503  0.00  0.00    +0.047 C 
ATOM     23  C   UNL     1       1.162   1.700  -0.385  0.00  0.00    -0.015 A 
ATOM     24  C   UNL     1       1.072   2.829   0.408  0.00  0.00    +0.008 A 
ATOM     25  C   UNL     1      -0.129   3.500   0.523  0.00  0.00    +0.024 A 
ATOM     26  C   UNL     1      -1.246   3.048  -0.168  0.00  0.00    +0.036 A 
ATOM     27  C   UNL     1      -1.155   1.914  -0.964  0.00  0.00    +0.062 A 
ATOM     28  C   UNL     1       0.050   1.242  -1.071  0.00  0.00    +0.128 A 
ATOM     29  F   UNL     1       0.141   0.139  -1.845  0.00  0.00    -0.205 F 
ENDBRANCH  18  26
ENDBRANCH  17  19
ENDBRANCH  16  17
ENDBRANCH   1  16
TORSDOF 6
