REMARK  Name = ZINC20546475
REMARK  6 active torsions:
REMARK  status: ('A' for Active; 'I' for Inactive)
REMARK    1  A    between atoms: C_1  and  C_2
REMARK    2  A    between atoms: C_2  and  C_3
REMARK    3  A    between atoms: C_6  and  N_20
REMARK    4  A    between atoms: C_8  and  C_9
REMARK    5  A    between atoms: C_9  and  C_11
REMARK    6  A    between atoms: C_9  and  N_19
REMARK                            x       y       z     vdW  Elec       q    Type
REMARK                         _______ _______ _______ _____ _____    ______ ____
ROOT
ATOM      1  C   UNL     1      -0.859   1.491  -1.020  0.00  0.00    -0.010 C 
ENDROOT
BRANCH   1   2
ATOM      2  C   UNL     1       0.550   1.020  -0.768  0.00  0.00    -0.022 A 
ATOM      3  C   UNL     1       0.942   0.665   0.509  0.00  0.00    +0.006 A 
ATOM      4  C   UNL     1       2.235   0.233   0.741  0.00  0.00    +0.015 A 
ATOM      5  C   UNL     1       3.137   0.156  -0.305  0.00  0.00    +0.021 A 
ATOM      6  C   UNL     1       2.747   0.511  -1.583  0.00  0.00    +0.053 A 
ATOM      7  C   UNL     1       1.451   0.938  -1.817  0.00  0.00    +0.126 A 
ATOM      8  F   UNL     1       1.067   1.280  -3.066  0.00  0.00    -0.205 F 
ATOM      9 BR   UNL     1       4.905  -0.433   0.014  0.00  0.00    -0.050 Br
ENDBRANCH   1   2
BRANCH   1  15
ATOM     10  C   UNL     1      -1.976   3.676  -1.514  0.00  0.00    -0.046 A 
ATOM     11  C   UNL     1      -2.018   5.056  -1.462  0.00  0.00    +0.006 A 
ATOM     12  C   UNL     1      -0.983   5.758  -0.872  0.00  0.00    +0.033 A 
ATOM     13  C   UNL     1       0.092   5.079  -0.330  0.00  0.00    +0.126 A 
ATOM     14  C   UNL     1       0.132   3.698  -0.379  0.00  0.00    +0.035 A 
ATOM     15  C   UNL     1      -0.903   2.996  -0.968  0.00  0.00    -0.052 A 
BRANCH  13  16
ATOM     16  N   UNL     1       1.200   5.830   0.301  0.00  0.00    +0.056 N 
ATOM     17  O   UNL     1       2.148   5.231   0.778  0.00  0.00    -0.126 OA
ATOM     18  O   UNL     1       1.165   7.046   0.343  0.00  0.00    -0.126 OA
ENDBRANCH  13  16
BRANCH  10  20
ATOM     19  C   UNL     1      -4.135   2.529  -1.100  0.00  0.00    +0.009 C 
ATOM     20  C   UNL     1      -3.101   2.911  -2.161  0.00  0.00    +0.032 C 
ENDBRANCH  10  20
ENDBRANCH   1  15
BRANCH   1  21
ATOM     21  N   UNL     1      -1.751   0.939   0.008  0.00  0.00    +0.385 N 
ATOM     22  H   UNL     1      -1.719  -0.160  -0.030  0.00  0.00    -0.089 HD
ATOM     23  H   UNL     1      -2.780   1.282  -0.176  0.00  0.00    -0.089 HD
ATOM     24  H   UNL     1      -1.422   1.280   1.000  0.00  0.00    -0.089 HD
ENDBRANCH   1  21
TORSDOF 5
