REMARK  Name = ZINC63395247
REMARK  8 active torsions:
REMARK  status: ('A' for Active; 'I' for Inactive)
REMARK    1  A    between atoms: C_1  and  C_2
REMARK    2  A    between atoms: C_5  and  C_8
REMARK    3  A    between atoms: N_10  and  C_11
REMARK    4  A    between atoms: C_16  and  C_17
REMARK    5  A    between atoms: N_19  and  CA_20
REMARK    6  A    between atoms: CA_20  and  CB_22
REMARK    7  A    between atoms: CA_20  and  C_32
REMARK    8  A    between atoms: CB_22  and  CG_23
REMARK                            x       y       z     vdW  Elec       q    Type
REMARK                         _______ _______ _______ _____ _____    ______ ____
ROOT
ATOM      1  C   UNK A   0      -0.088  -6.207   3.680  0.00  0.00    +0.247 C 
ATOM      2  O   UNK A   0      -0.118  -4.992   3.645  0.00  0.00    -0.270 OA
ATOM      3  N   TRP A   1      -0.065  -6.847   4.866  0.00  0.00    -0.298 N 
ATOM      4  H   TRP A   1      -0.042  -7.816   4.894  0.00  0.00    +0.150 HD
ENDROOT
BRANCH   1  10
ATOM      5  C   UNK A   0       0.011  -6.321   1.189  0.00  0.00    +0.046 A 
ATOM      6  C   UNK A   0       0.025  -7.061   0.014  0.00  0.00    +0.024 A 
ATOM      7  C   UNK A   0      -0.053  -8.438   0.063  0.00  0.00    +0.002 A 
ATOM      8  C   UNK A   0      -0.146  -9.092   1.280  0.00  0.00    +0.001 A 
ATOM      9  C   UNK A   0      -0.162  -8.375   2.457  0.00  0.00    +0.015 A 
ATOM     10  C   UNK A   0      -0.078  -6.981   2.424  0.00  0.00    +0.058 A 
BRANCH   5  13
ATOM     11  C   UNK A   0      -0.502  -4.257   0.137  0.00  0.00    +0.248 C 
ATOM     12  O   UNK A   0      -1.032  -4.864  -0.773  0.00  0.00    -0.270 OA
ATOM     13  N   UNK A   0       0.089  -4.932   1.143  0.00  0.00    -0.281 N 
ATOM     14  H   UNK A   0       0.569  -4.450   1.834  0.00  0.00    +0.155 HD
BRANCH  11  19
ATOM     15  C   UNK A   0      -0.512   1.497   0.149  0.00  0.00    +0.044 C 
ATOM     16  C   UNK A   0      -0.509  -0.010   0.146  0.00  0.00    -0.050 A 
ATOM     17  C   UNK A   0      -1.114  -0.697  -0.892  0.00  0.00    +0.004 A 
ATOM     18  C   UNK A   0      -1.115  -2.077  -0.901  0.00  0.00    +0.013 A 
ATOM     19  C   UNK A   0      -0.504  -2.779   0.140  0.00  0.00    +0.037 A 
ATOM     20  C   UNK A   0       0.104  -2.079   1.183  0.00  0.00    +0.013 A 
ATOM     21  C   UNK A   0       0.102  -0.699   1.177  0.00  0.00    +0.004 A 
ENDBRANCH  11  19
ENDBRANCH   5  13
ENDBRANCH   1  10
BRANCH   3  22
ATOM     22  CA  TRP A   1      -0.075  -6.079   6.113  0.00  0.00    +0.191 C 
BRANCH  22  23
ATOM     23  C   TRP A   1       1.333  -5.676   6.466  0.00  0.00    +0.376 C 
ATOM     24  O   TRP A   1       1.536  -4.644   7.084  0.00  0.00    -0.244 OA
ATOM     25  OXT TRP A   1       2.271  -6.382   6.135  0.00  0.00    -0.244 OA
ENDBRANCH  22  23
BRANCH  22  26
ATOM     26  CB  TRP A   1      -0.657  -6.939   7.237  0.00  0.00    +0.067 C 
BRANCH  26  27
ATOM     27  CG  TRP A   1      -2.104  -7.239   6.942  0.00  0.00    -0.039 C 
ATOM     28  CD2 TRP A   1      -2.599  -8.343   6.338  0.00  0.00    -0.001 A 
ATOM     29  CE3 TRP A   1      -1.962  -9.549   5.795  0.00  0.00    +0.010 A 
ATOM     30  CZ3 TRP A   1      -2.737 -10.506   5.236  0.00  0.00    +0.001 A 
ATOM     31  CH2 TRP A   1      -4.131 -10.375   5.163  0.00  0.00    +0.002 A 
ATOM     32  CZ2 TRP A   1      -4.788  -9.297   5.641  0.00  0.00    +0.026 A 
ATOM     33  CE2 TRP A   1      -4.072  -8.230   6.249  0.00  0.00    +0.043 A 
ATOM     34  NE1 TRP A   1      -4.473  -7.099   6.778  0.00  0.00    -0.380 N 
ATOM     35  CD1 TRP A   1      -3.298  -6.369   7.268  0.00  0.00    +0.144 C 
ATOM     36  HE1 TRP A   1      -5.392  -6.797   6.838  0.00  0.00    +0.160 HD
ENDBRANCH  26  27
ENDBRANCH  22  26
ENDBRANCH   3  22
TORSDOF 7
