REMARK  Name = ZINC37538408
REMARK  13 active torsions:
REMARK  status: ('A' for Active; 'I' for Inactive)
REMARK    1  A    between atoms: C_1  and  C_2
REMARK    2  A    between atoms: C_5  and  O_31
REMARK    3  A    between atoms: C_9  and  C_30
REMARK    4  A    between atoms: C_11  and  O_29
REMARK    5  A    between atoms: C_13  and  C_25
REMARK    6  A    between atoms: C_15  and  C_19
REMARK    7  A    between atoms: C_15  and  C_20
REMARK    8  A    between atoms: C_20  and  C_21
REMARK    9  A    between atoms: C_21  and  C_22
REMARK   10  A    between atoms: C_25  and  C_26
REMARK   11  A    between atoms: C_25  and  C_27
REMARK   12  A    between atoms: C_25  and  O_28
REMARK   13  A    between atoms: O_31  and  C_32
REMARK                            x       y       z     vdW  Elec       q    Type
REMARK                         _______ _______ _______ _____ _____    ______ ____
ROOT
ATOM      1  C   UNL     1       0.895   1.690   0.571  0.00  0.00    +0.048 C 
ATOM      2  C   UNL     1       1.245   0.235   0.752  0.00  0.00    -0.001 A 
ATOM      3  C   UNL     1       1.627  -0.512  -0.330  0.00  0.00    +0.014 A 
ATOM      4  C   UNL     1       1.955  -1.865  -0.172  0.00  0.00    +0.108 A 
ATOM      5  C   UNL     1       1.890  -2.444   1.102  0.00  0.00    +0.141 A 
ATOM      6  C   UNL     1       1.502  -1.678   2.193  0.00  0.00    +0.037 A 
ATOM      7  C   UNL     1       1.184  -0.341   2.024  0.00  0.00    +0.131 A 
ATOM      8  O   UNL     1       0.796   0.437   3.064  0.00  0.00    -0.485 OA
ATOM      9  C   UNL     1       1.091  -0.012   4.389  0.00  0.00    +0.114 C 
ATOM     10  C   UNL     1       0.292   0.835   5.387  0.00  0.00    +0.079 C 
ATOM     11  C   UNL     1      -1.196   0.745   5.044  0.00  0.00    +0.125 C 
ATOM     12  C   UNL     1      -1.658  -0.710   5.133  0.00  0.00    +0.055 C 
ATOM     13  C   UNL     1      -0.848  -1.567   4.157  0.00  0.00    -0.017 C 
ATOM     14  C   UNL     1       0.635  -1.472   4.513  0.00  0.00    +0.044 C 
ATOM     15  C   UNL     1       1.449  -2.330   3.551  0.00  0.00    +0.050 C 
ATOM     16  C   UNL     1      -1.065  -1.058   2.730  0.00  0.00    +0.012 C 
ATOM     17  C   UNL     1       2.592   0.097   4.661  0.00  0.00    +0.056 C 
ATOM     18  C   UNL     1       2.321  -2.392  -1.493  0.00  0.00    +0.343 C 
ATOM     19  O   UNL     1       2.659  -3.538  -1.716  0.00  0.00    -0.245 OA
ATOM     20  O   UNL     1       2.226  -1.423  -2.420  0.00  0.00    -0.456 OA
ATOM     21  C   UNL     1       1.800  -0.208  -1.797  0.00  0.00    +0.269 C 
ENDROOT
BRANCH  12  22
ATOM     22  C   UNL     1      -3.143  -0.796   4.774  0.00  0.00    +0.066 C 
ATOM     23  C   UNL     1      -3.975  -0.166   5.893  0.00  0.00    +0.041 C 
ATOM     24  C   UNL     1      -3.396  -0.045   3.465  0.00  0.00    +0.041 C 
BRANCH  22  25
ATOM     25  O   UNL     1      -3.517  -2.166   4.617  0.00  0.00    -0.389 OA
ATOM     26  H   UNL     1      -4.428  -2.294   4.319  0.00  0.00    +0.210 HD
ENDBRANCH  22  25
ENDBRANCH  12  22
BRANCH  11  27
ATOM     27  O   UNL     1      -1.945   1.538   5.968  0.00  0.00    -0.391 OA
ATOM     28  H   UNL     1      -1.708   2.475   5.964  0.00  0.00    +0.210 HD
ENDBRANCH  11  27
BRANCH   5  29
ATOM     29  O   UNL     1       2.204  -3.753   1.270  0.00  0.00    -0.494 OA
ATOM     30  C   UNL     1       3.570  -4.060   1.558  0.00  0.00    +0.277 C 
ENDBRANCH   5  29
BRANCH  13  31
ATOM     31  C   UNL     1      -1.305  -3.024   4.255  0.00  0.00    +0.019 C 
BRANCH  31  32
ATOM     32  C   UNL     1      -1.376  -3.438   5.727  0.00  0.00    +0.126 C 
BRANCH  32  33
ATOM     33  C   UNL     1      -1.683  -4.910   5.820  0.00  0.00    +0.356 C 
ATOM     34  O   UNL     1      -1.831  -5.568   4.804  0.00  0.00    -0.246 OA
ATOM     35  O   UNL     1      -1.783  -5.444   6.912  0.00  0.00    -0.246 OA
ENDBRANCH  32  33
ENDBRANCH  31  32
ENDBRANCH  13  31
TORSDOF 7
