REMARK  Name = ZINC37580849
REMARK  5 active torsions:
REMARK  status: ('A' for Active; 'I' for Inactive)
REMARK    1  A    between atoms: N_7  and  S_8
REMARK    2  A    between atoms: S_8  and  C_11
REMARK    3  A    between atoms: C_14  and  C_18
REMARK    4  A    between atoms: C_19  and  C_20
REMARK    5  A    between atoms: C_20  and  N_21
REMARK                            x       y       z     vdW  Elec       q    Type
REMARK                         _______ _______ _______ _____ _____    ______ ____
ROOT
ATOM      1  C   UNL     1       2.403  -4.510  -0.049  0.00  0.00    +0.131 A 
ATOM      2  C   UNL     1       2.762  -5.277  -1.142  0.00  0.00    +0.032 A 
ATOM      3  C   UNL     1       2.499  -6.632  -1.154  0.00  0.00    +0.019 A 
ATOM      4  C   UNL     1       1.870  -7.228  -0.060  0.00  0.00    +0.026 A 
ATOM      5  C   UNL     1       1.510  -6.449   1.040  0.00  0.00    +0.038 A 
ATOM      6  C   UNL     1       1.784  -5.095   1.042  0.00  0.00    +0.069 A 
ATOM      7 CL   UNL     1       1.344  -4.124   2.412  0.00  0.00    -0.081 Cl
ENDROOT
BRANCH   1   8
ATOM      8  S   UNL     1       2.743  -2.780  -0.042  0.00  0.00    +0.102 S 
ATOM      9  O   UNL     1       3.348  -2.481  -1.292  0.00  0.00    -0.146 OA
ATOM     10  O   UNL     1       3.374  -2.495   1.199  0.00  0.00    -0.146 OA
BRANCH   8  17
ATOM     11  C   UNL     1      -0.016   1.354   0.009  0.00  0.00    +0.005 A 
ATOM     12  C   UNL     1       1.195   2.067   0.002  0.00  0.00    +0.018 A 
ATOM     13  C   UNL     1       2.374   1.409  -0.013  0.00  0.00    +0.084 A 
ATOM     14  N   UNL     1       2.412   0.047  -0.022  0.00  0.00    -0.345 N 
ATOM     15  C   UNL     1       1.246  -0.679  -0.014  0.00  0.00    +0.153 A 
ATOM     16  C   UNL     1       0.002  -0.004   0.002  0.00  0.00    +0.048 A 
ATOM     17  N   UNL     1       1.285  -1.996  -0.022  0.00  0.00    -0.111 NA
ATOM     18  H   UNL     1       3.266  -0.412  -0.033  0.00  0.00    +0.167 HD
ENDBRANCH   8  17
ENDBRANCH   1   8
BRANCH   4  19
ATOM     19  C   UNL     1       1.594  -8.633  -0.067  0.00  0.00    -0.068 C 
ATOM     20  C   UNL     1       1.368  -9.785  -0.072  0.00  0.00    -0.117 C 
BRANCH  20  21
ATOM     21  C   UNL     1       1.085 -11.229  -0.079  0.00  0.00    +0.005 C 
BRANCH  21  22
ATOM     22  N   UNL     1       0.423 -11.604   1.178  0.00  0.00    +0.385 N 
ATOM     23  H   UNL     1       1.028 -11.384   1.955  0.00  0.00    -0.089 HD
ATOM     24  H   UNL     1      -0.441 -11.092   1.268  0.00  0.00    -0.089 HD
ATOM     25  H   UNL     1       0.229 -12.595   1.173  0.00  0.00    -0.089 HD
ENDBRANCH  21  22
ENDBRANCH  20  21
ENDBRANCH   4  19
TORSDOF 5
