REMARK  Name = ZINC06493885
REMARK  2 active torsions:
REMARK  status: ('A' for Active; 'I' for Inactive)
REMARK    1  A    between atoms: C_6  and  N_7
REMARK    2  A    between atoms: N_7  and  C_8
REMARK                            x       y       z     vdW  Elec       q    Type
REMARK                         _______ _______ _______ _____ _____    ______ ____
ROOT
ATOM      1  C   UNL     1      -0.077   5.840   0.035  0.00  0.00    +0.090 C 
ATOM      2  C   UNL     1      -0.058   4.458   0.021  0.00  0.00    +0.113 C 
ATOM      3  C   UNL     1       1.209   3.707  -0.022  0.00  0.00    +0.256 C 
ATOM      4  O   UNL     1       2.279   4.287  -0.046  0.00  0.00    -0.270 OA
ATOM      5  N   UNL     1       1.151   2.359  -0.034  0.00  0.00    -0.263 N 
ATOM      6  C   UNL     1      -0.020   1.708  -0.007  0.00  0.00    +0.143 C 
ATOM      7  S   UNL     1       0.004  -0.004  -0.023  0.00  0.00    -0.018 S 
ATOM      8  N   UNL     1      -1.209   2.326   0.028  0.00  0.00    -0.263 N 
ATOM      9  C   UNL     1      -1.304   3.671   0.049  0.00  0.00    +0.256 C 
ATOM     10  O   UNL     1      -2.389   4.220   0.085  0.00  0.00    -0.270 OA
ATOM     11  H   UNL     1       2.079   1.769  -0.066  0.00  0.00    +0.157 HD
ATOM     12  H   UNL     1      -2.136   1.734   0.040  0.00  0.00    +0.157 HD
ENDROOT
BRANCH   1  13
ATOM     13  N   UNL     1      -1.251   6.500  -0.052  0.00  0.00    -0.320 N 
ATOM     14  H   UNL     1      -2.198   5.940  -0.047  0.00  0.00    +0.152 HD
BRANCH  13  20
ATOM     15  C   UNL     1      -0.070   8.603  -0.152  0.00  0.00    +0.024 A 
ATOM     16  C   UNL     1      -0.085   9.980  -0.255  0.00  0.00    +0.017 A 
ATOM     17  C   UNL     1      -1.290  10.655  -0.344  0.00  0.00    +0.018 A 
ATOM     18  C   UNL     1      -2.482   9.952  -0.337  0.00  0.00    +0.017 A 
ATOM     19  C   UNL     1      -2.472   8.574  -0.240  0.00  0.00    +0.024 A 
ATOM     20  C   UNL     1      -1.264   7.894  -0.150  0.00  0.00    +0.031 A 
ATOM     21 BR   UNL     1      -1.308  12.541  -0.476  0.00  0.00    -0.050 Br
ENDBRANCH  13  20
ENDBRANCH   1  13
TORSDOF 2
