REMARK  Name = ZINC47040625
REMARK  3 active torsions:
REMARK  status: ('A' for Active; 'I' for Inactive)
REMARK    1  A    between atoms: C_6  and  N_7
REMARK    2  A    between atoms: N_10  and  C_11
REMARK    3  A    between atoms: C_11  and  C_12
REMARK                            x       y       z     vdW  Elec       q    Type
REMARK                         _______ _______ _______ _____ _____    ______ ____
ROOT
ATOM      1  N   UNL     1      -1.201  -0.722   0.010  0.00  0.00    -0.269 N 
ATOM      2  C   UNL     1      -1.185  -2.065  -0.099  0.00  0.00    +0.304 C 
ATOM      3  O   UNL     1      -0.125  -2.661  -0.113  0.00  0.00    -0.252 OA
ATOM      4  N   UNL     1      -2.344  -2.747  -0.193  0.00  0.00    -0.295 N 
ATOM      5  H   UNL     1      -2.045  -0.252   0.099  0.00  0.00    +0.156 HD
ATOM      6  H   UNL     1      -3.189  -2.271  -0.182  0.00  0.00    +0.151 HD
ENDROOT
BRANCH   1  12
ATOM      7  C   UNL     1       1.071  -0.454  -0.768  0.00  0.00    +0.026 A 
ATOM      8  C   UNL     1       2.256   0.255  -0.782  0.00  0.00    +0.043 A 
ATOM      9  C   UNL     1       2.380   1.415  -0.036  0.00  0.00    +0.159 A 
ATOM     10  C   UNL     1       1.314   1.867   0.727  0.00  0.00    +0.160 A 
ATOM     11  C   UNL     1       0.126   1.159   0.744  0.00  0.00    +0.064 A 
ATOM     12  C   UNL     1       0.002  -0.004  -0.005  0.00  0.00    +0.038 A 
ATOM     13  F   UNL     1       1.436   2.999   1.454  0.00  0.00    -0.202 F 
ATOM     14  F   UNL     1       3.541   2.106  -0.051  0.00  0.00    -0.202 F 
ENDBRANCH   1  12
BRANCH   4  15
ATOM     15  C   UNL     1      -2.326  -4.207  -0.311  0.00  0.00    +0.148 C 
BRANCH  15  16
ATOM     16  C   UNL     1      -3.740  -4.721  -0.400  0.00  0.00    +0.008 A 
ATOM     17  C   UNL     1      -4.505  -4.931  -1.499  0.00  0.00    +0.028 A 
ATOM     18  C   UNL     1      -5.791  -5.413  -1.339  0.00  0.00    +0.025 A 
ATOM     19  C   UNL     1      -6.249  -5.661  -0.087  0.00  0.00    +0.060 A 
ATOM     20  S   UNL     1      -4.840  -5.217   0.916  0.00  0.00    -0.099 S 
ATOM     21 BR   UNL     1      -6.894  -5.721  -2.843  0.00  0.00    -0.050 Br
ENDBRANCH  15  16
ENDBRANCH   4  15
TORSDOF 3
