REMARK  Name = ZINC08788953
REMARK  7 active torsions:
REMARK  status: ('A' for Active; 'I' for Inactive)
REMARK    1  A    between atoms: C_1  and  C_2
REMARK    2  A    between atoms: C_2  and  O_3
REMARK    3  A    between atoms: O_3  and  C_4
REMARK    4  A    between atoms: C_4  and  C_6
REMARK    5  A    between atoms: C_9  and  N_12
REMARK    6  A    between atoms: C_17  and  C_33
REMARK    7  A    between atoms: C_33  and  C_34
REMARK                            x       y       z     vdW  Elec       q    Type
REMARK                         _______ _______ _______ _____ _____    ______ ____
ROOT
ATOM      1  N   UNL     1       5.031   5.454   1.298  0.00  0.00    -0.210 N 
ATOM      2  C   UNL     1       5.540   4.249   1.017  0.00  0.00    +0.228 C 
ATOM      3  O   UNL     1       6.721   3.993   0.922  0.00  0.00    -0.275 OA
ATOM      4  C   UNL     1       4.414   3.258   0.838  0.00  0.00    +0.074 C 
ATOM      5  C   UNL     1       4.349   2.820  -0.641  0.00  0.00    -0.053 C 
ATOM      6  C   UNL     1       2.440   4.125  -0.310  0.00  0.00    +0.050 C 
ATOM      7  C   UNL     1       3.139   4.120   1.055  0.00  0.00    +0.088 C 
ATOM      8  C   UNL     1       3.695   5.495   1.346  0.00  0.00    +0.229 C 
ATOM      9  O   UNL     1       3.033   6.482   1.587  0.00  0.00    -0.275 OA
ATOM     10  C   UNL     1       1.334   3.110  -0.368  0.00  0.00    -0.028 A 
ATOM     11  C   UNL     1       1.292   1.744  -0.206  0.00  0.00    +0.004 A 
ATOM     12  C   UNL     1       0.089   1.069  -0.322  0.00  0.00    +0.000 A 
ATOM     13  C   UNL     1      -1.069   1.770  -0.606  0.00  0.00    +0.002 A 
ATOM     14  C   UNL     1      -1.032   3.140  -0.764  0.00  0.00    +0.023 A 
ATOM     15  C   UNL     1       0.174   3.827  -0.648  0.00  0.00    +0.036 A 
ATOM     16  N   UNL     1       0.465   5.188  -0.767  0.00  0.00    -0.286 N 
ATOM     17  C   UNL     1       1.774   5.446  -0.582  0.00  0.00    +0.211 C 
ATOM     18  O   UNL     1       2.311   6.533  -0.625  0.00  0.00    -0.277 OA
ATOM     19  H   UNL     1      -0.199   5.868  -0.961  0.00  0.00    +0.155 HD
ATOM     20  N   UNL     1       3.487   3.823  -1.270  0.00  0.00    +0.394 N 
ATOM     21  H   UNL     1       3.079   3.447  -2.134  0.00  0.00    -0.083 HD
ATOM     22  H   UNL     1       4.026   4.670  -1.486  0.00  0.00    -0.083 HD
ENDROOT
BRANCH   1  26
ATOM     23  C   UNL     1       7.415   8.808   1.968  0.00  0.00    +0.059 A 
ATOM     24  C   UNL     1       6.667   8.260   3.014  0.00  0.00    +0.017 A 
ATOM     25  C   UNL     1       5.880   7.153   2.788  0.00  0.00    +0.025 A 
ATOM     26  C   UNL     1       5.830   6.579   1.523  0.00  0.00    +0.044 A 
ATOM     27  C   UNL     1       6.578   7.118   0.481  0.00  0.00    +0.025 A 
ATOM     28  C   UNL     1       7.362   8.229   0.697  0.00  0.00    +0.017 A 
BRANCH  23  29
ATOM     29  C   UNL     1       8.260   9.994   2.206  0.00  0.00    +0.339 C 
ATOM     30  O   UNL     1       8.305  10.496   3.311  0.00  0.00    -0.245 OA
BRANCH  29  31
ATOM     31  O   UNL     1       8.981  10.521   1.197  0.00  0.00    -0.461 OA
BRANCH  31  33
ATOM     32  C   UNL     1      10.530  12.140   0.243  0.00  0.00    +0.048 C 
ATOM     33  C   UNL     1       9.789  11.688   1.503  0.00  0.00    +0.229 C 
ENDBRANCH  31  33
ENDBRANCH  29  31
ENDBRANCH  23  29
ENDBRANCH   1  26
BRANCH   5  34
ATOM     34  C   UNL     1       5.749   2.820  -1.260  0.00  0.00    +0.020 C 
BRANCH  34  35
ATOM     35  C   UNL     1       5.667   2.344  -2.687  0.00  0.00    -0.049 A 
ATOM     36  C   UNL     1       5.798   0.998  -2.975  0.00  0.00    +0.003 A 
ATOM     37  C   UNL     1       5.718   0.560  -4.284  0.00  0.00    +0.000 A 
ATOM     38  C   UNL     1       5.518   1.470  -5.306  0.00  0.00    +0.000 A 
ATOM     39  C   UNL     1       5.392   2.816  -5.018  0.00  0.00    +0.000 A 
ATOM     40  C   UNL     1       5.467   3.253  -3.709  0.00  0.00    +0.003 A 
ENDBRANCH  34  35
ENDBRANCH   5  34
TORSDOF 6
