REMARK  Name = ZINC50930192
REMARK  3 active torsions:
REMARK  status: ('A' for Active; 'I' for Inactive)
REMARK    1  A    between atoms: C_13  and  C_16
REMARK    2  A    between atoms: C_16  and  C_17
REMARK    3  A    between atoms: C_17  and  C_18
REMARK                            x       y       z     vdW  Elec       q    Type
REMARK                         _______ _______ _______ _____ _____    ______ ____
ROOT
ATOM      1  C   UNL     1       3.982  -1.870  -3.377  0.00  0.00    -0.000 C 
ATOM      2  C   UNL     1       5.011  -1.828  -2.269  0.00  0.00    -0.081 C 
ATOM      3  N   UNL     1       5.214  -3.178  -1.748  0.00  0.00    +0.380 N 
ATOM      4  C   UNL     1       4.334  -3.553  -0.708  0.00  0.00    -0.063 C 
ATOM      5  C   UNL     1       2.878  -3.591  -1.227  0.00  0.00    +0.090 C 
ATOM      6  N   UNL     1       2.413  -2.243  -1.483  0.00  0.00    -0.287 N 
ATOM      7  C   UNL     1       2.587  -1.581  -2.792  0.00  0.00    +0.107 C 
ATOM      8  C   UNL     1       1.799  -1.568  -0.490  0.00  0.00    +0.305 C 
ATOM      9  O   UNL     1       1.514  -0.395  -0.638  0.00  0.00    -0.252 OA
ATOM     10  N   UNL     1       1.500  -2.194   0.665  0.00  0.00    -0.285 N 
ATOM     11  C   UNL     1       0.369  -1.744   1.489  0.00  0.00    +0.109 C 
ATOM     12  C   UNL     1       0.870  -1.488   2.914  0.00  0.00    +0.022 C 
ATOM     13  C   UNL     1       1.569  -2.744   3.439  0.00  0.00    -0.008 C 
ATOM     14  C   UNL     1       2.776  -3.065   2.554  0.00  0.00    +0.022 C 
ATOM     15  C   UNL     1       2.294  -3.343   1.122  0.00  0.00    +0.109 C 
ATOM     16  H   UNL     1       5.106  -3.832  -2.508  0.00  0.00    -0.086 HD
ATOM     17  H   UNL     1       6.160  -3.248  -1.405  0.00  0.00    -0.086 HD
ENDROOT
BRANCH  13  18
ATOM     18  C   UNL     1       2.040  -2.504   4.875  0.00  0.00    +0.015 C 
BRANCH  18  19
ATOM     19  C   UNL     1       2.627  -3.798   5.442  0.00  0.00    +0.125 C 
BRANCH  19  20
ATOM     20  C   UNL     1       3.091  -3.561   6.856  0.00  0.00    +0.356 C 
ATOM     21  O   UNL     1       2.963  -2.460   7.363  0.00  0.00    -0.246 OA
ATOM     22  O   UNL     1       3.594  -4.471   7.493  0.00  0.00    -0.246 OA
ENDBRANCH  19  20
ENDBRANCH  18  19
ENDBRANCH  13  18
TORSDOF 3
