REMARK  Name = ZINC37538569
REMARK  8 active torsions:
REMARK  status: ('A' for Active; 'I' for Inactive)
REMARK    1  A    between atoms: C_1  and  C_2
REMARK    2  A    between atoms: C_6  and  C_10
REMARK    3  A    between atoms: C_6  and  O_29
REMARK    4  A    between atoms: C_10  and  C_11
REMARK    5  A    between atoms: C_19  and  C_28
REMARK    6  A    between atoms: C_22  and  O_27
REMARK    7  A    between atoms: C_24  and  C_25
REMARK    8  A    between atoms: C_24  and  C_26
REMARK                            x       y       z     vdW  Elec       q    Type
REMARK                         _______ _______ _______ _____ _____    ______ ____
ROOT
ATOM      1  C   UNL     1       2.286  -3.259  -0.982  0.00  0.00    +0.024 C 
ATOM      2  C   UNL     1       1.970  -4.724  -1.189  0.00  0.00    -0.073 C 
ATOM      3  C   UNL     1       1.112  -5.096  -2.111  0.00  0.00    +0.008 C 
ATOM      4  C   UNL     1       2.650  -5.750  -0.315  0.00  0.00    +0.031 C 
ATOM      5  C   UNL     1       4.162  -5.486  -0.318  0.00  0.00    +0.009 C 
ATOM      6  C   UNL     1       4.419  -4.029   0.069  0.00  0.00    +0.004 C 
ATOM      7  C   UNL     1       3.814  -3.084  -0.955  0.00  0.00    -0.022 C 
ATOM      8  C   UNL     1       4.150  -1.630  -0.624  0.00  0.00    +0.010 C 
ATOM      9  C   UNL     1       5.669  -1.459  -0.555  0.00  0.00    +0.032 C 
ATOM     10  C   UNL     1       6.211  -2.314   0.585  0.00  0.00    +0.120 C 
ATOM     11  C   UNL     1       5.886  -3.793   0.382  0.00  0.00    -0.006 C 
ATOM     12  C   UNL     1       6.814  -4.386  -0.678  0.00  0.00    +0.014 C 
ATOM     13  C   UNL     1       6.209  -4.501   1.720  0.00  0.00    +0.014 C 
ATOM     14  C   UNL     1       4.318  -3.390  -2.375  0.00  0.00    +0.012 C 
ENDROOT
BRANCH  10  15
ATOM     15  O   UNL     1       7.631  -2.152   0.669  0.00  0.00    -0.391 OA
ATOM     16  H   UNL     1       7.914  -1.242   0.835  0.00  0.00    +0.210 HD
ENDBRANCH  10  15
BRANCH   1  17
ATOM     17  C   UNL     1       1.634  -2.768   0.306  0.00  0.00    +0.051 C 
BRANCH  17  23
ATOM     18  C   UNL     1      -0.281   1.530   0.200  0.00  0.00    +0.047 C 
ATOM     19  C   UNL     1      -0.272   0.023   0.161  0.00  0.00    -0.005 C 
ATOM     20  C   UNL     1      -0.339  -0.622  -1.021  0.00  0.00    +0.056 C 
ATOM     21  C   UNL     1      -0.338  -2.094  -1.056  0.00  0.00    +0.188 C 
ATOM     22  O   UNL     1      -0.691  -2.687  -2.052  0.00  0.00    -0.290 OA
ATOM     23  C   UNL     1       0.112  -2.855   0.172  0.00  0.00    +0.135 C 
ATOM     24  C   UNL     1      -0.555  -2.213   1.398  0.00  0.00    +0.122 C 
ATOM     25  C   UNL     1      -0.183  -0.745   1.414  0.00  0.00    +0.162 C 
ATOM     26  O   UNL     1       0.178  -0.210   2.441  0.00  0.00    -0.292 OA
BRANCH  23  27
ATOM     27  O   UNL     1      -0.287  -4.223   0.066  0.00  0.00    -0.380 OA
ATOM     28  H   UNL     1      -1.243  -4.349  -0.011  0.00  0.00    +0.211 HD
ENDBRANCH  23  27
ENDBRANCH  17  23
ENDBRANCH   1  17
TORSDOF 4
