REMARK  Name = ZINC16269388
REMARK  7 active torsions:
REMARK  status: ('A' for Active; 'I' for Inactive)
REMARK    1  A    between atoms: C_1  and  C_2
REMARK    2  A    between atoms: C_4  and  O_10
REMARK    3  A    between atoms: C_6  and  C_9
REMARK    4  A    between atoms: O_10  and  C_11
REMARK    5  A    between atoms: C_11  and  C_13
REMARK    6  A    between atoms: C_11  and  C_14
REMARK    7  A    between atoms: N_16  and  N_17
REMARK                            x       y       z     vdW  Elec       q    Type
REMARK                         _______ _______ _______ _____ _____    ______ ____
ROOT
ATOM      1  C   UNL     1      -0.449  -4.789  -3.553  0.00  0.00    +0.273 C 
ATOM      2  O   UNL     1      -0.864  -4.080  -4.445  0.00  0.00    -0.270 OA
ATOM      3  N   UNL     1      -0.531  -6.129  -3.664  0.00  0.00    -0.202 N 
ATOM      4  H   UNL     1      -0.200  -6.696  -2.950  0.00  0.00    +0.177 HD
ENDROOT
BRANCH   3   5
ATOM      5  N   UNL     1      -1.097  -6.704  -4.810  0.00  0.00    -0.162 NA
ATOM      6  C   UNL     1      -1.177  -8.008  -4.918  0.00  0.00    +0.158 C 
ATOM      7  C   UNL     1      -1.739  -8.752  -6.063  0.00  0.00    +0.029 A 
ATOM      8  C   UNL     1      -2.309  -8.393  -7.276  0.00  0.00    +0.012 A 
ATOM      9  C   UNL     1      -2.745  -9.375  -8.145  0.00  0.00    +0.001 A 
ATOM     10  C   UNL     1      -2.618 -10.715  -7.814  0.00  0.00    +0.001 A 
ATOM     11  C   UNL     1      -2.053 -11.091  -6.611  0.00  0.00    +0.012 A 
ATOM     12  C   UNL     1      -1.608 -10.116  -5.724  0.00  0.00    +0.023 A 
ATOM     13  C   UNL     1      -0.977 -10.144  -4.397  0.00  0.00    +0.103 C 
ATOM     14  N   UNL     1      -0.752  -8.915  -3.997  0.00  0.00    -0.326 N 
ATOM     15  N   UNL     1      -0.663 -11.285  -3.685  0.00  0.00    -0.344 N 
ATOM     16  H   UNL     1      -0.861 -12.158  -4.058  0.00  0.00    +0.144 HD
ATOM     17  H   UNL     1      -0.246 -11.213  -2.813  0.00  0.00    +0.144 HD
ATOM     18  H   UNL     1      -0.338  -8.682  -3.151  0.00  0.00    +0.169 HD
ENDBRANCH   3   5
BRANCH   1  19
ATOM     19  C   UNL     1       0.159  -4.171  -2.320  0.00  0.00    +0.257 C 
ATOM     20  C   UNL     1       1.641  -4.543  -2.241  0.00  0.00    +0.062 C 
BRANCH  19  21
ATOM     21  O   UNL     1       0.028  -2.749  -2.386  0.00  0.00    -0.480 OA
BRANCH  21  25
ATOM     22  C   UNL     1       0.512  -2.800   2.471  0.00  0.00    +0.045 C 
ATOM     23  C   UNL     1       0.258  -2.065   1.180  0.00  0.00    -0.028 A 
ATOM     24  C   UNL     1       0.260  -2.752  -0.018  0.00  0.00    +0.050 A 
ATOM     25  C   UNL     1       0.026  -2.075  -1.206  0.00  0.00    +0.122 A 
ATOM     26  C   UNL     1      -0.210  -0.708  -1.187  0.00  0.00    +0.050 A 
ATOM     27  C   UNL     1      -0.212  -0.024   0.013  0.00  0.00    -0.028 A 
ATOM     28  C   UNL     1       0.017  -0.702   1.197  0.00  0.00    +0.047 A 
ATOM     29 CL   UNL     1       0.008   0.158   2.705  0.00  0.00    -0.083 Cl
ATOM     30  C   UNL     1      -0.468   1.461   0.033  0.00  0.00    +0.045 C 
ENDBRANCH  21  25
ENDBRANCH  19  21
ENDBRANCH   1  19
TORSDOF 4
