REMARK  Name = ZINC60529839
REMARK  6 active torsions:
REMARK  status: ('A' for Active; 'I' for Inactive)
REMARK    1  A    between atoms: C_1  and  C_2
REMARK    2  A    between atoms: C_2  and  C_3
REMARK    3  A    between atoms: C_2  and  N_4
REMARK    4  A    between atoms: N_4  and  C_5
REMARK    5  A    between atoms: C_5  and  C_6
REMARK    6  A    between atoms: C_9  and  C_11
REMARK                            x       y       z     vdW  Elec       q    Type
REMARK                         _______ _______ _______ _____ _____    ______ ____
ROOT
ATOM      1  N   UNL     1      -1.348   0.062   0.753  0.00  0.00    -0.286 N 
ATOM      2  C   UNL     1      -1.455   1.294   1.291  0.00  0.00    +0.247 C 
ATOM      3  O   UNL     1      -2.507   1.899   1.219  0.00  0.00    -0.270 OA
ENDROOT
BRANCH   2   4
ATOM      4  C   UNL     1      -0.296   1.906   1.968  0.00  0.00    +0.042 A 
ATOM      5  C   UNL     1      -0.493   2.807   3.018  0.00  0.00    +0.062 A 
ATOM      6  C   UNL     1       0.595   3.378   3.652  0.00  0.00    +0.164 A 
ATOM      7  C   UNL     1       1.887   3.055   3.244  0.00  0.00    +0.180 A 
ATOM      8  C   UNL     1       2.083   2.160   2.198  0.00  0.00    +0.087 A 
ATOM      9  C   UNL     1       1.002   1.583   1.565  0.00  0.00    +0.037 A 
ATOM     10 CL   UNL     1       3.695   1.763   1.690  0.00  0.00    -0.080 Cl
ATOM     11  O   UNL     1       2.967   3.603   3.861  0.00  0.00    -0.483 OA
ATOM     12  C   UNL     1       2.734   4.774   4.651  0.00  0.00    +0.270 C 
ATOM     13  C   UNL     1       1.501   4.523   5.529  0.00  0.00    +0.270 C 
ATOM     14  O   UNL     1       0.386   4.257   4.671  0.00  0.00    -0.485 OA
ENDBRANCH   2   4
BRANCH   1  16
ATOM     15  C   UNL     1       0.474   0.807  -0.698  0.00  0.00    +0.028 C 
ATOM     16  C   UNL     1      -0.094  -0.354   0.120  0.00  0.00    +0.071 C 
ATOM     17  C   UNL     1       0.912  -0.757   1.200  0.00  0.00    +0.028 C 
ENDBRANCH   1  16
BRANCH   1  18
ATOM     18  C   UNL     1      -2.486  -0.859   0.801  0.00  0.00    +0.203 C 
BRANCH  18  19
ATOM     19  C   UNL     1      -2.415  -1.680   2.063  0.00  0.00    +0.228 C 
ATOM     20  O   UNL     1      -1.504  -1.511   2.846  0.00  0.00    -0.274 OA
ATOM     21  N   UNL     1      -3.364  -2.601   2.322  0.00  0.00    -0.328 N 
ATOM     22  H   UNL     1      -4.093  -2.736   1.697  0.00  0.00    +0.145 HD
ATOM     23  H   UNL     1      -3.318  -3.129   3.135  0.00  0.00    +0.145 HD
ENDBRANCH  18  19
ENDBRANCH   1  18
TORSDOF 4
