REMARK  Name = ZINC37064404
REMARK  7 active torsions:
REMARK  status: ('A' for Active; 'I' for Inactive)
REMARK    1  A    between atoms: C_5  and  S_8
REMARK    2  A    between atoms: C_6  and  N_7
REMARK    3  A    between atoms: S_8  and  N_11
REMARK    4  A    between atoms: N_11  and  C_12
REMARK    5  A    between atoms: C_12  and  C_13
REMARK    6  A    between atoms: C_13  and  C_14
REMARK    7  A    between atoms: C_14  and  O_15
REMARK                            x       y       z     vdW  Elec       q    Type
REMARK                         _______ _______ _______ _____ _____    ______ ____
ROOT
ATOM      1  C   UNL     1       0.058   1.364   0.444  0.00  0.00    +0.040 A 
ATOM      2  C   UNL     1       1.268   2.031   0.389  0.00  0.00    +0.021 A 
ATOM      3  C   UNL     1       2.400   1.376  -0.060  0.00  0.00    +0.032 A 
ATOM      4  C   UNL     1       2.326   0.052  -0.455  0.00  0.00    +0.047 A 
ATOM      5  C   UNL     1       1.120  -0.620  -0.401  0.00  0.00    +0.140 A 
ATOM      6  C   UNL     1      -0.019   0.035   0.049  0.00  0.00    +0.053 A 
ATOM      7 BR   UNL     1       3.877  -0.839  -1.069  0.00  0.00    -0.048 Br
ATOM      8 BR   UNL     1       1.374   3.841   0.927  0.00  0.00    -0.050 Br
ENDROOT
BRANCH   6   9
ATOM      9  N   UNL     1      -1.240  -0.641   0.104  0.00  0.00    -0.356 N 
ATOM     10  H   UNL     1      -2.072  -0.145   0.060  0.00  0.00    +0.142 HD
ATOM     11  H   UNL     1      -1.256  -1.608   0.188  0.00  0.00    +0.142 HD
ENDBRANCH   6   9
BRANCH   5  12
ATOM     12  S   UNL     1       1.026  -2.306  -0.904  0.00  0.00    +0.061 S 
ATOM     13  O   UNL     1      -0.338  -2.565  -1.206  0.00  0.00    -0.153 OA
ATOM     14  O   UNL     1       2.067  -2.506  -1.851  0.00  0.00    -0.153 OA
BRANCH  12  15
ATOM     15  N   UNL     1       1.403  -3.233   0.416  0.00  0.00    -0.190 NA
ATOM     16  H   UNL     1       2.204  -3.780   0.412  0.00  0.00    +0.148 HD
BRANCH  15  17
ATOM     17  C   UNL     1       0.527  -3.225   1.590  0.00  0.00    +0.108 C 
BRANCH  17  18
ATOM     18  C   UNL     1       0.875  -4.411   2.493  0.00  0.00    +0.045 C 
BRANCH  18  19
ATOM     19  C   UNL     1      -0.040  -4.403   3.719  0.00  0.00    +0.157 C 
BRANCH  19  20
ATOM     20  O   UNL     1       0.284  -5.511   4.562  0.00  0.00    -0.395 OA
ATOM     21  H   UNL     1      -0.257  -5.569   5.361  0.00  0.00    +0.209 HD
ENDBRANCH  19  20
ENDBRANCH  18  19
ENDBRANCH  17  18
ENDBRANCH  15  17
ENDBRANCH  12  15
ENDBRANCH   5  12
TORSDOF 7
