REMARK  Name = ZINC14808091
REMARK  6 active torsions:
REMARK  status: ('A' for Active; 'I' for Inactive)
REMARK    1  A    between atoms: C_3  and  S_12
REMARK    2  A    between atoms: C_6  and  O_7
REMARK    3  A    between atoms: O_7  and  C_8
REMARK    4  A    between atoms: S_12  and  C_15
REMARK    5  A    between atoms: C_15  and  C_16
REMARK    6  A    between atoms: N_17  and  O_18
REMARK                            x       y       z     vdW  Elec       q    Type
REMARK                         _______ _______ _______ _____ _____    ______ ____
ROOT
ATOM      1  C   UNL     1      -0.022   1.401   0.007  0.00  0.00    +0.048 A 
ATOM      2  C   UNL     1       1.168   2.103   0.000  0.00  0.00    +0.030 A 
ATOM      3  C   UNL     1       2.372   1.424  -0.014  0.00  0.00    +0.089 A 
ATOM      4  C   UNL     1       2.389   0.041  -0.021  0.00  0.00    +0.030 A 
ATOM      5  C   UNL     1       1.202  -0.665  -0.014  0.00  0.00    +0.048 A 
ATOM      6  C   UNL     1      -0.008   0.014   0.000  0.00  0.00    +0.130 A 
ENDROOT
BRANCH   3   7
ATOM      7  S   UNL     1       3.888   2.322  -0.024  0.00  0.00    +0.004 S 
ATOM      8  O   UNL     1       4.824   1.448  -0.639  0.00  0.00    -0.169 OA
ATOM      9  O   UNL     1       3.565   3.572  -0.618  0.00  0.00    -0.169 OA
BRANCH   7  10
ATOM     10  C   UNL     1       4.305   2.551   1.727  0.00  0.00    +0.246 C 
BRANCH  10  11
ATOM     11  C   UNL     1       5.599   3.317   1.839  0.00  0.00    +0.153 C 
ATOM     12  N   UNL     1       6.036   3.679   2.999  0.00  0.00    -0.075 NA
ATOM     13  N   UNL     1       6.314   3.630   0.704  0.00  0.00    -0.343 N 
ATOM     14  H   UNL     1       5.985   3.357  -0.167  0.00  0.00    +0.144 HD
ATOM     15  H   UNL     1       7.147   4.122   0.776  0.00  0.00    +0.144 HD
BRANCH  12  16
ATOM     16  O   UNL     1       5.361   3.263   4.172  0.00  0.00    -0.408 OA
ATOM     17  H   UNL     1       5.762   3.583   4.991  0.00  0.00    +0.328 HD
ENDBRANCH  12  16
ENDBRANCH  10  11
ENDBRANCH   7  10
ENDBRANCH   3   7
BRANCH   6  18
ATOM     18  O   UNL     1      -1.177  -0.679   0.008  0.00  0.00    -0.406 OA
BRANCH  18  19
ATOM     19  C   UNL     1      -1.087  -2.105  -0.000  0.00  0.00    +0.575 C 
ATOM     20  F   UNL     1      -0.388  -2.534   1.133  0.00  0.00    -0.133 F 
ATOM     21  F   UNL     1      -2.373  -2.654   0.009  0.00  0.00    -0.133 F 
ATOM     22  F   UNL     1      -0.409  -2.523  -1.151  0.00  0.00    -0.133 F 
ENDBRANCH  18  19
ENDBRANCH   6  18
TORSDOF 6
