REMARK  Name = ZINC13080686
REMARK  6 active torsions:
REMARK  status: ('A' for Active; 'I' for Inactive)
REMARK    1  A    between atoms: C_5  and  N_7
REMARK    2  A    between atoms: C_8  and  C_10
REMARK    3  A    between atoms: C_10  and  S_11
REMARK    4  A    between atoms: S_11  and  C_12
REMARK    5  A    between atoms: C_13  and  C_29
REMARK    6  A    between atoms: C_14  and  C_24
REMARK                            x       y       z     vdW  Elec       q    Type
REMARK                         _______ _______ _______ _____ _____    ______ ____
ROOT
ATOM      1  C   UNL     1      -1.372  -6.657   0.438  0.00  0.00    +0.080 C 
ATOM      2  C   UNL     1      -2.462  -7.463   0.546  0.00  0.00    +0.072 C 
ATOM      3  C   UNL     1      -2.316  -8.953   0.635  0.00  0.00    +0.132 C 
ATOM      4  C   UNL     1      -0.911  -9.341   1.019  0.00  0.00    +0.027 C 
ATOM      5  C   UNL     1       0.110  -8.468   0.888  0.00  0.00    +0.016 C 
ATOM      6  N   UNL     1      -0.110  -7.203   0.410  0.00  0.00    -0.311 N 
ATOM      7  C   UNL     1       1.520  -8.861   1.255  0.00  0.00    +0.051 C 
ATOM      8  C   UNL     1       1.490  -9.883   2.393  0.00  0.00    +0.014 C 
ATOM      9  C   UNL     1       0.674 -11.097   1.934  0.00  0.00    +0.080 C 
ATOM     10  C   UNL     1      -0.696 -10.637   1.519  0.00  0.00    +0.162 C 
ATOM     11  O   UNL     1      -1.636 -11.401   1.618  0.00  0.00    -0.292 OA
ATOM     12  H   UNL     1       0.629  -6.687   0.052  0.00  0.00    +0.152 HD
ENDROOT
BRANCH   3  13
ATOM     13  C   UNL     1      -2.647  -9.562  -0.704  0.00  0.00    +0.117 A 
ATOM     14  C   UNL     1      -3.632 -10.447  -0.944  0.00  0.00    +0.045 A 
ATOM     15  C   UNL     1      -3.584 -10.749  -2.324  0.00  0.00    +0.041 A 
ATOM     16  C   UNL     1      -2.572 -10.031  -2.845  0.00  0.00    +0.195 A 
ATOM     17  O   UNL     1      -2.012  -9.310  -1.860  0.00  0.00    -0.467 OA
ENDBRANCH   3  13
BRANCH   2  18
ATOM     18  C   UNL     1      -3.769  -6.879   0.576  0.00  0.00    +0.098 C 
ATOM     19  N   UNL     1      -4.807  -6.417   0.600  0.00  0.00    -0.191 NA
ENDBRANCH   2  18
BRANCH   1  20
ATOM     20  S   UNL     1      -1.577  -4.910   0.325  0.00  0.00    -0.100 S 
BRANCH  20  21
ATOM     21  C   UNL     1       0.117  -4.277   0.192  0.00  0.00    +0.171 C 
BRANCH  21  23
ATOM     22  N   UNL     1       1.236  -2.081  -0.022  0.00  0.00    -0.283 N 
ATOM     23  C   UNL     1       0.085  -2.774   0.087  0.00  0.00    +0.227 C 
ATOM     24  O   UNL     1      -0.977  -2.187   0.102  0.00  0.00    -0.275 OA
ATOM     25  H   UNL     1       2.079  -2.552  -0.115  0.00  0.00    +0.155 HD
BRANCH  22  30
ATOM     26  C   UNL     1       0.153   1.372   0.637  0.00  0.00    +0.002 A 
ATOM     27  C   UNL     1       1.173   2.087   0.036  0.00  0.00    +0.003 A 
ATOM     28  C   UNL     1       2.214   1.423  -0.585  0.00  0.00    +0.040 A 
ATOM     29  C   UNL     1       2.239   0.040  -0.607  0.00  0.00    +0.144 A 
ATOM     30  C   UNL     1       1.215  -0.681  -0.002  0.00  0.00    +0.069 A 
ATOM     31  C   UNL     1       0.172  -0.009   0.620  0.00  0.00    +0.026 A 
ATOM     32  F   UNL     1       3.256  -0.609  -1.214  0.00  0.00    -0.204 F 
ENDBRANCH  22  30
ENDBRANCH  21  23
ENDBRANCH  20  21
ENDBRANCH   1  20
TORSDOF 6
