REMARK  Name = ZINC39192516
REMARK  9 active torsions:
REMARK  status: ('A' for Active; 'I' for Inactive)
REMARK    1  A    between atoms: C_1  and  C_2
REMARK    2  A    between atoms: C_2  and  C_3
REMARK    3  A    between atoms: C_2  and  C_4
REMARK    4  A    between atoms: C_4  and  C_6
REMARK    5  A    between atoms: C_4  and  N_16
REMARK    6  A    between atoms: C_6  and  O_8
REMARK    7  A    between atoms: O_8  and  C_9
REMARK    8  A    between atoms: C_9  and  C_10
REMARK    9  A    between atoms: C_17  and  C_19
REMARK                            x       y       z     vdW  Elec       q    Type
REMARK                         _______ _______ _______ _____ _____    ______ ____
ROOT
ATOM      1  C   UNL     1      -1.433  -0.534   0.013  0.00  0.00    +0.185 C 
ENDROOT
BRANCH   1   2
ATOM      2  N   UNL     1      -2.155   0.035   1.154  0.00  0.00    -0.296 N 
ATOM      3  C   UNL     1      -2.067  -0.550   2.366  0.00  0.00    +0.280 C 
ATOM      4  O   UNL     1      -1.389  -1.550   2.511  0.00  0.00    -0.267 OA
ATOM      5  H   UNL     1      -2.696   0.831   1.038  0.00  0.00    +0.150 HD
BRANCH   3   6
ATOM      6  C   UNL     1      -2.789   0.019   3.508  0.00  0.00    +0.189 A 
ATOM      7  C   UNL     1      -2.783  -0.468   4.784  0.00  0.00    +0.054 A 
ATOM      8  C   UNL     1      -3.603   0.381   5.544  0.00  0.00    +0.042 A 
ATOM      9  C   UNL     1      -4.069   1.336   4.709  0.00  0.00    +0.196 A 
ATOM     10  O   UNL     1      -3.572   1.118   3.484  0.00  0.00    -0.458 OA
ENDBRANCH   3   6
ENDBRANCH   1   2
BRANCH   1  12
ATOM     11  C   UNL     1      -0.019   1.526   0.010  0.00  0.00    +0.009 C 
ATOM     12  C   UNL     1       0.002  -0.004   0.002  0.00  0.00    +0.014 C 
ATOM     13  C   UNL     1       0.742  -0.511   1.242  0.00  0.00    +0.009 C 
ENDBRANCH   1  12
BRANCH   1  14
ATOM     14  C   UNL     1      -2.125  -0.137  -1.266  0.00  0.00    +0.328 C 
ATOM     15  O   UNL     1      -3.118   0.549  -1.228  0.00  0.00    -0.249 OA
BRANCH  14  16
ATOM     16  O   UNL     1      -1.637  -0.547  -2.448  0.00  0.00    -0.454 OA
BRANCH  16  17
ATOM     17  C   UNL     1      -2.343  -0.134  -3.619  0.00  0.00    +0.328 C 
BRANCH  17  18
ATOM     18  C   UNL     1      -1.654  -0.685  -4.841  0.00  0.00    +0.258 C 
ATOM     19  O   UNL     1      -0.657  -1.364  -4.721  0.00  0.00    -0.272 OA
ATOM     20  N   UNL     1      -2.146  -0.422  -6.068  0.00  0.00    -0.238 N 
ATOM     21  C   UNL     1      -1.530  -0.915  -7.161  0.00  0.00    +0.303 C 
ATOM     22  O   UNL     1      -0.530  -1.596  -7.040  0.00  0.00    -0.253 OA
ATOM     23  N   UNL     1      -2.022  -0.653  -8.388  0.00  0.00    -0.313 N 
ATOM     24  H   UNL     1      -2.943   0.121  -6.165  0.00  0.00    +0.159 HD
ATOM     25  H   UNL     1      -2.819  -0.109  -8.485  0.00  0.00    +0.146 HD
ATOM     26  H   UNL     1      -1.578  -1.007  -9.174  0.00  0.00    +0.146 HD
ENDBRANCH  17  18
ENDBRANCH  16  17
ENDBRANCH  14  16
ENDBRANCH   1  14
TORSDOF 7
