REMARK  Name = ZINC33502589
REMARK  8 active torsions:
REMARK  status: ('A' for Active; 'I' for Inactive)
REMARK    1  A    between atoms: C_1  and  C_2
REMARK    2  A    between atoms: C_2  and  C_3
REMARK    3  A    between atoms: N_7  and  C_21
REMARK    4  A    between atoms: C_10  and  C_15
REMARK    5  A    between atoms: C_15  and  C_17
REMARK    6  A    between atoms: C_15  and  N_20
REMARK    7  A    between atoms: C_21  and  C_22
REMARK    8  A    between atoms: N_24  and  C_25
REMARK                            x       y       z     vdW  Elec       q    Type
REMARK                         _______ _______ _______ _____ _____    ______ ____
ROOT
ATOM      1  C   UNL     1      -3.532   3.180   0.633  0.00  0.00    +0.259 C 
ATOM      2  C   UNL     1      -3.582   1.721   0.257  0.00  0.00    +0.261 C 
ATOM      3  O   UNL     1      -4.649   1.152   0.165  0.00  0.00    -0.271 OA
ATOM      4  N   UNL     1      -2.434   1.051   0.024  0.00  0.00    -0.256 N 
ATOM      5  C   UNL     1      -1.221   1.753   0.017  0.00  0.00    +0.079 A 
ATOM      6  C   UNL     1      -0.013   1.076   0.008  0.00  0.00    +0.029 A 
ATOM      7  C   UNL     1       1.175   1.785   0.000  0.00  0.00    -0.060 A 
ATOM      8  C   UNL     1       1.159   3.167   0.007  0.00  0.00    +0.005 A 
ATOM      9  C   UNL     1      -0.044   3.850   0.015  0.00  0.00    +0.048 A 
ATOM     10  C   UNL     1      -1.237   3.147   0.017  0.00  0.00    +0.143 A 
ATOM     11  O   UNL     1      -2.426   3.807  -0.008  0.00  0.00    -0.478 OA
ENDROOT
BRANCH   1  13
ATOM     12  C   UNL     1      -3.445   4.787   2.545  0.00  0.00    +0.008 C 
ATOM     13  C   UNL     1      -3.370   3.311   2.149  0.00  0.00    +0.051 C 
ENDBRANCH   1  13
BRANCH   7  14
ATOM     14  C   UNL     1       2.489   1.048  -0.015  0.00  0.00    -0.041 C 
BRANCH  14  15
ATOM     15  N   UNL     1       3.427   1.739  -0.911  0.00  0.00    +0.383 N 
ATOM     16  H   UNL     1       4.386   1.202  -0.922  0.00  0.00    -0.089 HD
ATOM     17  H   UNL     1       3.586   2.767  -0.553  0.00  0.00    -0.089 HD
ATOM     18  H   UNL     1       3.009   1.766  -1.928  0.00  0.00    -0.089 HD
ENDBRANCH  14  15
BRANCH  14  19
ATOM     19  C   UNL     1       3.070   1.011   1.400  0.00  0.00    -0.021 C 
ATOM     20  C   UNL     1       4.335   1.828   1.666  0.00  0.00    +0.002 C 
ATOM     21  C   UNL     1       4.412   0.302   1.594  0.00  0.00    +0.002 C 
ENDBRANCH  14  19
ENDBRANCH   7  14
BRANCH   4  22
ATOM     22  C   UNL     1      -2.455  -0.393  -0.219  0.00  0.00    +0.209 C 
BRANCH  22  23
ATOM     23  C   UNL     1      -2.317  -1.125   1.091  0.00  0.00    +0.231 C 
ATOM     24  O   UNL     1      -2.212  -0.502   2.126  0.00  0.00    -0.274 OA
ATOM     25  N   UNL     1      -2.312  -2.473   1.112  0.00  0.00    -0.317 N 
ATOM     26  C   UNL     1      -2.178  -3.185   2.386  0.00  0.00    +0.128 C 
ATOM     27  H   UNL     1      -2.407  -3.039   0.174  0.00  0.00    +0.148 HD
ENDBRANCH  22  23
ENDBRANCH   4  22
TORSDOF 6
