REMARK  Name = ZINC40680595
REMARK  7 active torsions:
REMARK  status: ('A' for Active; 'I' for Inactive)
REMARK    1  A    between atoms: C_1  and  C_2
REMARK    2  A    between atoms: C_2  and  C_3
REMARK    3  A    between atoms: C_2  and  C_4
REMARK    4  A    between atoms: C_2  and  N_5
REMARK    5  A    between atoms: C_7  and  N_20
REMARK    6  A    between atoms: C_8  and  N_12
REMARK    7  A    between atoms: N_12  and  C_13
REMARK                            x       y       z     vdW  Elec       q    Type
REMARK                         _______ _______ _______ _____ _____    ______ ____
ROOT
ATOM      1  N   UNL     1       0.846  -0.795  -0.986  0.00  0.00    -0.323 N 
ATOM      2  C   UNL     1       2.087  -0.273  -1.331  0.00  0.00    +0.145 A 
ATOM      3  C   UNL     1       2.756  -0.727  -2.469  0.00  0.00    +0.105 A 
ATOM      4  C   UNL     1       4.000  -0.169  -2.769  0.00  0.00    +0.149 A 
ATOM      5  N   UNL     1       4.497   0.768  -1.964  0.00  0.00    -0.219 NA
ATOM      6  C   UNL     1       3.832   1.168  -0.900  0.00  0.00    +0.225 A 
ATOM      7  N   UNL     1       2.653   0.671  -0.584  0.00  0.00    -0.219 NA
ATOM      8  H   UNL     1       0.440  -1.484  -1.536  0.00  0.00    +0.148 HD
ENDROOT
BRANCH   1  10
ATOM      9  C   UNL     1      -0.106   1.196   0.068  0.00  0.00    +0.031 C 
ATOM     10  C   UNL     1       0.151  -0.306   0.207  0.00  0.00    +0.025 C 
ATOM     11  C   UNL     1       1.016  -0.564   1.442  0.00  0.00    +0.031 C 
ATOM     12  C   UNL     1      -1.184  -1.040   0.357  0.00  0.00    +0.031 C 
ENDBRANCH   1  10
BRANCH   3  13
ATOM     13  N   UNL     1       2.193  -1.719  -3.289  0.00  0.00    -0.353 N 
ATOM     14  H   UNL     1       1.328  -2.098  -3.068  0.00  0.00    +0.143 HD
ATOM     15  H   UNL     1       2.670  -2.024  -4.077  0.00  0.00    +0.143 HD
ENDBRANCH   3  13
BRANCH   4  16
ATOM     16  N   UNL     1       4.708  -0.586  -3.890  0.00  0.00    -0.298 N 
ATOM     17  H   UNL     1       4.305  -1.207  -4.516  0.00  0.00    +0.154 HD
BRANCH  16  18
ATOM     18  C   UNL     1       6.003  -0.109  -4.115  0.00  0.00    +0.032 A 
ATOM     19  C   UNL     1       6.439   0.136  -5.411  0.00  0.00    +0.024 A 
ATOM     20  C   UNL     1       7.718   0.607  -5.630  0.00  0.00    +0.016 A 
ATOM     21  C   UNL     1       8.566   0.834  -4.561  0.00  0.00    +0.013 A 
ATOM     22  C   UNL     1       8.135   0.591  -3.269  0.00  0.00    +0.016 A 
ATOM     23  C   UNL     1       6.855   0.125  -3.043  0.00  0.00    +0.024 A 
ATOM     24  I   UNL     1      10.507   1.548  -4.899  0.00  0.00    -0.044 I 
ENDBRANCH  16  18
ENDBRANCH   4  16
TORSDOF 4
