REMARK  Name = ZINC58903505
REMARK  6 active torsions:
REMARK  status: ('A' for Active; 'I' for Inactive)
REMARK    1  A    between atoms: C_1  and  C_2
REMARK    2  A    between atoms: C_5  and  C_8
REMARK    3  A    between atoms: C_11  and  C_28
REMARK    4  A    between atoms: N_13  and  C_22
REMARK    5  A    between atoms: C_16  and  N_21
REMARK    6  A    between atoms: C_17  and  C_18
REMARK                            x       y       z     vdW  Elec       q    Type
REMARK                         _______ _______ _______ _____ _____    ______ ____
ROOT
ATOM      1  C   UNL     1       0.081  -4.080   0.090  0.00  0.00    +0.096 C 
ATOM      2  C   UNL     1      -1.149  -4.645   0.752  0.00  0.00    +0.049 A 
ATOM      3  C   UNL     1      -2.483  -4.517   0.386  0.00  0.00    +0.068 A 
ATOM      4  N   UNL     1      -3.213  -5.175   1.254  0.00  0.00    -0.168 NA
ATOM      5  N   UNL     1      -2.359  -5.749   2.209  0.00  0.00    -0.200 N 
ATOM      6  C   UNL     1      -1.092  -5.412   1.883  0.00  0.00    +0.230 A 
ATOM      7  O   UNL     1       0.075  -5.728   2.496  0.00  0.00    -0.423 OA
ATOM      8  C   UNL     1       1.218  -5.500   1.819  0.00  0.00    +0.195 C 
ATOM      9  C   UNL     1       1.291  -4.747   0.696  0.00  0.00    +0.083 C 
ATOM     10  C   UNL     1      -3.001  -3.752  -0.805  0.00  0.00    +0.068 C 
ENDROOT
BRANCH   1  15
ATOM     11  C   UNL     1       0.334   1.621   0.996  0.00  0.00    +0.044 C 
ATOM     12  C   UNL     1       0.269   0.135   0.760  0.00  0.00    -0.050 A 
ATOM     13  C   UNL     1       0.220  -0.359  -0.530  0.00  0.00    +0.003 A 
ATOM     14  C   UNL     1       0.159  -1.723  -0.747  0.00  0.00    +0.005 A 
ATOM     15  C   UNL     1       0.148  -2.593   0.327  0.00  0.00    -0.035 A 
ATOM     16  C   UNL     1       0.198  -2.100   1.617  0.00  0.00    +0.005 A 
ATOM     17  C   UNL     1       0.263  -0.736   1.834  0.00  0.00    +0.003 A 
ENDBRANCH   1  15
BRANCH   5  18
ATOM     18  C   UNL     1      -2.750  -6.530   3.305  0.00  0.00    +0.069 A 
ATOM     19  C   UNL     1      -1.948  -7.579   3.733  0.00  0.00    +0.028 A 
ATOM     20  C   UNL     1      -2.336  -8.348   4.813  0.00  0.00    +0.002 A 
ATOM     21  C   UNL     1      -3.523  -8.074   5.468  0.00  0.00    +0.000 A 
ATOM     22  C   UNL     1      -4.325  -7.030   5.043  0.00  0.00    +0.002 A 
ATOM     23  C   UNL     1      -3.938  -6.254   3.968  0.00  0.00    +0.028 A 
ENDBRANCH   5  18
BRANCH   9  24
ATOM     24  C   UNL     1       2.538  -4.581   0.071  0.00  0.00    +0.243 C 
ATOM     25  O   UNL     1       2.814  -5.234  -0.920  0.00  0.00    -0.271 OA
ATOM     26  N   UNL     1       3.429  -3.701   0.568  0.00  0.00    -0.325 N 
ATOM     27  H   UNL     1       3.210  -3.182   1.358  0.00  0.00    +0.145 HD
ATOM     28  H   UNL     1       4.291  -3.587   0.137  0.00  0.00    +0.145 HD
ENDBRANCH   9  24
BRANCH   8  29
ATOM     29  N   UNL     1       2.373  -6.061   2.296  0.00  0.00    -0.329 N 
ATOM     30  H   UNL     1       2.370  -6.531   3.144  0.00  0.00    +0.145 HD
ATOM     31  H   UNL     1       3.194  -5.989   1.784  0.00  0.00    +0.145 HD
ENDBRANCH   8  29
TORSDOF 4
