REMARK  Name = ZINC49007738
REMARK  8 active torsions:
REMARK  status: ('A' for Active; 'I' for Inactive)
REMARK    1  A    between atoms: C_1  and  C_2
REMARK    2  A    between atoms: C_3  and  N_22
REMARK    3  A    between atoms: C_4  and  C_21
REMARK    4  A    between atoms: N_5  and  C_7
REMARK    5  A    between atoms: C_7  and  C_8
REMARK    6  A    between atoms: N_10  and  C_11
REMARK    7  A    between atoms: N_10  and  C_12
REMARK    8  A    between atoms: C_17  and  C_20
REMARK                            x       y       z     vdW  Elec       q    Type
REMARK                         _______ _______ _______ _____ _____    ______ ____
ROOT
ATOM      1  C   UNL     1       0.053  -3.292   1.496  0.00  0.00    +0.239 C 
ENDROOT
BRANCH   1   6
ATOM      2  C   UNL     1      -0.018   1.503   0.010  0.00  0.00    +0.069 C 
ATOM      3  C   UNL     1       0.002  -0.004   0.002  0.00  0.00    +0.081 A 
ATOM      4  C   UNL     1       0.008  -0.818  -1.139  0.00  0.00    +0.068 A 
ATOM      5  C   UNL     1       0.027  -2.111  -0.728  0.00  0.00    +0.058 A 
ATOM      6  N   UNL     1       0.034  -2.109   0.631  0.00  0.00    -0.258 N 
ATOM      7  N   UNL     1       0.023  -0.775   1.059  0.00  0.00    -0.174 NA
ATOM      8  C   UNL     1       0.040  -3.329  -1.617  0.00  0.00    +0.067 C 
BRANCH   4   9
ATOM      9  N   UNL     1      -0.005  -0.373  -2.475  0.00  0.00    -0.355 N 
ATOM     10  H   UNL     1      -0.018   0.577  -2.670  0.00  0.00    +0.142 HD
ATOM     11  H   UNL     1       0.001  -1.017  -3.201  0.00  0.00    +0.142 HD
ENDBRANCH   4   9
ENDBRANCH   1   6
BRANCH   1  12
ATOM     12  C   UNL     1       1.481  -3.678   1.786  0.00  0.00    +0.237 C 
ATOM     13  O   UNL     1       2.392  -3.030   1.316  0.00  0.00    -0.274 OA
ATOM     14  N   UNL     1       1.745  -4.745   2.566  0.00  0.00    -0.300 N 
ATOM     15  C   UNL     1       0.645  -5.528   3.133  0.00  0.00    +0.132 C 
BRANCH  14  16
ATOM     16  C   UNL     1       3.133  -5.120   2.848  0.00  0.00    +0.076 C 
ATOM     17  C   UNL     1       3.380  -5.066   4.357  0.00  0.00    +0.022 C 
ATOM     18  C   UNL     1       4.829  -5.458   4.652  0.00  0.00    +0.002 C 
ATOM     19  C   UNL     1       5.086  -6.878   4.143  0.00  0.00    +0.003 C 
ATOM     20  C   UNL     1       4.840  -6.932   2.634  0.00  0.00    -0.012 C 
ATOM     21  C   UNL     1       3.390  -6.540   2.340  0.00  0.00    +0.025 C 
ATOM     22  C   UNL     1       5.097  -8.352   2.126  0.00  0.00    +0.007 C 
ENDBRANCH  14  16
ENDBRANCH   1  12
TORSDOF 4
