REMARK  Name = ZINC38040417
REMARK  4 active torsions:
REMARK  status: ('A' for Active; 'I' for Inactive)
REMARK    1  A    between atoms: C_2  and  N_18
REMARK    2  A    between atoms: C_5  and  S_8
REMARK    3  A    between atoms: S_8  and  C_9
REMARK    4  A    between atoms: N_13  and  C_14
REMARK                            x       y       z     vdW  Elec       q    Type
REMARK                         _______ _______ _______ _____ _____    ______ ____
ROOT
ATOM      1  C   UNL     1      -0.017   1.379   0.010  0.00  0.00    +0.062 A 
ATOM      2  C   UNL     1       1.176   2.090   0.002  0.00  0.00    +0.030 A 
ATOM      3  C   UNL     1       2.389   1.413  -0.014  0.00  0.00    +0.062 A 
ATOM      4  C   UNL     1       2.409   0.030  -0.022  0.00  0.00    +0.142 A 
ATOM      5  C   UNL     1       1.215  -0.682  -0.014  0.00  0.00    +0.086 A 
ATOM      6  C   UNL     1       0.002  -0.004   0.002  0.00  0.00    +0.142 A 
ATOM      7  F   UNL     1      -1.159  -0.696   0.009  0.00  0.00    -0.204 F 
ATOM      8  F   UNL     1       3.589  -0.628  -0.038  0.00  0.00    -0.204 F 
ENDROOT
BRANCH   2   9
ATOM      9  N   UNL     1       1.157   3.489   0.010  0.00  0.00    -0.358 N 
ATOM     10  H   UNL     1       0.310   3.962   0.020  0.00  0.00    +0.142 HD
ATOM     11  H   UNL     1       1.990   3.986   0.004  0.00  0.00    +0.142 HD
ENDBRANCH   2   9
BRANCH   5  12
ATOM     12  S   UNL     1       1.240  -2.444  -0.025  0.00  0.00    -0.043 S 
BRANCH  12  13
ATOM     13  C   UNL     1       1.264  -2.881   1.682  0.00  0.00    +0.214 A 
ATOM     14  N   UNL     1       1.257  -2.049   2.702  0.00  0.00    -0.101 NA
ATOM     15  N   UNL     1       1.278  -2.697   3.811  0.00  0.00    -0.022 NA
ATOM     16  N   UNL     1       1.301  -3.967   3.587  0.00  0.00    -0.043 NA
ATOM     17  N   UNL     1       1.287  -4.135   2.192  0.00  0.00    -0.217 N 
BRANCH  17  18
ATOM     18  C   UNL     1       1.298  -5.397   1.448  0.00  0.00    +0.112 C 
ATOM     19  C   UNL     1       1.121  -6.690   2.247  0.00  0.00    +0.029 C 
ATOM     20  C   UNL     1       2.489  -6.333   1.663  0.00  0.00    +0.029 C 
ENDBRANCH  17  18
ENDBRANCH  12  13
ENDBRANCH   5  12
TORSDOF 4
