REMARK  Name = ZINC66397056
REMARK  11 active torsions:
REMARK  status: ('A' for Active; 'I' for Inactive)
REMARK    1  A    between atoms: C_1  and  C_2
REMARK    2  A    between atoms: C_2  and  C_3
REMARK    3  A    between atoms: C_2  and  C_4
REMARK    4  A    between atoms: C_2  and  C_5
REMARK    5  A    between atoms: C_8  and  C_11
REMARK    6  A    between atoms: C_11  and  C_13
REMARK    7  A    between atoms: C_11  and  N_15
REMARK    8  A    between atoms: C_16  and  C_18
REMARK    9  A    between atoms: C_21  and  N_24
REMARK   10  A    between atoms: C_25  and  N_31
REMARK   11  A    between atoms: C_26  and  C_29
REMARK                            x       y       z     vdW  Elec       q    Type
REMARK                         _______ _______ _______ _____ _____    ______ ____
ROOT
ATOM      1  N   UNL     1       4.082  -2.245  -4.415  0.00  0.00    -0.292 N 
ATOM      2  C   UNL     1       4.739  -3.145  -5.173  0.00  0.00    +0.245 C 
ATOM      3  O   UNL     1       4.191  -3.644  -6.137  0.00  0.00    -0.270 OA
ATOM      4  H   UNL     1       4.519  -1.848  -3.646  0.00  0.00    +0.151 HD
ENDROOT
BRANCH   2   5
ATOM      5  C   UNL     1       6.124  -3.526  -4.833  0.00  0.00    +0.037 A 
ATOM      6  C   UNL     1       6.754  -2.958  -3.723  0.00  0.00    +0.015 A 
ATOM      7  C   UNL     1       8.046  -3.315  -3.408  0.00  0.00    +0.028 A 
ATOM      8  C   UNL     1       8.725  -4.240  -4.195  0.00  0.00    +0.067 A 
ATOM      9  C   UNL     1       8.101  -4.807  -5.301  0.00  0.00    +0.028 A 
ATOM     10  C   UNL     1       6.807  -4.458  -5.618  0.00  0.00    +0.015 A 
BRANCH   8  11
ATOM     11  N   UNL     1      10.036  -4.600  -3.873  0.00  0.00    -0.218 N 
ATOM     12  C   UNL     1      10.587  -5.831  -4.040  0.00  0.00    +0.137 A 
ATOM     13  C   UNL     1      11.903  -5.751  -3.594  0.00  0.00    +0.111 A 
ATOM     14  C   UNL     1      12.113  -4.423  -3.155  0.00  0.00    +0.155 A 
ATOM     15  N   UNL     1      11.008  -3.753  -3.330  0.00  0.00    -0.172 NA
BRANCH  12  16
ATOM     16  N   UNL     1       9.960  -6.949  -4.554  0.00  0.00    -0.342 N 
ATOM     17  H   UNL     1       9.033  -6.898  -4.837  0.00  0.00    +0.144 HD
ATOM     18  H   UNL     1      10.445  -7.785  -4.631  0.00  0.00    +0.144 HD
ENDBRANCH  12  16
BRANCH  13  19
ATOM     19  C   UNL     1      12.864  -6.813  -3.582  0.00  0.00    +0.104 C 
ATOM     20  N   UNL     1      13.626  -7.656  -3.573  0.00  0.00    -0.191 NA
ENDBRANCH  13  19
ENDBRANCH   8  11
ENDBRANCH   2   5
BRANCH   1  21
ATOM     21  C   UNL     1       2.707  -1.868  -4.752  0.00  0.00    +0.207 C 
BRANCH  21  25
ATOM     22  C   UNL     1       0.707  -0.490  -1.238  0.00  0.00    -0.042 A 
ATOM     23  C   UNL     1       0.036  -1.284  -2.148  0.00  0.00    +0.004 A 
ATOM     24  C   UNL     1       0.683  -1.730  -3.286  0.00  0.00    +0.007 A 
ATOM     25  C   UNL     1       2.001  -1.381  -3.513  0.00  0.00    -0.013 A 
ATOM     26  C   UNL     1       2.672  -0.586  -2.603  0.00  0.00    +0.007 A 
ATOM     27  C   UNL     1       2.024  -0.137  -1.467  0.00  0.00    +0.004 A 
BRANCH  22  29
ATOM     28  C   UNL     1      -0.019   1.526   0.010  0.00  0.00    +0.015 C 
ATOM     29  C   UNL     1       0.002  -0.004   0.002  0.00  0.00    -0.013 C 
ATOM     30  C   UNL     1       0.742  -0.511   1.242  0.00  0.00    +0.015 C 
ATOM     31  C   UNL     1      -1.433  -0.534   0.013  0.00  0.00    +0.015 C 
ENDBRANCH  22  29
ENDBRANCH  21  25
BRANCH  21  32
ATOM     32  C   UNL     1       2.726  -0.795  -5.760  0.00  0.00    +0.090 C 
ATOM     33  N   UNL     1       2.740   0.033  -6.537  0.00  0.00    -0.194 NA
ENDBRANCH  21  32
ENDBRANCH   1  21
TORSDOF 8
