REMARK  Name = ZINC20984180
REMARK  6 active torsions:
REMARK  status: ('A' for Active; 'I' for Inactive)
REMARK    1  A    between atoms: C_1  and  C_2
REMARK    2  A    between atoms: N_13  and  C_26
REMARK    3  A    between atoms: C_14  and  S_16
REMARK    4  A    between atoms: S_16  and  C_17
REMARK    5  A    between atoms: C_17  and  C_19
REMARK    6  A    between atoms: C_17  and  C_20
REMARK                            x       y       z     vdW  Elec       q    Type
REMARK                         _______ _______ _______ _____ _____    ______ ____
ROOT
ATOM      1  C   UNL     1       3.680   0.030   2.300  0.00  0.00    +0.008 C 
ATOM      2  C   UNL     1       2.320   0.711   2.134  0.00  0.00    -0.009 C 
ATOM      3  C   UNL     1       1.328  -0.268   1.500  0.00  0.00    +0.008 C 
ATOM      4  C   UNL     1      -0.085   0.312   1.561  0.00  0.00    +0.037 C 
ATOM      5  C   UNL     1      -0.071   1.714   0.957  0.00  0.00    -0.023 A 
ATOM      6  C   UNL     1       1.090   2.394   0.825  0.00  0.00    -0.004 A 
ATOM      7  S   UNL     1       0.640   3.947   0.092  0.00  0.00    -0.073 S 
ATOM      8  C   UNL     1      -1.100   3.684  -0.034  0.00  0.00    +0.117 A 
ATOM      9  C   UNL     1      -1.277   2.389   0.506  0.00  0.00    +0.076 A 
ATOM     10  C   UNL     1      -2.614   1.875   0.550  0.00  0.00    +0.268 A 
ATOM     11  O   UNL     1      -2.867   0.768   0.993  0.00  0.00    -0.267 OA
ATOM     12  N   UNL     1      -3.579   2.694   0.069  0.00  0.00    -0.255 N 
ATOM     13  C   UNL     1      -3.317   3.935  -0.432  0.00  0.00    +0.178 A 
ATOM     14  N   UNL     1      -2.091   4.437  -0.496  0.00  0.00    -0.215 NA
ATOM     15  C   UNL     1       2.461   1.932   1.214  0.00  0.00    +0.046 C 
ENDROOT
BRANCH  12  16
ATOM     16  C   UNL     1      -4.906   2.246   0.085  0.00  0.00    +0.052 A 
ATOM     17  C   UNL     1      -5.710   2.493   1.190  0.00  0.00    +0.028 A 
ATOM     18  C   UNL     1      -7.019   2.054   1.202  0.00  0.00    +0.022 A 
ATOM     19  C   UNL     1      -7.528   1.360   0.118  0.00  0.00    +0.041 A 
ATOM     20  C   UNL     1      -6.727   1.107  -0.982  0.00  0.00    +0.022 A 
ATOM     21  C   UNL     1      -5.419   1.548  -1.001  0.00  0.00    +0.028 A 
ATOM     22 CL   UNL     1      -9.172   0.804   0.139  0.00  0.00    -0.084 Cl
ENDBRANCH  12  16
BRANCH  13  23
ATOM     23  S   UNL     1      -4.660   4.906  -1.030  0.00  0.00    -0.075 S 
BRANCH  23  24
ATOM     24  C   UNL     1      -3.766   6.391  -1.552  0.00  0.00    +0.137 C 
ATOM     25  C   UNL     1      -2.831   6.043  -2.711  0.00  0.00    +0.029 C 
BRANCH  24  26
ATOM     26  C   UNL     1      -4.752   7.439  -1.999  0.00  0.00    +0.233 C 
ATOM     27  O   UNL     1      -5.877   7.117  -2.317  0.00  0.00    -0.274 OA
ATOM     28  N   UNL     1      -4.383   8.735  -2.047  0.00  0.00    -0.239 N 
ATOM     29  C   UNL     1      -5.265   9.672  -2.447  0.00  0.00    +0.303 C 
ATOM     30  O   UNL     1      -6.393   9.350  -2.765  0.00  0.00    -0.253 OA
ATOM     31  N   UNL     1      -4.896  10.968  -2.495  0.00  0.00    -0.313 N 
ATOM     32  H   UNL     1      -3.362   9.027  -1.759  0.00  0.00    +0.159 HD
ATOM     33  H   UNL     1      -5.616  11.733  -2.821  0.00  0.00    +0.146 HD
ATOM     34  H   UNL     1      -3.875  11.260  -2.207  0.00  0.00    +0.146 HD
ENDBRANCH  24  26
ENDBRANCH  23  24
ENDBRANCH  13  23
TORSDOF 4
