REMARK  Name = ZINC64491679
REMARK  6 active torsions:
REMARK  status: ('A' for Active; 'I' for Inactive)
REMARK    1  A    between atoms: C_1  and  C_2
REMARK    2  A    between atoms: C_2  and  N_3
REMARK    3  A    between atoms: C_7  and  C_14
REMARK    4  A    between atoms: C_17  and  C_21
REMARK    5  A    between atoms: C_22  and  C_27
REMARK    6  A    between atoms: C_24  and  C_26
REMARK                            x       y       z     vdW  Elec       q    Type
REMARK                         _______ _______ _______ _____ _____    ______ ____
ROOT
ATOM      1  C   UNL     1      -5.136  -1.915   3.973  0.00  0.00    +0.180 C 
ATOM      2  N   UNL     1      -4.505  -2.450   5.199  0.00  0.00    -0.265 NA
ATOM      3  C   UNL     1      -4.981  -3.846   5.333  0.00  0.00    +0.250 C 
ATOM      4  O   UNL     1      -6.228  -3.882   4.604  0.00  0.00    -0.274 OA
ATOM      5  N   UNL     1      -5.967  -3.016   3.431  0.00  0.00    -0.177 NA
ATOM      6  H   UNL     1      -3.499  -2.416   5.132  0.00  0.00    +0.127 HD
ATOM      7  H   UNL     1      -6.828  -2.662   3.043  0.00  0.00    +0.156 HD
ENDROOT
BRANCH   1  12
ATOM      8  N   UNL     1      -1.372  -0.511   0.012  0.00  0.00    -0.292 N 
ATOM      9  C   UNL     1      -2.128  -0.794   1.148  0.00  0.00    +0.070 A 
ATOM     10  C   UNL     1      -1.873  -0.705   2.507  0.00  0.00    +0.028 A 
ATOM     11  C   UNL     1      -2.848  -1.068   3.416  0.00  0.00    +0.009 A 
ATOM     12  C   UNL     1      -4.079  -1.521   2.974  0.00  0.00    -0.012 A 
ATOM     13  C   UNL     1      -4.343  -1.614   1.621  0.00  0.00    +0.034 A 
ATOM     14  C   UNL     1      -3.370  -1.251   0.702  0.00  0.00    +0.067 A 
ATOM     15  N   UNL     1      -3.330  -1.231  -0.690  0.00  0.00    -0.306 N 
ATOM     16  H   UNL     1      -4.052  -1.495  -1.282  0.00  0.00    +0.170 HD
ATOM     17  C   UNL     1      -2.122  -0.778  -1.074  0.00  0.00    +0.328 A 
ATOM     18  O   UNL     1      -1.761  -0.634  -2.227  0.00  0.00    -0.247 OA
BRANCH   8  20
ATOM     19  C   UNL     1      -0.019   1.526   0.010  0.00  0.00    +0.027 C 
ATOM     20  C   UNL     1       0.002  -0.004   0.002  0.00  0.00    +0.123 C 
ENDBRANCH   8  20
ENDBRANCH   1  12
BRANCH   3  21
ATOM     21  C   UNL     1      -5.208  -4.185   6.784  0.00  0.00    +0.057 A 
ATOM     22  C   UNL     1      -6.089  -5.054   7.343  0.00  0.00    +0.053 A 
ATOM     23  N   UNL     1      -6.075  -5.156   8.657  0.00  0.00    -0.249 NA
ATOM     24  C   UNL     1      -5.248  -4.449   9.387  0.00  0.00    +0.076 A 
ATOM     25  S   UNL     1      -4.390  -3.561   8.243  0.00  0.00    -0.073 S 
ATOM     26  C   UNL     1      -5.096  -4.439  10.886  0.00  0.00    +0.073 C 
ATOM     27  C   UNL     1      -7.040  -5.865   6.500  0.00  0.00    +0.066 C 
ENDBRANCH   3  21
TORSDOF 3
