REMARK  Name = ZINC00475990
REMARK  7 active torsions:
REMARK  status: ('A' for Active; 'I' for Inactive)
REMARK    1  A    between atoms: C_1  and  C_2
REMARK    2  A    between atoms: C_4  and  C_24
REMARK    3  A    between atoms: C_5  and  N_9
REMARK    4  A    between atoms: C_6  and  C_8
REMARK    5  A    between atoms: C_10  and  C_23
REMARK    6  A    between atoms: C_12  and  C_15
REMARK    7  A    between atoms: C_13  and  C_14
REMARK                            x       y       z     vdW  Elec       q    Type
REMARK                         _______ _______ _______ _____ _____    ______ ____
ROOT
ATOM      1  N   UNL     1       1.841   1.042  -0.694  0.00  0.00    -0.317 N 
ATOM      2  C   UNL     1       0.984   2.062  -0.390  0.00  0.00    +0.022 A 
ATOM      3  C   UNL     1      -0.222   1.550  -0.089  0.00  0.00    +0.031 A 
ATOM      4  C   UNL     1      -0.103   0.092  -0.218  0.00  0.00    -0.002 A 
ATOM      5  C   UNL     1       1.202  -0.152  -0.596  0.00  0.00    +0.028 A 
ATOM      6  C   UNL     1       1.811  -1.506  -0.854  0.00  0.00    +0.064 C 
ATOM      7  C   UNL     1       1.335   3.527  -0.391  0.00  0.00    +0.064 C 
ENDROOT
BRANCH   4   8
ATOM      8  C   UNL     1      -1.157  -0.902   0.008  0.00  0.00    +0.038 C 
ATOM      9  C   UNL     1      -2.278  -0.560   0.696  0.00  0.00    +0.098 C 
ATOM     10  C   UNL     1      -3.486  -1.370   0.890  0.00  0.00    +0.266 C 
ATOM     11  O   UNL     1      -3.689  -2.493   0.466  0.00  0.00    -0.268 OA
ATOM     12  N   UNL     1      -4.325  -0.623   1.636  0.00  0.00    -0.235 N 
ATOM     13  C   UNL     1      -3.759   0.562   1.910  0.00  0.00    +0.311 C 
ATOM     14  O   UNL     1      -4.286   1.444   2.562  0.00  0.00    -0.252 OA
ATOM     15  N   UNL     1      -2.531   0.646   1.367  0.00  0.00    -0.265 N 
ATOM     16  H   UNL     1      -5.208  -0.899   1.927  0.00  0.00    +0.159 HD
ATOM     17  H   UNL     1      -1.929   1.404   1.429  0.00  0.00    +0.157 HD
ENDBRANCH   4   8
BRANCH   1  22
ATOM     18  C   UNL     1       7.284   1.702  -2.157  0.00  0.00    +0.044 C 
ATOM     19  C   UNL     1       5.839   1.526  -1.768  0.00  0.00    -0.050 A 
ATOM     20  C   UNL     1       4.858   1.521  -2.743  0.00  0.00    +0.008 A 
ATOM     21  C   UNL     1       3.533   1.361  -2.390  0.00  0.00    -0.026 A 
ATOM     22  C   UNL     1       3.185   1.204  -1.055  0.00  0.00    +0.052 A 
ATOM     23  C   UNL     1       4.171   1.215  -0.078  0.00  0.00    -0.026 A 
ATOM     24  C   UNL     1       5.496   1.370  -0.438  0.00  0.00    +0.008 A 
ATOM     25  C   UNL     1       3.798   1.052   1.372  0.00  0.00    +0.046 C 
ATOM     26  C   UNL     1       2.464   1.356  -3.454  0.00  0.00    +0.046 C 
ENDBRANCH   1  22
TORSDOF 2
