REMARK  Name = ZINC51894162
REMARK  5 active torsions:
REMARK  status: ('A' for Active; 'I' for Inactive)
REMARK    1  A    between atoms: C_3  and  C_9
REMARK    2  A    between atoms: C_4  and  O_8
REMARK    3  A    between atoms: C_15  and  C_18
REMARK    4  A    between atoms: C_18  and  C_19
REMARK    5  A    between atoms: C_19  and  O_20
REMARK                            x       y       z     vdW  Elec       q    Type
REMARK                         _______ _______ _______ _____ _____    ______ ____
ROOT
ATOM      1  C   UNL     1       3.652   2.171  -0.022  0.00  0.00    +0.250 C 
ATOM      2  O   UNL     1       4.711   1.582   0.072  0.00  0.00    -0.270 OA
ATOM      3  N   UNL     1       3.634   3.515  -0.116  0.00  0.00    -0.297 N 
ATOM      4  C   UNL     1       2.362   4.250  -0.096  0.00  0.00    +0.108 C 
ATOM      5  C   UNL     1       2.430   5.323   0.996  0.00  0.00    +0.019 C 
ATOM      6  C   UNL     1       3.661   6.202   0.766  0.00  0.00    +0.006 C 
ATOM      7  C   UNL     1       4.926   5.345   0.851  0.00  0.00    +0.009 C 
ATOM      8  C   UNL     1       4.887   4.274  -0.236  0.00  0.00    +0.111 C 
ENDROOT
BRANCH   1  11
ATOM      9  C   UNL     1       0.286   0.886  -1.071  0.00  0.00    +0.016 A 
ATOM     10  C   UNL     1       1.467   1.596  -1.067  0.00  0.00    +0.018 A 
ATOM     11  C   UNL     1       2.386   1.414  -0.031  0.00  0.00    +0.078 A 
ATOM     12  C   UNL     1       2.099   0.508   1.000  0.00  0.00    +0.130 A 
ATOM     13  C   UNL     1       0.906  -0.198   0.981  0.00  0.00    +0.061 A 
ATOM     14  C   UNL     1       0.005  -0.009  -0.050  0.00  0.00    +0.021 A 
ATOM     15 BR   UNL     1      -1.620  -0.976  -0.069  0.00  0.00    -0.050 Br
BRANCH  12  16
ATOM     16  O   UNL     1       2.984   0.323   2.010  0.00  0.00    -0.506 OA
ATOM     17  H   UNL     1       2.851   0.915   2.763  0.00  0.00    +0.292 HD
ENDBRANCH  12  16
ENDBRANCH   1  11
BRANCH   7  18
ATOM     18  C   UNL     1       6.158   6.231   0.654  0.00  0.00    +0.033 C 
BRANCH  18  19
ATOM     19  C   UNL     1       7.424   5.398   0.864  0.00  0.00    +0.156 C 
BRANCH  19  20
ATOM     20  O   UNL     1       8.574   6.226   0.680  0.00  0.00    -0.395 OA
ATOM     21  H   UNL     1       9.415   5.763   0.797  0.00  0.00    +0.209 HD
ENDBRANCH  19  20
ENDBRANCH  18  19
ENDBRANCH   7  18
TORSDOF 5
