REMARK  Name = ZINC40758142
REMARK  5 active torsions:
REMARK  status: ('A' for Active; 'I' for Inactive)
REMARK    1  A    between atoms: C_1  and  C_2
REMARK    2  A    between atoms: C_7  and  N_8
REMARK    3  A    between atoms: C_10  and  N_24
REMARK    4  A    between atoms: C_11  and  N_15
REMARK    5  A    between atoms: N_15  and  C_16
REMARK                            x       y       z     vdW  Elec       q    Type
REMARK                         _______ _______ _______ _____ _____    ______ ____
ROOT
ATOM      1  N   UNL     1       1.179   0.037   2.542  0.00  0.00    -0.283 N 
ATOM      2  C   UNL     1       0.949  -0.683   3.709  0.00  0.00    +0.150 A 
ATOM      3  C   UNL     1       0.616  -0.024   4.894  0.00  0.00    +0.106 A 
ATOM      4  C   UNL     1       0.395  -0.795   6.037  0.00  0.00    +0.149 A 
ATOM      5  N   UNL     1       0.509  -2.119   5.954  0.00  0.00    -0.219 NA
ATOM      6  C   UNL     1       0.826  -2.701   4.815  0.00  0.00    +0.225 A 
ATOM      7  N   UNL     1       1.038  -2.011   3.713  0.00  0.00    -0.219 NA
ATOM      8  H   UNL     1       1.113   1.005   2.547  0.00  0.00    +0.155 HD
ENDROOT
BRANCH   1  15
ATOM      9  C   UNL     1       1.632   1.599   0.206  0.00  0.00    +0.047 C 
ATOM     10  C   UNL     1       1.734   0.096   0.201  0.00  0.00    -0.010 A 
ATOM     11  C   UNL     1       2.062  -0.581  -0.960  0.00  0.00    +0.008 A 
ATOM     12  C   UNL     1       2.146  -1.966  -0.919  0.00  0.00    +0.020 A 
ATOM     13  C   UNL     1       1.901  -2.623   0.270  0.00  0.00    +0.113 A 
ATOM     14  N   UNL     1       1.589  -1.952   1.363  0.00  0.00    -0.240 NA
ATOM     15  C   UNL     1       1.505  -0.630   1.365  0.00  0.00    +0.127 A 
ENDBRANCH   1  15
BRANCH   3  16
ATOM     16  N   UNL     1       0.506   1.375   4.936  0.00  0.00    -0.353 N 
ATOM     17  H   UNL     1       0.663   1.897   4.134  0.00  0.00    +0.143 HD
ATOM     18  H   UNL     1       0.274   1.819   5.766  0.00  0.00    +0.143 HD
ENDBRANCH   3  16
BRANCH   4  19
ATOM     19  N   UNL     1       0.060  -0.190   7.243  0.00  0.00    -0.296 N 
ATOM     20  H   UNL     1      -0.114   0.764   7.275  0.00  0.00    +0.154 HD
BRANCH  19  21
ATOM     21  C   UNL     1      -0.024  -0.956   8.411  0.00  0.00    +0.068 A 
ATOM     22  C   UNL     1       0.590  -2.200   8.472  0.00  0.00    +0.027 A 
ATOM     23  C   UNL     1       0.505  -2.955   9.626  0.00  0.00    +0.017 A 
ATOM     24  C   UNL     1      -0.190  -2.473  10.721  0.00  0.00    +0.021 A 
ATOM     25  C   UNL     1      -0.804  -1.234  10.664  0.00  0.00    +0.055 A 
ATOM     26  C   UNL     1      -0.717  -0.471   9.514  0.00  0.00    +0.145 A 
ATOM     27  F   UNL     1      -1.311   0.741   9.461  0.00  0.00    -0.204 F 
ATOM     28 BR   UNL     1      -0.303  -3.510  12.298  0.00  0.00    -0.050 Br
ENDBRANCH  19  21
ENDBRANCH   4  19
TORSDOF 4
