REMARK  Name = ZINC58130457
REMARK  7 active torsions:
REMARK  status: ('A' for Active; 'I' for Inactive)
REMARK    1  A    between atoms: C_1  and  C_2
REMARK    2  A    between atoms: C_2  and  C_3
REMARK    3  A    between atoms: C_3  and  C_5
REMARK    4  A    between atoms: C_3  and  N_22
REMARK    5  A    between atoms: C_15  and  N_17
REMARK    6  A    between atoms: N_17  and  S_18
REMARK    7  A    between atoms: S_18  and  C_21
REMARK                            x       y       z     vdW  Elec       q    Type
REMARK                         _______ _______ _______ _____ _____    ______ ____
ROOT
ATOM      1  C   UNL     1       0.870  -2.011   1.172  0.00  0.00    -0.059 A 
ATOM      2  C   UNL     1       2.057  -2.584   0.761  0.00  0.00    +0.011 A 
ATOM      3  C   UNL     1       2.183  -3.962   0.693  0.00  0.00    +0.016 A 
ATOM      4  C   UNL     1       1.113  -4.769   1.037  0.00  0.00    +0.160 A 
ATOM      5  C   UNL     1      -0.083  -4.188   1.454  0.00  0.00    +0.165 A 
ATOM      6  C   UNL     1      -0.199  -2.813   1.525  0.00  0.00    +0.044 A 
ATOM      7  F   UNL     1      -1.129  -4.971   1.795  0.00  0.00    -0.202 F 
ATOM      8  O   UNL     1       1.188  -6.124   0.974  0.00  0.00    -0.489 OA
ATOM      9  C   UNL     1       2.486  -6.718   0.911  0.00  0.00    +0.231 C 
ATOM     10  C   UNL     1       3.292  -6.005  -0.183  0.00  0.00    +0.066 C 
ATOM     11  C   UNL     1       3.497  -4.550   0.244  0.00  0.00    +0.113 C 
ENDROOT
BRANCH  11  12
ATOM     12  N   UNL     1       4.014  -3.778  -0.889  0.00  0.00    -0.187 NA
ATOM     13  H   UNL     1       3.400  -3.401  -1.540  0.00  0.00    +0.148 HD
BRANCH  12  14
ATOM     14  S   UNL     1       5.645  -3.549  -1.060  0.00  0.00    +0.027 S 
ATOM     15  O   UNL     1       5.779  -2.753  -2.229  0.00  0.00    -0.158 OA
ATOM     16  O   UNL     1       6.077  -3.061   0.203  0.00  0.00    -0.158 OA
ATOM     17  C   UNL     1       6.320  -5.207  -1.353  0.00  0.00    +0.214 C 
ENDBRANCH  12  14
ENDBRANCH  11  12
BRANCH   1  18
ATOM     18  C   UNL     1       0.742  -0.511   1.242  0.00  0.00    -0.044 C 
BRANCH  18  19
ATOM     19  N   UNL     1      -0.010  -0.139   2.447  0.00  0.00    +0.383 N 
ATOM     20  H   UNL     1      -0.929  -0.554   2.411  0.00  0.00    -0.089 HD
ATOM     21  H   UNL     1       0.478  -0.473   3.265  0.00  0.00    -0.089 HD
ATOM     22  H   UNL     1      -0.096   0.865   2.494  0.00  0.00    -0.089 HD
ENDBRANCH  18  19
BRANCH  18  24
ATOM     23  C   UNL     1      -0.019   1.526   0.010  0.00  0.00    +0.002 C 
ATOM     24  C   UNL     1       0.002  -0.004   0.002  0.00  0.00    -0.015 C 
ENDBRANCH  18  24
ENDBRANCH   1  18
TORSDOF 5
