REMARK  Name = ZINC50832108
REMARK  4 active torsions:
REMARK  status: ('A' for Active; 'I' for Inactive)
REMARK    1  A    between atoms: C_4  and  O_8
REMARK    2  A    between atoms: O_8  and  C_9
REMARK    3  A    between atoms: C_9  and  C_10
REMARK    4  A    between atoms: C_11  and  N_15
REMARK                            x       y       z     vdW  Elec       q    Type
REMARK                         _______ _______ _______ _____ _____    ______ ____
ROOT
ATOM      1  O   UNL     1       3.587  -0.632  -0.037  0.00  0.00    -0.484 OA
ENDROOT
BRANCH   1   5
ATOM      2  C   UNL     1      -0.017   1.378   0.010  0.00  0.00    +0.002 A 
ATOM      3  C   UNL     1       1.170   2.088   0.002  0.00  0.00    +0.019 A 
ATOM      4  C   UNL     1       2.378   1.418  -0.013  0.00  0.00    +0.061 A 
ATOM      5  C   UNL     1       2.400   0.030  -0.021  0.00  0.00    +0.149 A 
ATOM      6  C   UNL     1       1.208  -0.680  -0.013  0.00  0.00    +0.061 A 
ATOM      7  C   UNL     1       0.002  -0.004   0.002  0.00  0.00    +0.019 A 
ATOM      8 BR   UNL     1       1.232  -2.571  -0.023  0.00  0.00    -0.046 Br
ATOM      9 BR   UNL     1       4.000   2.390  -0.025  0.00  0.00    -0.046 Br
ENDBRANCH   1   5
BRANCH   1  10
ATOM     10  C   UNL     1       4.167  -0.955   1.229  0.00  0.00    +0.288 C 
BRANCH  10  11
ATOM     11  C   UNL     1       5.469  -1.682   1.014  0.00  0.00    +0.130 A 
ATOM     12  C   UNL     1       5.526  -3.042   0.907  0.00  0.00    +0.110 A 
ATOM     13  S   UNL     1       7.171  -3.306   0.684  0.00  0.00    +0.051 S 
ATOM     14  N   UNL     1       7.698  -1.716   0.736  0.00  0.00    -0.108 NA
ATOM     15  N   UNL     1       6.612  -1.042   0.914  0.00  0.00    -0.141 NA
BRANCH  12  16
ATOM     16  N   UNL     1       4.490  -3.971   0.967  0.00  0.00    -0.350 N 
ATOM     17  H   UNL     1       3.577  -3.671   1.102  0.00  0.00    +0.143 HD
ATOM     18  H   UNL     1       4.681  -4.917   0.873  0.00  0.00    +0.143 HD
ENDBRANCH  12  16
ENDBRANCH  10  11
ENDBRANCH   1  10
TORSDOF 4
