REMARK  Name = ZINC42362587
REMARK  6 active torsions:
REMARK  status: ('A' for Active; 'I' for Inactive)
REMARK    1  A    between atoms: C_1  and  C_2
REMARK    2  A    between atoms: C_2  and  C_3
REMARK    3  A    between atoms: C_8  and  N_9
REMARK    4  A    between atoms: C_12  and  C_17
REMARK    5  A    between atoms: C_17  and  N_18
REMARK    6  A    between atoms: C_24  and  N_29
REMARK                            x       y       z     vdW  Elec       q    Type
REMARK                         _______ _______ _______ _____ _____    ______ ____
ROOT
ATOM      1  N   UNL     1      -1.506  -0.315  -2.391  0.00  0.00    -0.283 N 
ATOM      2  C   UNL     1      -2.164  -0.547  -3.583  0.00  0.00    +0.224 A 
ATOM      3  N   UNL     1      -1.548  -0.315  -4.740  0.00  0.00    -0.197 NA
ATOM      4  C   UNL     1      -2.176  -0.536  -5.881  0.00  0.00    +0.156 A 
ATOM      5  N   UNL     1      -3.418  -0.988  -5.879  0.00  0.00    -0.198 NA
ATOM      6  C   UNL     1      -4.041  -1.222  -4.726  0.00  0.00    +0.217 A 
ATOM      7  N   UNL     1      -3.410  -1.006  -3.576  0.00  0.00    -0.181 NA
ATOM      8  N   UNL     1      -5.338  -1.694  -4.724  0.00  0.00    -0.327 N 
ATOM      9  H   UNL     1      -0.569  -0.065  -2.395  0.00  0.00    +0.155 HD
ATOM     10  H   UNL     1      -5.796  -1.856  -5.564  0.00  0.00    +0.145 HD
ATOM     11  H   UNL     1      -5.791  -1.865  -3.884  0.00  0.00    +0.145 HD
ENDROOT
BRANCH   1  17
ATOM     12  C   UNL     1      -1.509  -0.816  -0.029  0.00  0.00    -0.026 A 
ATOM     13  C   UNL     1      -2.188  -0.933   1.169  0.00  0.00    +0.005 A 
ATOM     14  C   UNL     1      -3.546  -0.681   1.222  0.00  0.00    +0.000 A 
ATOM     15  C   UNL     1      -4.230  -0.312   0.078  0.00  0.00    +0.002 A 
ATOM     16  C   UNL     1      -3.557  -0.193  -1.122  0.00  0.00    +0.023 A 
ATOM     17  C   UNL     1      -2.191  -0.440  -1.178  0.00  0.00    +0.037 A 
BRANCH  12  19
ATOM     18  C   UNL     1       0.740   0.224   0.065  0.00  0.00    +0.009 C 
ATOM     19  C   UNL     1      -0.028  -1.090  -0.086  0.00  0.00    +0.033 C 
ENDBRANCH  12  19
ENDBRANCH   1  17
BRANCH   4  20
ATOM     20  C   UNL     1      -1.475  -0.273  -7.189  0.00  0.00    +0.202 C 
BRANCH  20  21
ATOM     21  N   UNL     1      -0.775  -1.485  -7.621  0.00  0.00    -0.291 N 
ATOM     22  C   UNL     1       0.508  -1.698  -7.228  0.00  0.00    +0.203 A 
ATOM     23  N   UNL     1       1.194  -2.746  -7.569  0.00  0.00    -0.237 NA
ATOM     24  C   UNL     1       0.667  -3.717  -8.354  0.00  0.00    +0.078 A 
ATOM     25  C   UNL     1       1.404  -4.845  -8.721  0.00  0.00    +0.031 A 
ATOM     26  C   UNL     1       0.828  -5.807  -9.520  0.00  0.00    +0.035 A 
ATOM     27  C   UNL     1      -0.480  -5.670  -9.967  0.00  0.00    +0.127 A 
ATOM     28  C   UNL     1      -1.228  -4.567  -9.619  0.00  0.00    +0.048 A 
ATOM     29  C   UNL     1      -0.663  -3.582  -8.811  0.00  0.00    +0.067 A 
ATOM     30  C   UNL     1      -1.415  -2.386  -8.403  0.00  0.00    +0.262 A 
ATOM     31  O   UNL     1      -2.566  -2.211  -8.758  0.00  0.00    -0.267 OA
BRANCH  27  32
ATOM     32  N   UNL     1      -1.075  -6.719 -10.825  0.00  0.00    +0.056 N 
ATOM     33  O   UNL     1      -0.423  -7.689 -11.134  0.00  0.00    -0.126 OA
ATOM     34  O   UNL     1      -2.212  -6.606 -11.218  0.00  0.00    -0.126 OA
ENDBRANCH  27  32
ENDBRANCH  20  21
ENDBRANCH   4  20
TORSDOF 5
