REMARK  Name = ZINC01267331
REMARK  7 active torsions:
REMARK  status: ('A' for Active; 'I' for Inactive)
REMARK    1  A    between atoms: C_1  and  C_2
REMARK    2  A    between atoms: C_5  and  C_8
REMARK    3  A    between atoms: C_11  and  C_29
REMARK    4  A    between atoms: N_13  and  C_20
REMARK    5  A    between atoms: C_16  and  O_19
REMARK    6  A    between atoms: C_25  and  C_27
REMARK    7  A    between atoms: C_25  and  C_28
REMARK                            x       y       z     vdW  Elec       q    Type
REMARK                         _______ _______ _______ _____ _____    ______ ____
ROOT
ATOM      1  C   UNL     1       0.059  -4.275  -0.021  0.00  0.00    +0.112 C 
ATOM      2  C   UNL     1       1.317  -4.746   0.644  0.00  0.00    +0.036 A 
ATOM      3  C   UNL     1       2.485  -3.964   0.693  0.00  0.00    +0.067 A 
ATOM      4  N   UNL     1       3.412  -4.627   1.323  0.00  0.00    -0.174 NA
ATOM      5  N   UNL     1       2.891  -5.862   1.710  0.00  0.00    -0.243 N 
ATOM      6  C   UNL     1       1.579  -5.926   1.288  0.00  0.00    +0.160 A 
ATOM      7  N   UNL     1       0.813  -7.001   1.539  0.00  0.00    -0.197 NA
ATOM      8  C   UNL     1      -0.366  -7.352   1.306  0.00  0.00    +0.199 C 
ATOM      9  C   UNL     1      -1.428  -6.660   0.546  0.00  0.00    +0.165 C 
ATOM     10  S   UNL     1      -1.424  -4.878   0.793  0.00  0.00    -0.138 S 
ATOM     11  C   UNL     1       2.638  -2.583   0.110  0.00  0.00    +0.068 C 
ENDROOT
BRANCH   5  12
ATOM     12  C   UNL     1       3.612  -6.909   2.437  0.00  0.00    +0.114 C 
ATOM     13  C   UNL     1       4.085  -6.363   3.787  0.00  0.00    +0.055 C 
ATOM     14  C   UNL     1       4.904  -7.439   4.506  0.00  0.00    +0.162 C 
ATOM     15  O   UNL     1       6.004  -7.828   3.681  0.00  0.00    -0.374 OA
ATOM     16  C   UNL     1       5.621  -8.390   2.424  0.00  0.00    +0.066 C 
ATOM     17  C   UNL     1       4.830  -7.354   1.621  0.00  0.00    +0.061 C 
ATOM     18  C   UNL     1       6.873  -8.793   1.643  0.00  0.00    +0.041 C 
ATOM     19  C   UNL     1       4.748  -9.624   2.662  0.00  0.00    +0.041 C 
ENDBRANCH   5  12
BRANCH   1  24
ATOM     20  C   UNL     1      -0.018   1.503   0.010  0.00  0.00    +0.044 C 
ATOM     21  C   UNL     1       0.002  -0.004   0.002  0.00  0.00    -0.050 A 
ATOM     22  C   UNL     1       0.006  -0.689  -1.199  0.00  0.00    +0.003 A 
ATOM     23  C   UNL     1       0.025  -2.071  -1.206  0.00  0.00    +0.005 A 
ATOM     24  C   UNL     1       0.040  -2.768  -0.013  0.00  0.00    -0.030 A 
ATOM     25  C   UNL     1       0.037  -2.084   1.188  0.00  0.00    +0.005 A 
ATOM     26  C   UNL     1       0.023  -0.702   1.195  0.00  0.00    +0.003 A 
ENDBRANCH   1  24
BRANCH   8  27
ATOM     27  O   UNL     1      -0.721  -8.545   1.826  0.00  0.00    -0.495 OA
ATOM     28  H   UNL     1      -0.014  -8.984   2.319  0.00  0.00    +0.293 HD
ENDBRANCH   8  27
TORSDOF 3
