REMARK  Name = ZINC05904882
REMARK  9 active torsions:
REMARK  status: ('A' for Active; 'I' for Inactive)
REMARK    1  A    between atoms: C_1  and  C_2
REMARK    2  A    between atoms: C_4  and  C_32
REMARK    3  A    between atoms: C_5  and  C_17
REMARK    4  A    between atoms: C_7  and  C_8
REMARK    5  A    between atoms: C_8  and  O_9
REMARK    6  A    between atoms: O_9  and  C_10
REMARK    7  A    between atoms: C_20  and  C_31
REMARK    8  A    between atoms: C_26  and  N_30
REMARK    9  A    between atoms: C_27  and  C_28
REMARK                            x       y       z     vdW  Elec       q    Type
REMARK                         _______ _______ _______ _____ _____    ______ ____
ROOT
ATOM      1  C   UNL     1      -3.934   4.999   5.248  0.00  0.00    +0.044 C 
ATOM      2  C   UNL     1      -3.307   4.814   3.890  0.00  0.00    -0.044 A 
ATOM      3  C   UNL     1      -4.106   4.731   2.765  0.00  0.00    +0.007 A 
ATOM      4  C   UNL     1      -3.531   4.562   1.520  0.00  0.00    -0.046 A 
ATOM      5  C   UNL     1      -2.157   4.476   1.399  0.00  0.00    -0.031 A 
ATOM      6  C   UNL     1      -1.358   4.553   2.524  0.00  0.00    +0.012 A 
ATOM      7  C   UNL     1      -1.933   4.728   3.769  0.00  0.00    -0.007 A 
ATOM      8  C   UNL     1      -4.403   4.471   0.294  0.00  0.00    +0.044 C 
ENDROOT
BRANCH   5   9
ATOM      9  C   UNL     1      -1.530   4.291   0.041  0.00  0.00    +0.102 C 
ATOM     10  C   UNL     1      -0.713   3.025   0.025  0.00  0.00    +0.049 A 
ATOM     11  C   UNL     1      -1.117   1.745   0.016  0.00  0.00    +0.041 A 
ATOM     12  N   UNL     1      -0.011   0.966   0.007  0.00  0.00    -0.278 N 
ATOM     13  H   UNL     1       0.003  -0.034   0.006  0.00  0.00    +0.189 HD
ATOM     14  N   UNL     1       1.114   1.805   0.001  0.00  0.00    -0.135 NA
ATOM     15  C   UNL     1       0.699   3.039   0.011  0.00  0.00    +0.245 A 
ATOM     16  O   UNL     1       1.408   4.199   0.008  0.00  0.00    -0.421 OA
ATOM     17  C   UNL     1       0.735   5.338  -0.252  0.00  0.00    +0.201 C 
ATOM     18  C   UNL     1      -0.610   5.448  -0.256  0.00  0.00    +0.098 C 
ATOM     19  C   UNL     1      -2.545   1.263   0.019  0.00  0.00    +0.065 C 
BRANCH  17  20
ATOM     20  N   UNL     1       1.469   6.463  -0.534  0.00  0.00    -0.328 N 
ATOM     21  H   UNL     1       2.438   6.421  -0.540  0.00  0.00    +0.145 HD
ATOM     22  H   UNL     1       1.018   7.300  -0.726  0.00  0.00    +0.145 HD
ENDBRANCH  17  20
BRANCH  18  23
ATOM     23  C   UNL     1      -1.189   6.722  -0.556  0.00  0.00    +0.101 C 
ATOM     24  N   UNL     1      -1.649   7.733  -0.794  0.00  0.00    -0.191 NA
ENDBRANCH  18  23
ENDBRANCH   5   9
BRANCH   7  25
ATOM     25  C   UNL     1      -1.062   4.819   4.995  0.00  0.00    +0.264 C 
BRANCH  25  26
ATOM     26  O   UNL     1       0.311   4.704   4.614  0.00  0.00    -0.487 OA
BRANCH  26  27
ATOM     27  C   UNL     1       1.235   4.767   5.609  0.00  0.00    +0.121 A 
ATOM     28  C   UNL     1       0.829   4.940   6.924  0.00  0.00    +0.048 A 
ATOM     29  C   UNL     1       1.769   4.998   7.935  0.00  0.00    +0.042 A 
ATOM     30  C   UNL     1       3.117   4.894   7.634  0.00  0.00    +0.124 A 
ATOM     31  C   UNL     1       3.524   4.726   6.322  0.00  0.00    +0.042 A 
ATOM     32  C   UNL     1       2.586   4.662   5.309  0.00  0.00    +0.048 A 
ATOM     33  F   UNL     1       4.035   4.956   8.623  0.00  0.00    -0.205 F 
ENDBRANCH  26  27
ENDBRANCH  25  26
ENDBRANCH   7  25
TORSDOF 6
