REMARK  Name = ZINC42079886
REMARK  4 active torsions:
REMARK  status: ('A' for Active; 'I' for Inactive)
REMARK    1  A    between atoms: C_1  and  C_2
REMARK    2  A    between atoms: C_5  and  N_9
REMARK    3  A    between atoms: C_6  and  C_8
REMARK    4  A    between atoms: N_9  and  C_10
REMARK                            x       y       z     vdW  Elec       q    Type
REMARK                         _______ _______ _______ _____ _____    ______ ____
ROOT
ATOM      1  C   UNL     1       0.061  -4.893  -1.294  0.00  0.00    +0.190 C 
ATOM      2  C   UNL     1      -0.474  -6.294  -1.106  0.00  0.00    +0.004 A 
ATOM      3  C   UNL     1      -1.692  -6.782  -0.686  0.00  0.00    +0.008 A 
ATOM      4  C   UNL     1      -1.899  -8.148  -0.611  0.00  0.00    +0.002 A 
ATOM      5  C   UNL     1      -0.881  -9.018  -0.958  0.00  0.00    +0.017 A 
ATOM      6  C   UNL     1       0.340  -8.532  -1.379  0.00  0.00    +0.039 A 
ATOM      7  C   UNL     1       0.555  -7.156  -1.458  0.00  0.00    +0.053 A 
ATOM      8  N   UNL     1       1.682  -6.430  -1.847  0.00  0.00    -0.282 N 
ATOM      9  C   UNL     1       1.479  -5.100  -1.782  0.00  0.00    +0.242 C 
ATOM     10  O   UNL     1       2.280  -4.232  -2.061  0.00  0.00    -0.273 OA
ATOM     11 BR   UNL     1       1.722  -9.732  -1.850  0.00  0.00    -0.048 Br
ATOM     12  H   UNL     1       2.515  -6.837  -2.132  0.00  0.00    +0.155 HD
ENDROOT
BRANCH   1  13
ATOM     13  N   UNL     1       0.058  -4.167  -0.021  0.00  0.00    -0.329 N 
ATOM     14  H   UNL     1       0.069  -4.657   0.816  0.00  0.00    +0.147 HD
BRANCH  13  19
ATOM     15  C   UNL     1      -0.018   1.503   0.010  0.00  0.00    +0.044 C 
ATOM     16  C   UNL     1       0.002  -0.004   0.002  0.00  0.00    -0.050 A 
ATOM     17  C   UNL     1       0.006  -0.687  -1.200  0.00  0.00    +0.005 A 
ATOM     18  C   UNL     1       0.024  -2.068  -1.212  0.00  0.00    +0.023 A 
ATOM     19  C   UNL     1       0.040  -2.771  -0.013  0.00  0.00    +0.031 A 
ATOM     20  C   UNL     1       0.036  -2.081   1.192  0.00  0.00    -0.029 A 
ATOM     21  C   UNL     1       0.023  -0.700   1.196  0.00  0.00    +0.008 A 
ATOM     22  C   UNL     1       0.052  -2.839   2.495  0.00  0.00    +0.045 C 
ENDBRANCH  13  19
ENDBRANCH   1  13
TORSDOF 2
