REMARK  Name = ZINC36302676
REMARK  4 active torsions:
REMARK  status: ('A' for Active; 'I' for Inactive)
REMARK    1  A    between atoms: C_1  and  C_2
REMARK    2  A    between atoms: C_3  and  N_9
REMARK    3  A    between atoms: C_4  and  C_8
REMARK    4  A    between atoms: C_10  and  C_12
REMARK                            x       y       z     vdW  Elec       q    Type
REMARK                         _______ _______ _______ _____ _____    ______ ____
ROOT
ATOM      1  N   UNL     1      -0.059  -0.141  -2.371  0.00  0.00    -0.278 N 
ATOM      2  C   UNL     1       0.350  -0.873  -3.426  0.00  0.00    +0.254 C 
ATOM      3  O   UNL     1       0.669  -2.036  -3.272  0.00  0.00    -0.270 OA
ATOM      4  H   UNL     1      -0.384   0.763  -2.505  0.00  0.00    +0.155 HD
ENDROOT
BRANCH   2   5
ATOM      5  C   UNL     1       0.410  -0.263  -4.768  0.00  0.00    +0.113 A 
ATOM      6  C   UNL     1       1.583   0.363  -5.203  0.00  0.00    +0.176 A 
ATOM      7  C   UNL     1       1.633   0.933  -6.462  0.00  0.00    +0.197 A 
ATOM      8  C   UNL     1       0.523   0.884  -7.293  0.00  0.00    +0.199 A 
ATOM      9  C   UNL     1      -0.643   0.264  -6.868  0.00  0.00    +0.197 A 
ATOM     10  C   UNL     1      -0.704  -0.314  -5.613  0.00  0.00    +0.176 A 
ATOM     11  F   UNL     1      -1.839  -0.922  -5.203  0.00  0.00    -0.201 F 
ATOM     12  F   UNL     1      -1.719   0.221  -7.683  0.00  0.00    -0.199 F 
ATOM     13  F   UNL     1       0.578   1.443  -8.521  0.00  0.00    -0.199 F 
ATOM     14  F   UNL     1       2.765   1.538  -6.883  0.00  0.00    -0.199 F 
ATOM     15  F   UNL     1       2.664   0.412  -4.394  0.00  0.00    -0.201 F 
ENDBRANCH   2   5
BRANCH   1  18
ATOM     16  C   UNL     1       2.030   0.590  -0.233  0.00  0.00    +0.067 C 
ATOM     17  C   UNL     1       0.891  -0.388  -0.111  0.00  0.00    +0.054 A 
ATOM     18  C   UNL     1      -0.016  -0.689  -1.076  0.00  0.00    +0.077 A 
ATOM     19  C   UNL     1      -0.901  -1.642  -0.552  0.00  0.00    +0.081 A 
ATOM     20  N   UNL     1      -0.542  -1.905   0.679  0.00  0.00    -0.177 NA
ATOM     21  N   UNL     1       0.587  -1.134   0.983  0.00  0.00    -0.280 N 
ATOM     22  H   UNL     1       1.066  -1.132   1.826  0.00  0.00    +0.189 HD
ATOM     23  C   UNL     1      -2.067  -2.259  -1.281  0.00  0.00    +0.069 C 
ENDBRANCH   1  18
TORSDOF 2
