REMARK  Name = ZINC53041424
REMARK  5 active torsions:
REMARK  status: ('A' for Active; 'I' for Inactive)
REMARK    1  A    between atoms: C_1  and  C_2
REMARK    2  A    between atoms: C_5  and  C_7
REMARK    3  A    between atoms: C_7  and  N_8
REMARK    4  A    between atoms: N_11  and  C_12
REMARK    5  A    between atoms: C_17  and  C_18
REMARK                            x       y       z     vdW  Elec       q    Type
REMARK                         _______ _______ _______ _____ _____    ______ ____
ROOT
ATOM      1  N   UNL     1       1.955  -3.635  -1.420  0.00  0.00    -0.292 N 
ATOM      2  C   UNL     1       2.796  -4.658  -1.671  0.00  0.00    +0.304 C 
ATOM      3  O   UNL     1       3.303  -5.268  -0.750  0.00  0.00    -0.252 OA
ATOM      4  N   UNL     1       3.074  -5.005  -2.944  0.00  0.00    -0.269 N 
ATOM      5  H   UNL     1       1.550  -3.149  -2.155  0.00  0.00    +0.151 HD
ATOM      6  H   UNL     1       2.621  -4.562  -3.678  0.00  0.00    +0.156 HD
ENDROOT
BRANCH   4   7
ATOM      7  C   UNL     1       4.013  -5.999  -3.205  0.00  0.00    +0.050 A 
ATOM      8  C   UNL     1       4.129  -7.089  -2.353  0.00  0.00    +0.044 A 
ATOM      9  C   UNL     1       5.062  -8.074  -2.614  0.00  0.00    +0.043 A 
ATOM     10  C   UNL     1       5.887  -7.984  -3.726  0.00  0.00    +0.021 A 
ATOM     11  C   UNL     1       5.786  -6.911  -4.582  0.00  0.00    +0.018 A 
ATOM     12  C   UNL     1       4.842  -5.908  -4.335  0.00  0.00    +0.084 A 
ATOM     13 CL   UNL     1       5.202  -9.434  -1.544  0.00  0.00    -0.083 Cl
BRANCH  12  14
ATOM     14  C   UNL     1       4.724  -4.762  -5.249  0.00  0.00    +0.388 C 
ATOM     15  O   UNL     1       5.378  -4.734  -6.282  0.00  0.00    -0.241 OA
ATOM     16  O   UNL     1       3.972  -3.836  -4.976  0.00  0.00    -0.241 OA
ENDBRANCH  12  14
ENDBRANCH   4   7
BRANCH   1  17
ATOM     17  C   UNL     1       1.653  -3.259  -0.037  0.00  0.00    +0.180 C 
BRANCH  17  22
ATOM     18  C   UNL     1      -0.115   1.466  -0.025  0.00  0.00    +0.086 C 
ATOM     19  C   UNL     1      -0.074  -0.041  -0.026  0.00  0.00    +0.102 A 
ATOM     20  C   UNL     1      -1.143  -0.857  -0.021  0.00  0.00    +0.045 A 
ATOM     21  C   UNL     1      -0.648  -2.181  -0.024  0.00  0.00    +0.046 A 
ATOM     22  C   UNL     1       0.695  -2.095  -0.032  0.00  0.00    +0.122 A 
ATOM     23  O   UNL     1       1.036  -0.796  -0.039  0.00  0.00    -0.463 OA
ENDBRANCH  17  22
ENDBRANCH   1  17
TORSDOF 4
