REMARK  Name = ZINC16769007
REMARK  3 active torsions:
REMARK  status: ('A' for Active; 'I' for Inactive)
REMARK    1  A    between atoms: C_5  and  N_8
REMARK    2  A    between atoms: C_9  and  C_11
REMARK    3  A    between atoms: C_11  and  N_12
REMARK                            x       y       z     vdW  Elec       q    Type
REMARK                         _______ _______ _______ _____ _____    ______ ____
ROOT
ATOM      1  N   UNL     1       2.358   3.890  -0.001  0.00  0.00    -0.282 N 
ATOM      2  C   UNL     1       2.370   5.180  -0.393  0.00  0.00    +0.235 C 
ATOM      3  O   UNL     1       1.328   5.744  -0.653  0.00  0.00    -0.274 OA
ATOM      4  H   UNL     1       3.182   3.461   0.277  0.00  0.00    +0.155 HD
ENDROOT
BRANCH   1   9
ATOM      5  C   UNL     1      -0.438   1.776  -1.120  0.00  0.00    +0.042 A 
ATOM      6  C   UNL     1      -1.223   1.755   0.019  0.00  0.00    +0.044 A 
ATOM      7  C   UNL     1      -0.818   2.433   1.155  0.00  0.00    +0.042 A 
ATOM      8  C   UNL     1       0.368   3.144   1.151  0.00  0.00    +0.065 A 
ATOM      9  C   UNL     1       1.156   3.171   0.007  0.00  0.00    +0.071 A 
ATOM     10  C   UNL     1       0.749   2.485  -1.130  0.00  0.00    +0.065 A 
ATOM     11 CL   UNL     1       1.729   2.517  -2.562  0.00  0.00    -0.082 Cl
ATOM     12 CL   UNL     1       0.874   3.999   2.575  0.00  0.00    -0.082 Cl
ATOM     13 CL   UNL     1      -2.717   0.870   0.026  0.00  0.00    -0.083 Cl
ENDBRANCH   1   9
BRANCH   2  14
ATOM     14  C   UNL     1       3.677   5.920  -0.510  0.00  0.00    +0.202 C 
BRANCH  14  15
ATOM     15  N   UNL     1       3.423   7.294  -0.951  0.00  0.00    -0.302 N 
ATOM     16  C   UNL     1       3.179   8.442  -0.065  0.00  0.00    +0.126 C 
ATOM     17  C   UNL     1       2.975   9.621  -1.036  0.00  0.00    +0.122 C 
ATOM     18  N   UNL     1       3.126   9.012  -2.366  0.00  0.00    -0.325 N 
ATOM     19  C   UNL     1       3.381   7.705  -2.225  0.00  0.00    +0.133 C 
ATOM     20  S   UNL     1       3.625   6.653  -3.554  0.00  0.00    -0.019 S 
ATOM     21  H   UNL     1       3.055   9.483  -3.211  0.00  0.00    +0.148 HD
ENDBRANCH  14  15
ENDBRANCH   2  14
TORSDOF 3
