REMARK  Name = ZINC62811015
REMARK  4 active torsions:
REMARK  status: ('A' for Active; 'I' for Inactive)
REMARK    1  A    between atoms: C_1  and  N_2
REMARK    2  A    between atoms: N_2  and  C_3
REMARK    3  A    between atoms: C_11  and  C_13
REMARK    4  A    between atoms: C_14  and  N_19
REMARK                            x       y       z     vdW  Elec       q    Type
REMARK                         _______ _______ _______ _____ _____    ______ ____
ROOT
ATOM      1  C   UNL     1      -0.036   1.461   0.011  0.00  0.00    +0.132 C 
ATOM      2  N   UNL     1      -0.003  -0.004   0.002  0.00  0.00    -0.295 N 
ATOM      3  C   UNL     1      -0.102  -0.673  -1.163  0.00  0.00    +0.269 C 
ATOM      4  O   UNL     1      -0.172  -1.887  -1.163  0.00  0.00    -0.268 OA
ENDROOT
BRANCH   2   5
ATOM      5  C   UNL     1       0.137  -0.741   1.260  0.00  0.00    +0.098 C 
ATOM      6  C   UNL     1       1.451  -0.333   1.947  0.00  0.00    +0.046 C 
ATOM      7  C   UNL     1       1.426  -0.879   3.404  0.00  0.00    +0.168 C 
ATOM      8  S   UNL     1      -0.325  -0.534   3.863  0.00  0.00    -0.029 S 
ATOM      9  O   UNL     1      -0.396   0.739   4.489  0.00  0.00    -0.174 OA
ATOM     10  O   UNL     1      -0.861  -1.671   4.526  0.00  0.00    -0.174 OA
ATOM     11  C   UNL     1      -1.062  -0.416   2.183  0.00  0.00    +0.188 C 
ENDBRANCH   2   5
BRANCH   3  12
ATOM     12  C   UNL     1      -0.124   0.067  -2.439  0.00  0.00    +0.167 A 
ATOM     13  C   UNL     1      -0.333  -0.484  -3.729  0.00  0.00    +0.075 A 
ATOM     14  C   UNL     1      -0.268   0.569  -4.587  0.00  0.00    +0.128 A 
ATOM     15  N   UNL     1      -0.034   1.679  -3.838  0.00  0.00    -0.282 N 
ATOM     16  H   UNL     1       0.059   2.578  -4.191  0.00  0.00    +0.188 HD
ATOM     17  N   UNL     1       0.041   1.367  -2.594  0.00  0.00    -0.167 NA
BRANCH  13  18
ATOM     18  N   UNL     1      -0.558  -1.830  -4.053  0.00  0.00    -0.355 N 
ATOM     19  H   UNL     1      -0.583  -2.499  -3.351  0.00  0.00    +0.142 HD
ATOM     20  H   UNL     1      -0.688  -2.091  -4.978  0.00  0.00    +0.142 HD
ENDBRANCH  13  18
ENDBRANCH   3  12
TORSDOF 3
