REMARK  Name = ZINC50389262
REMARK  7 active torsions:
REMARK  status: ('A' for Active; 'I' for Inactive)
REMARK    1  A    between atoms: C_1  and  C_2
REMARK    2  A    between atoms: C_2  and  C_4
REMARK    3  A    between atoms: C_2  and  N_9
REMARK    4  A    between atoms: C_4  and  C_5
REMARK    5  A    between atoms: N_6  and  O_7
REMARK    6  A    between atoms: C_10  and  C_12
REMARK    7  A    between atoms: C_12  and  C_13
REMARK                            x       y       z     vdW  Elec       q    Type
REMARK                         _______ _______ _______ _____ _____    ______ ____
ROOT
ATOM      1  N   UNL     1       0.711  -0.489   1.189  0.00  0.00    -0.312 N 
ATOM      2  C   UNL     1       2.054  -0.600   1.174  0.00  0.00    +0.218 C 
ATOM      3  O   UNL     1       2.676  -0.297   0.177  0.00  0.00    -0.275 OA
ATOM      4  H   UNL     1       0.213  -0.731   1.986  0.00  0.00    +0.149 HD
ENDROOT
BRANCH   1   6
ATOM      5  C   UNL     1      -0.019   1.526   0.010  0.00  0.00    +0.028 C 
ATOM      6  C   UNL     1       0.002  -0.004   0.002  0.00  0.00    +0.077 C 
BRANCH   6   7
ATOM      7  C   UNL     1      -1.433  -0.534   0.013  0.00  0.00    +0.096 C 
BRANCH   7   8
ATOM      8  C   UNL     1      -1.416  -2.035  -0.119  0.00  0.00    +0.133 C 
ATOM      9  N   UNL     1      -0.291  -2.661  -0.219  0.00  0.00    -0.077 NA
ATOM     10  N   UNL     1      -2.600  -2.739  -0.134  0.00  0.00    -0.344 N 
ATOM     11  H   UNL     1      -3.445  -2.268  -0.059  0.00  0.00    +0.144 HD
ATOM     12  H   UNL     1      -2.588  -3.705  -0.219  0.00  0.00    +0.144 HD
BRANCH   9  13
ATOM     13  O   UNL     1      -0.274  -4.072  -0.343  0.00  0.00    -0.408 OA
ATOM     14  H   UNL     1       0.613  -4.450  -0.411  0.00  0.00    +0.328 HD
ENDBRANCH   9  13
ENDBRANCH   7   8
ENDBRANCH   6   7
ENDBRANCH   1   6
BRANCH   2  15
ATOM     15  C   UNL     1       2.783  -1.099   2.395  0.00  0.00    +0.130 C 
BRANCH  15  16
ATOM     16  C   UNL     1       4.264  -1.128   2.119  0.00  0.00    -0.039 A 
ATOM     17  C   UNL     1       4.845  -2.263   1.585  0.00  0.00    +0.005 A 
ATOM     18  C   UNL     1       6.204  -2.290   1.331  0.00  0.00    +0.015 A 
ATOM     19  C   UNL     1       6.981  -1.181   1.611  0.00  0.00    +0.018 A 
ATOM     20  C   UNL     1       6.399  -0.046   2.145  0.00  0.00    +0.015 A 
ATOM     21  C   UNL     1       5.040  -0.018   2.393  0.00  0.00    +0.005 A 
ATOM     22 BR   UNL     1       8.840  -1.218   1.264  0.00  0.00    -0.050 Br
ENDBRANCH  15  16
ENDBRANCH   2  15
TORSDOF 6
