REMARK  Name = ZINC45181975
REMARK  7 active torsions:
REMARK  status: ('A' for Active; 'I' for Inactive)
REMARK    1  A    between atoms: C_1  and  C_2
REMARK    2  A    between atoms: C_6  and  C_21
REMARK    3  A    between atoms: N_9  and  C_10
REMARK    4  A    between atoms: C_10  and  C_11
REMARK    5  A    between atoms: C_11  and  C_12
REMARK    6  A    between atoms: C_11  and  C_14
REMARK    7  A    between atoms: C_11  and  N_20
REMARK                            x       y       z     vdW  Elec       q    Type
REMARK                         _______ _______ _______ _____ _____    ______ ____
ROOT
ATOM      1  C   UNL     1       0.054   1.987   0.365  0.00  0.00    -0.013 C 
ATOM      2  C   UNL     1       0.288   0.507   0.055  0.00  0.00    -0.072 C 
ATOM      3  C   UNL     1       1.205   0.381  -1.163  0.00  0.00    -0.015 C 
ATOM      4  C   UNL     1       1.436  -1.101  -1.470  0.00  0.00    +0.009 C 
ATOM      5  C   UNL     1       2.021  -1.784  -0.230  0.00  0.00    +0.058 C 
ATOM      6  C   UNL     1       1.073  -1.578   0.954  0.00  0.00    -0.066 C 
ATOM      7  N   UNL     1       0.915  -0.141   1.213  0.00  0.00    +0.384 N 
ATOM      8  H   UNL     1       1.820   0.271   1.379  0.00  0.00    -0.081 HD
ENDROOT
BRANCH   5   9
ATOM      9  C   UNL     1       3.365  -1.182   0.089  0.00  0.00    +0.212 C 
ATOM     10  O   UNL     1       3.549  -0.644   1.161  0.00  0.00    -0.276 OA
ATOM     11  N   UNL     1       4.362  -1.242  -0.815  0.00  0.00    -0.329 N 
ATOM     12  H   UNL     1       4.215  -1.673  -1.672  0.00  0.00    +0.145 HD
ATOM     13  H   UNL     1       5.227  -0.855  -0.609  0.00  0.00    +0.145 HD
ENDBRANCH   5   9
BRANCH   7  14
ATOM     14  C   UNL     1       0.067   0.050   2.397  0.00  0.00    -0.036 C 
BRANCH  14  15
ATOM     15  C   UNL     1       0.805  -0.456   3.639  0.00  0.00    +0.115 C 
BRANCH  15  16
ATOM     16  C   UNL     1       0.010  -0.110   4.872  0.00  0.00    -0.016 A 
ATOM     17  C   UNL     1      -0.793   1.015   4.883  0.00  0.00    +0.006 A 
ATOM     18  C   UNL     1      -1.522   1.333   6.013  0.00  0.00    +0.000 A 
ATOM     19  C   UNL     1      -1.449   0.525   7.132  0.00  0.00    +0.000 A 
ATOM     20  C   UNL     1      -0.647  -0.601   7.121  0.00  0.00    +0.000 A 
ATOM     21  C   UNL     1       0.079  -0.921   5.989  0.00  0.00    +0.006 A 
ENDBRANCH  15  16
BRANCH  15  22
ATOM     22  N   UNL     1       0.966  -1.913   3.553  0.00  0.00    -0.311 NA
ATOM     23  H   UNL     1       1.507  -2.264   4.330  0.00  0.00    +0.120 HD
ATOM     24  H   UNL     1       0.070  -2.374   3.500  0.00  0.00    +0.120 HD
ENDBRANCH  15  22
BRANCH  15  25
ATOM     25  C   UNL     1       2.130   0.181   3.715  0.00  0.00    +0.087 C 
ATOM     26  N   UNL     1       3.153   0.672   3.774  0.00  0.00    -0.194 NA
ENDBRANCH  15  25
ENDBRANCH  14  15
ENDBRANCH   7  14
TORSDOF 6
