REMARK  Name = ZINC37053689
REMARK  7 active torsions:
REMARK  status: ('A' for Active; 'I' for Inactive)
REMARK    1  A    between atoms: C_1  and  C_2
REMARK    2  A    between atoms: C_2  and  C_3
REMARK    3  A    between atoms: C_6  and  N_21
REMARK    4  A    between atoms: C_8  and  S_9
REMARK    5  A    between atoms: S_9  and  N_12
REMARK    6  A    between atoms: N_12  and  C_13
REMARK    7  A    between atoms: C_16  and  C_20
REMARK                            x       y       z     vdW  Elec       q    Type
REMARK                         _______ _______ _______ _____ _____    ______ ____
ROOT
ATOM      1  S   UNL     1      -1.155  -0.243  -2.489  0.00  0.00    +0.073 S 
ATOM      2  O   UNL     1       0.099  -0.894  -2.331  0.00  0.00    -0.150 OA
ATOM      3  O   UNL     1      -1.939  -0.375  -3.666  0.00  0.00    -0.150 OA
ENDROOT
BRANCH   1   9
ATOM      4  C   UNL     1      -3.444  -0.258  -1.002  0.00  0.00    -0.021 A 
ATOM      5  C   UNL     1      -4.245  -0.672   0.046  0.00  0.00    +0.007 A 
ATOM      6  C   UNL     1      -3.769  -1.595   0.956  0.00  0.00    +0.023 A 
ATOM      7  C   UNL     1      -2.486  -2.108   0.818  0.00  0.00    +0.026 A 
ATOM      8  C   UNL     1      -1.684  -1.689  -0.236  0.00  0.00    +0.051 A 
ATOM      9  C   UNL     1      -2.168  -0.769  -1.147  0.00  0.00    +0.113 A 
BRANCH   7  10
ATOM     10  N   UNL     1      -2.002  -3.042   1.737  0.00  0.00    -0.358 N 
ATOM     11  H   UNL     1      -2.562  -3.333   2.473  0.00  0.00    +0.142 HD
ATOM     12  H   UNL     1      -1.105  -3.399   1.639  0.00  0.00    +0.142 HD
ENDBRANCH   7  10
BRANCH   4  14
ATOM     13  C   UNL     1      -4.692   0.022  -3.127  0.00  0.00    +0.009 C 
ATOM     14  C   UNL     1      -3.966   0.750  -1.994  0.00  0.00    +0.034 C 
ENDBRANCH   4  14
ENDBRANCH   1   9
BRANCH   1  15
ATOM     15  N   UNL     1      -0.876   1.377  -2.285  0.00  0.00    -0.216 N 
ATOM     16  H   UNL     1      -1.246   2.015  -2.915  0.00  0.00    +0.174 HD
BRANCH  15  17
ATOM     17  C   UNL     1      -0.107   1.823  -1.208  0.00  0.00    +0.049 A 
ATOM     18  C   UNL     1      -0.324   1.305   0.063  0.00  0.00    +0.025 A 
ATOM     19  C   UNL     1       0.438   1.748   1.127  0.00  0.00    +0.006 A 
ATOM     20  C   UNL     1       1.414   2.707   0.929  0.00  0.00    -0.032 A 
ATOM     21  C   UNL     1       1.633   3.225  -0.335  0.00  0.00    +0.046 A 
ATOM     22  C   UNL     1       0.878   2.782  -1.405  0.00  0.00    +0.044 A 
ATOM     23 CL   UNL     1       2.859   4.429  -0.579  0.00  0.00    -0.083 Cl
ATOM     24  C   UNL     1       2.242   3.188   2.092  0.00  0.00    +0.045 C 
ENDBRANCH  15  17
ENDBRANCH   1  15
TORSDOF 5
