REMARK  Name = ZINC40324627
REMARK  7 active torsions:
REMARK  status: ('A' for Active; 'I' for Inactive)
REMARK    1  A    between atoms: C_1  and  C_2
REMARK    2  A    between atoms: C_7  and  C_8
REMARK    3  A    between atoms: C_8  and  C_10
REMARK    4  A    between atoms: C_8  and  N_11
REMARK    5  A    between atoms: N_11  and  S_12
REMARK    6  A    between atoms: S_12  and  C_15
REMARK    7  A    between atoms: C_20  and  N_21
REMARK                            x       y       z     vdW  Elec       q    Type
REMARK                         _______ _______ _______ _____ _____    ______ ____
ROOT
ATOM      1  S   UNL     1      -1.966  -0.389   4.300  0.00  0.00    +0.061 S 
ATOM      2  O   UNL     1      -2.143  -1.416   5.266  0.00  0.00    -0.153 OA
ATOM      3  O   UNL     1      -1.951   0.989   4.647  0.00  0.00    -0.153 OA
ENDROOT
BRANCH   1   4
ATOM      4  C   UNL     1      -3.246  -0.594   3.107  0.00  0.00    +0.126 A 
ATOM      5  C   UNL     1      -4.023   0.486   2.734  0.00  0.00    +0.032 A 
ATOM      6  C   UNL     1      -5.028   0.327   1.798  0.00  0.00    +0.022 A 
ATOM      7  C   UNL     1      -5.260  -0.915   1.232  0.00  0.00    +0.043 A 
ATOM      8  C   UNL     1      -4.487  -1.999   1.601  0.00  0.00    +0.044 A 
ATOM      9  C   UNL     1      -3.472  -1.840   2.537  0.00  0.00    +0.053 A 
ATOM     10 CL   UNL     1      -6.523  -1.111   0.057  0.00  0.00    -0.083 Cl
BRANCH   9  11
ATOM     11  N   UNL     1      -2.684  -2.932   2.908  0.00  0.00    -0.356 N 
ATOM     12  H   UNL     1      -2.025  -2.838   3.613  0.00  0.00    +0.142 HD
ATOM     13  H   UNL     1      -2.796  -3.785   2.460  0.00  0.00    +0.142 HD
ENDBRANCH   9  11
ENDBRANCH   1   4
BRANCH   1  14
ATOM     14  N   UNL     1      -0.530  -0.700   3.535  0.00  0.00    -0.183 NA
ATOM     15  H   UNL     1       0.009  -1.459   3.807  0.00  0.00    +0.149 HD
BRANCH  14  16
ATOM     16  C   UNL     1      -0.075   0.171   2.449  0.00  0.00    +0.104 C 
ATOM     17  C   UNL     1       1.328   0.693   2.767  0.00  0.00    +0.031 C 
BRANCH  16  24
ATOM     18  C   UNL     1      -0.326   1.544  -0.081  0.00  0.00    +0.044 C 
ATOM     19  C   UNL     1      -0.160   0.047  -0.050  0.00  0.00    -0.046 A 
ATOM     20  C   UNL     1      -0.122  -0.669  -1.232  0.00  0.00    +0.003 A 
ATOM     21  C   UNL     1       0.030  -2.043  -1.204  0.00  0.00    +0.000 A 
ATOM     22  C   UNL     1       0.145  -2.701   0.007  0.00  0.00    +0.000 A 
ATOM     23  C   UNL     1       0.108  -1.985   1.189  0.00  0.00    +0.005 A 
ATOM     24  C   UNL     1      -0.040  -0.611   1.160  0.00  0.00    -0.026 A 
ENDBRANCH  16  24
ENDBRANCH  14  16
ENDBRANCH   1  14
TORSDOF 5
