REMARK  Name = ZINC53004611
REMARK  6 active torsions:
REMARK  status: ('A' for Active; 'I' for Inactive)
REMARK    1  A    between atoms: C_1  and  C_2
REMARK    2  A    between atoms: C_5  and  N_19
REMARK    3  A    between atoms: C_6  and  C_8
REMARK    4  A    between atoms: N_10  and  C_11
REMARK    5  A    between atoms: C_11  and  C_18
REMARK    6  A    between atoms: N_19  and  C_20
REMARK                            x       y       z     vdW  Elec       q    Type
REMARK                         _______ _______ _______ _____ _____    ______ ____
ROOT
ATOM      1  C   UNL     1       0.028  -3.106   2.282  0.00  0.00    +0.246 C 
ATOM      2  O   UNL     1       0.129  -4.310   2.140  0.00  0.00    -0.270 OA
ATOM      3  N   UNL     1      -0.081  -2.580   3.518  0.00  0.00    -0.304 N 
ATOM      4  H   UNL     1      -0.161  -1.620   3.631  0.00  0.00    +0.150 HD
ENDROOT
BRANCH   3   5
ATOM      5  C   UNL     1      -0.077  -3.458   4.691  0.00  0.00    +0.053 C 
ATOM      6  C   UNL     1      -1.195  -4.489   4.534  0.00  0.00    +0.049 C 
ATOM      7  C   UNL     1      -1.704  -4.947   5.929  0.00  0.00    +0.168 C 
ATOM      8  S   UNL     1      -1.664  -3.329   6.819  0.00  0.00    -0.029 S 
ATOM      9  O   UNL     1      -2.830  -2.587   6.491  0.00  0.00    -0.174 OA
ATOM     10  O   UNL     1      -1.335  -3.554   8.183  0.00  0.00    -0.174 OA
ATOM     11  C   UNL     1      -0.214  -2.591   5.957  0.00  0.00    +0.191 C 
ATOM     12  C   UNL     1       1.262  -4.197   4.744  0.00  0.00    +0.033 C 
ENDBRANCH   3   5
BRANCH   1  18
ATOM     13  C   UNL     1       0.025   1.482   0.333  0.00  0.00    +0.044 C 
ATOM     14  C   UNL     1       0.023  -0.015   0.156  0.00  0.00    -0.050 A 
ATOM     15  C   UNL     1       0.017  -0.558  -1.119  0.00  0.00    +0.005 A 
ATOM     16  C   UNL     1       0.015  -1.927  -1.295  0.00  0.00    +0.024 A 
ATOM     17  C   UNL     1       0.018  -2.770  -0.190  0.00  0.00    +0.039 A 
ATOM     18  C   UNL     1       0.024  -2.223   1.102  0.00  0.00    +0.058 A 
ATOM     19  C   UNL     1       0.032  -0.835   1.263  0.00  0.00    +0.018 A 
BRANCH  17  20
ATOM     20  N   UNL     1       0.015  -4.148  -0.365  0.00  0.00    -0.346 N 
ATOM     21  C   UNL     1      -0.116  -4.716  -1.709  0.00  0.00    +0.125 C 
ATOM     22  H   UNL     1       0.099  -4.734   0.404  0.00  0.00    +0.146 HD
ENDBRANCH  17  20
ENDBRANCH   1  18
TORSDOF 3
