REMARK  Name = ZINC05920795
REMARK  11 active torsions:
REMARK  status: ('A' for Active; 'I' for Inactive)
REMARK    1  A    between atoms: C_1  and  C_2
REMARK    2  A    between atoms: C_8  and  C_28
REMARK    3  A    between atoms: C_12  and  C_14
REMARK    4  A    between atoms: C_12  and  C_17
REMARK    5  A    between atoms: C_14  and  C_15
REMARK    6  A    between atoms: C_15  and  O_16
REMARK    7  A    between atoms: C_17  and  O_18
REMARK    8  A    between atoms: C_21  and  O_27
REMARK    9  A    between atoms: C_23  and  C_24
REMARK   10  A    between atoms: C_23  and  C_25
REMARK   11  A    between atoms: C_25  and  O_26
REMARK                            x       y       z     vdW  Elec       q    Type
REMARK                         _______ _______ _______ _____ _____    ______ ____
ROOT
ATOM      1  C   UNL     1      -1.587   0.258   0.960  0.00  0.00    +0.010 C 
ATOM      2  C   UNL     1      -0.999  -1.141   0.789  0.00  0.00    +0.018 C 
ATOM      3  C   UNL     1       0.059  -1.120  -0.315  0.00  0.00    +0.006 C 
ATOM      4  C   UNL     1       0.601  -2.529  -0.538  0.00  0.00    +0.005 C 
ATOM      5  C   UNL     1       1.170  -3.151   0.743  0.00  0.00    +0.008 C 
ATOM      6  C   UNL     1       0.153  -3.069   1.872  0.00  0.00    +0.001 C 
ATOM      7  C   UNL     1      -0.337  -1.623   2.076  0.00  0.00    +0.079 C 
ATOM      8  C   UNL     1       0.835  -0.708   2.453  0.00  0.00    +0.039 C 
ATOM      9  C   UNL     1       0.288   0.163   3.608  0.00  0.00    +0.040 C 
ATOM     10  C   UNL     1      -0.924  -0.623   4.138  0.00  0.00    +0.095 C 
ATOM     11  O   UNL     1      -1.272  -1.601   3.158  0.00  0.00    -0.364 OA
ATOM     12  C   UNL     1      -1.057  -3.950   1.544  0.00  0.00    +0.012 C 
ATOM     13  C   UNL     1      -0.609  -5.397   1.351  0.00  0.00    +0.032 C 
ATOM     14  C   UNL     1       0.382  -5.486   0.196  0.00  0.00    +0.123 C 
ATOM     15  C   UNL     1       1.592  -4.583   0.416  0.00  0.00    +0.020 C 
ATOM     16  C   UNL     1       2.519  -5.183   1.474  0.00  0.00    +0.016 C 
ATOM     17  C   UNL     1       0.729  -3.526   3.217  0.00  0.00    +0.014 C 
ENDROOT
BRANCH  14  18
ATOM     18  O   UNL     1       0.824  -6.841   0.053  0.00  0.00    -0.391 OA
ATOM     19  H   UNL     1       0.113  -7.470  -0.131  0.00  0.00    +0.210 HD
ENDBRANCH  14  18
BRANCH  10  20
ATOM     20  C   UNL     1      -2.099   0.333   4.375  0.00  0.00    +0.065 C 
BRANCH  20  21
ATOM     21  C   UNL     1      -1.708   1.369   5.432  0.00  0.00    +0.158 C 
BRANCH  21  22
ATOM     22  O   UNL     1      -2.755   2.332   5.565  0.00  0.00    -0.395 OA
ATOM     23  H   UNL     1      -2.575   3.021   6.219  0.00  0.00    +0.209 HD
ENDBRANCH  21  22
ENDBRANCH  20  21
ENDBRANCH  10  20
BRANCH  10  24
ATOM     24  C   UNL     1      -0.560  -1.295   5.468  0.00  0.00    +0.190 C 
BRANCH  24  25
ATOM     25  O   UNL     1      -1.674  -2.058   5.936  0.00  0.00    -0.392 OA
ATOM     26  H   UNL     1      -1.515  -2.513   6.774  0.00  0.00    +0.210 HD
ENDBRANCH  24  25
ENDBRANCH  10  24
BRANCH  15  27
ATOM     27  C   UNL     1       2.405  -4.584  -0.898  0.00  0.00    +0.165 C 
BRANCH  27  28
ATOM     28  O   UNL     1       2.804  -5.920  -1.211  0.00  0.00    -0.394 OA
ATOM     29  H   UNL     1       3.319  -5.997  -2.025  0.00  0.00    +0.209 HD
ENDBRANCH  27  28
ENDBRANCH  15  27
TORSDOF 8
