REMARK  Name = ZINC06754062
REMARK  10 active torsions:
REMARK  status: ('A' for Active; 'I' for Inactive)
REMARK    1  A    between atoms: C_1  and  C_2
REMARK    2  A    between atoms: C_5  and  N_9
REMARK    3  A    between atoms: C_6  and  C_8
REMARK    4  A    between atoms: C_10  and  C_12
REMARK    5  A    between atoms: C_12  and  N_13
REMARK    6  A    between atoms: C_14  and  N_29
REMARK    7  A    between atoms: C_15  and  C_18
REMARK    8  A    between atoms: N_20  and  C_21
REMARK    9  A    between atoms: C_24  and  C_28
REMARK   10  A    between atoms: C_26  and  C_27
REMARK                            x       y       z     vdW  Elec       q    Type
REMARK                         _______ _______ _______ _____ _____    ______ ____
ROOT
ATOM      1  N   UNL     1      -0.634   1.798   1.139  0.00  0.00    -0.222 N 
ATOM      2  C   UNL     1      -1.619   1.107   1.759  0.00  0.00    +0.148 A 
ATOM      3  C   UNL     1      -2.002   1.869   2.856  0.00  0.00    +0.188 A 
ATOM      4  N   UNL     1      -1.249   2.985   2.872  0.00  0.00    -0.123 NA
ATOM      5  N   UNL     1      -0.431   2.971   1.879  0.00  0.00    -0.063 NA
ENDROOT
BRANCH   3   6
ATOM      6  C   UNL     1      -3.045   1.518   3.828  0.00  0.00    +0.272 C 
ATOM      7  O   UNL     1      -3.661   0.475   3.709  0.00  0.00    -0.268 OA
ATOM      8  N   UNL     1      -3.319   2.350   4.852  0.00  0.00    -0.280 N 
ATOM      9  H   UNL     1      -2.877   3.211   4.909  0.00  0.00    +0.155 HD
BRANCH   8  10
ATOM     10  C   UNL     1      -4.240   1.971   5.834  0.00  0.00    +0.037 A 
ATOM     11  C   UNL     1      -5.350   1.209   5.489  0.00  0.00    +0.024 A 
ATOM     12  C   UNL     1      -6.258   0.837   6.461  0.00  0.00    +0.005 A 
ATOM     13  C   UNL     1      -6.063   1.221   7.775  0.00  0.00    -0.050 A 
ATOM     14  C   UNL     1      -4.960   1.978   8.121  0.00  0.00    +0.008 A 
ATOM     15  C   UNL     1      -4.045   2.351   7.155  0.00  0.00    -0.029 A 
ATOM     16  C   UNL     1      -2.840   3.172   7.534  0.00  0.00    +0.045 C 
ATOM     17  C   UNL     1      -7.056   0.812   8.833  0.00  0.00    +0.044 C 
ENDBRANCH   8  10
ENDBRANCH   3   6
BRANCH   2  18
ATOM     18  N   UNL     1      -2.141  -0.112   1.376  0.00  0.00    -0.341 N 
ATOM     19  H   UNL     1      -1.798  -0.559   0.587  0.00  0.00    +0.144 HD
ATOM     20  H   UNL     1      -2.851  -0.520   1.896  0.00  0.00    +0.144 HD
ENDBRANCH   2  18
BRANCH   1  21
ATOM     21  C   UNL     1       0.088   1.394  -0.070  0.00  0.00    +0.243 C 
BRANCH  21  23
ATOM     22  N   UNL     1      -0.149   1.669  -2.517  0.00  0.00    -0.284 N 
ATOM     23  C   UNL     1      -0.633   1.920  -1.284  0.00  0.00    +0.239 C 
ATOM     24  O   UNL     1      -1.650   2.568  -1.153  0.00  0.00    -0.273 OA
ATOM     25  H   UNL     1       0.705   1.221  -2.620  0.00  0.00    +0.155 HD
BRANCH  22  30
ATOM     26  C   UNL     1      -3.104   3.238  -7.099  0.00  0.00    +0.044 C 
ATOM     27  C   UNL     1      -2.319   2.821  -5.882  0.00  0.00    -0.050 A 
ATOM     28  C   UNL     1      -2.972   2.591  -4.685  0.00  0.00    +0.005 A 
ATOM     29  C   UNL     1      -2.256   2.210  -3.567  0.00  0.00    +0.024 A 
ATOM     30  C   UNL     1      -0.878   2.056  -3.647  0.00  0.00    +0.036 A 
ATOM     31  C   UNL     1      -0.224   2.293  -4.849  0.00  0.00    -0.029 A 
ATOM     32  C   UNL     1      -0.947   2.669  -5.964  0.00  0.00    +0.008 A 
ATOM     33  C   UNL     1       1.272   2.133  -4.938  0.00  0.00    +0.045 C 
ENDBRANCH  22  30
ENDBRANCH  21  23
ENDBRANCH   1  21
TORSDOF 6
