REMARK  Name = ZINC63233126
REMARK  6 active torsions:
REMARK  status: ('A' for Active; 'I' for Inactive)
REMARK    1  A    between atoms: C_1  and  C_2
REMARK    2  A    between atoms: C_3  and  C_31
REMARK    3  A    between atoms: C_7  and  S_20
REMARK    4  A    between atoms: N_9  and  C_14
REMARK    5  A    between atoms: S_20  and  C_21
REMARK    6  A    between atoms: C_21  and  C_22
REMARK                            x       y       z     vdW  Elec       q    Type
REMARK                         _______ _______ _______ _____ _____    ______ ____
ROOT
ATOM      1  C   UNL     1      -1.357   1.292   0.247  0.00  0.00    +0.041 C 
ATOM      2  C   UNL     1      -1.576   1.705  -1.186  0.00  0.00    -0.045 C 
ATOM      3  C   UNL     1      -1.657   3.170  -1.581  0.00  0.00    +0.076 C 
ATOM      4  S   UNL     1      -2.242   3.036  -3.325  0.00  0.00    -0.098 S 
ATOM      5  C   UNL     1      -1.907   1.313  -3.544  0.00  0.00    +0.107 C 
ATOM      6  N   UNL     1      -1.846   0.560  -4.582  0.00  0.00    -0.243 NA
ATOM      7  C   UNL     1      -1.422  -0.836  -4.440  0.00  0.00    +0.259 C 
ATOM      8  N   UNL     1      -1.661  -1.398  -3.123  0.00  0.00    -0.236 N 
ATOM      9  C   UNL     1      -1.707  -0.682  -1.979  0.00  0.00    +0.256 C 
ATOM     10  O   UNL     1      -1.749  -1.212  -0.885  0.00  0.00    -0.269 OA
ATOM     11  C   UNL     1      -1.698   0.808  -2.147  0.00  0.00    +0.069 C 
ATOM     12  C   UNL     1      -0.282   3.836  -1.511  0.00  0.00    +0.024 C 
ENDROOT
BRANCH   8  13
ATOM     13  C   UNL     1      -1.857  -2.780  -3.033  0.00  0.00    +0.039 A 
ATOM     14  C   UNL     1      -3.130  -3.314  -3.193  0.00  0.00    +0.023 A 
ATOM     15  C   UNL     1      -3.320  -4.679  -3.104  0.00  0.00    +0.002 A 
ATOM     16  C   UNL     1      -2.246  -5.514  -2.856  0.00  0.00    +0.000 A 
ATOM     17  C   UNL     1      -0.978  -4.986  -2.697  0.00  0.00    +0.002 A 
ATOM     18  C   UNL     1      -0.780  -3.622  -2.790  0.00  0.00    +0.023 A 
ENDBRANCH   8  13
BRANCH   7  19
ATOM     19  S   UNL     1       0.354  -0.938  -4.793  0.00  0.00    -0.111 S 
BRANCH  19  20
ATOM     20  C   UNL     1       1.111   0.149  -3.554  0.00  0.00    +0.119 C 
BRANCH  20  21
ATOM     21  C   UNL     1       2.630   0.155  -3.741  0.00  0.00    +0.184 C 
ATOM     22  N   UNL     1       2.968   0.575  -5.107  0.00  0.00    -0.363 N 
ATOM     23  C   UNL     1       3.612  -0.407  -5.669  0.00  0.00    +0.060 A 
ATOM     24  C   UNL     1       4.198  -0.582  -7.005  0.00  0.00    +0.027 A 
ATOM     25  C   UNL     1       4.820  -1.738  -7.312  0.00  0.00    +0.002 A 
ATOM     26  C   UNL     1       4.937  -2.801  -6.400  0.00  0.00    +0.002 A 
ATOM     27  C   UNL     1       4.435  -2.745  -5.150  0.00  0.00    +0.027 A 
ATOM     28  C   UNL     1       3.735  -1.533  -4.703  0.00  0.00    +0.060 A 
ATOM     29  N   UNL     1       3.163  -1.204  -3.581  0.00  0.00    -0.363 N 
ATOM     30  H   UNL     1       2.751   1.427  -5.515  0.00  0.00    +0.162 HD
ATOM     31  H   UNL     1       3.101  -1.755  -2.785  0.00  0.00    +0.162 HD
ENDBRANCH  20  21
ENDBRANCH  19  20
ENDBRANCH   7  19
TORSDOF 4
