REMARK  Name = ZINC19932278
REMARK  3 active torsions:
REMARK  status: ('A' for Active; 'I' for Inactive)
REMARK    1  A    between atoms: C_6  and  N_7
REMARK    2  A    between atoms: C_16  and  C_21
REMARK    3  A    between atoms: C_17  and  N_20
REMARK                            x       y       z     vdW  Elec       q    Type
REMARK                         _______ _______ _______ _____ _____    ______ ____
ROOT
ATOM      1  C   UNL     1       1.168   3.382   0.056  0.00  0.00    +0.056 A 
ATOM      2  C   UNL     1      -0.040   4.100   0.049  0.00  0.00    +0.103 A 
ATOM      3  C   UNL     1      -1.264   3.400  -0.086  0.00  0.00    +0.114 A 
ATOM      4  C   UNL     1      -1.256   2.009  -0.215  0.00  0.00    +0.071 A 
ATOM      5  C   UNL     1      -0.074   1.329  -0.201  0.00  0.00    +0.146 A 
ATOM      6  C   UNL     1       1.145   2.011  -0.068  0.00  0.00    +0.068 A 
ATOM      7  F   UNL     1      -0.076  -0.017  -0.322  0.00  0.00    -0.203 F 
ATOM      8  N   UNL     1      -2.436   4.094  -0.092  0.00  0.00    -0.122 N 
ATOM      9  O   UNL     1      -3.670   3.413  -0.227  0.00  0.00    -0.163 OA
ATOM     10  C   UNL     1      -2.409   5.438   0.029  0.00  0.00    +0.186 C 
ATOM     11  C   UNL     1      -1.192   6.107   0.160  0.00  0.00    +0.158 C 
ATOM     12  N   UNL     1      -0.044   5.435   0.169  0.00  0.00    -0.169 N 
ATOM     13  O   UNL     1       1.009   6.036   0.285  0.00  0.00    -0.078 OA
ENDROOT
BRANCH   6  14
ATOM     14  N   UNL     1       2.343   1.295  -0.062  0.00  0.00    -0.328 N 
ATOM     15  C   UNL     1       3.027   1.424   1.231  0.00  0.00    +0.105 C 
ATOM     16  C   UNL     1       4.257   0.513   1.253  0.00  0.00    +0.019 C 
ATOM     17  C   UNL     1       5.200   0.910   0.114  0.00  0.00    +0.003 C 
ATOM     18  C   UNL     1       4.449   0.814  -1.217  0.00  0.00    +0.019 C 
ATOM     19  C   UNL     1       3.214   1.716  -1.167  0.00  0.00    +0.105 C 
ENDBRANCH   6  14
BRANCH  10  20
ATOM     20  C   UNL     1      -3.672   6.203   0.023  0.00  0.00    +0.265 C 
ATOM     21  O   UNL     1      -4.087   6.685  -1.013  0.00  0.00    -0.269 OA
ATOM     22  N   UNL     1      -4.366   6.368   1.167  0.00  0.00    -0.324 N 
ATOM     23  H   UNL     1      -5.307   6.938   1.163  0.00  0.00    +0.145 HD
ATOM     24  H   UNL     1      -3.991   5.933   2.105  0.00  0.00    +0.145 HD
ENDBRANCH  10  20
BRANCH  11  25
ATOM     25  N   UNL     1      -1.179   7.489   0.284  0.00  0.00    -0.341 N 
ATOM     26  H   UNL     1      -0.223   8.023   0.388  0.00  0.00    +0.144 HD
ATOM     27  H   UNL     1      -2.124   8.051   0.279  0.00  0.00    +0.144 HD
ENDBRANCH  11  25
TORSDOF 3
