REMARK  Name = ZINC36262101
REMARK  2 active torsions:
REMARK  status: ('A' for Active; 'I' for Inactive)
REMARK    1  A    between atoms: C_2  and  C_9
REMARK    2  A    between atoms: C_17  and  N_23
REMARK                            x       y       z     vdW  Elec       q    Type
REMARK                         _______ _______ _______ _____ _____    ______ ____
ROOT
ATOM      1  C   UNL     1       1.292  -0.741  -0.015  0.00  0.00    +0.247 C 
ATOM      2  O   UNL     1       0.240  -0.142   0.093  0.00  0.00    -0.270 OA
ATOM      3  N   UNL     1       1.295  -2.084  -0.124  0.00  0.00    -0.297 N 
ATOM      4  C   UNL     1       0.099  -2.942  -0.240  0.00  0.00    +0.112 C 
ATOM      5  C   UNL     1       0.610  -4.226  -0.961  0.00  0.00    +0.011 C 
ATOM      6  C   UNL     1       0.735  -3.867  -2.443  0.00  0.00    +0.004 C 
ATOM      7  C   UNL     1       1.628  -4.867  -3.172  0.00  0.00    -0.016 C 
ATOM      8  C   UNL     1       3.033  -4.799  -2.563  0.00  0.00    -0.075 C 
ATOM      9  C   UNL     1       2.944  -5.247  -1.105  0.00  0.00    -0.011 C 
ATOM     10  C   UNL     1       1.992  -4.385  -0.300  0.00  0.00    +0.009 C 
ATOM     11  C   UNL     1       2.493  -2.943  -0.153  0.00  0.00    +0.112 C 
ENDROOT
BRANCH   1  13
ATOM     12  C   UNL     1       3.276   0.195  -1.218  0.00  0.00    +0.083 A 
ATOM     13  C   UNL     1       2.575   0.008  -0.026  0.00  0.00    +0.047 A 
ATOM     14  C   UNL     1       3.097   0.537   1.156  0.00  0.00    +0.083 A 
ATOM     15  C   UNL     1       4.298   1.234   1.120  0.00  0.00    +0.252 A 
ATOM     16  N   UNL     1       4.959   1.402  -0.047  0.00  0.00    -0.290 N 
ATOM     17  C   UNL     1       4.476   0.894  -1.203  0.00  0.00    +0.252 A 
ATOM     18  O   UNL     1       5.153   1.075  -2.344  0.00  0.00    -0.268 OA
ATOM     19  O   UNL     1       4.803   1.743   2.250  0.00  0.00    -0.268 OA
ATOM     20  H   UNL     1       5.797   1.891  -0.054  0.00  0.00    +0.172 HD
ENDBRANCH   1  13
BRANCH   8  21
ATOM     21  N   UNL     1       3.937  -5.692  -3.302  0.00  0.00    +0.380 N 
ATOM     22  H   UNL     1       3.977  -5.405  -4.268  0.00  0.00    -0.090 HD
ATOM     23  H   UNL     1       4.860  -5.644  -2.898  0.00  0.00    -0.090 HD
ATOM     24  H   UNL     1       3.594  -6.639  -3.246  0.00  0.00    -0.090 HD
ENDBRANCH   8  21
TORSDOF 2
