REMARK  Name = ZINC05248745
REMARK  7 active torsions:
REMARK  status: ('A' for Active; 'I' for Inactive)
REMARK    1  A    between atoms: C_1  and  O_2
REMARK    2  A    between atoms: O_2  and  C_3
REMARK    3  A    between atoms: C_3  and  C_4
REMARK    4  A    between atoms: C_11  and  N_32
REMARK    5  A    between atoms: C_12  and  C_30
REMARK    6  A    between atoms: N_20  and  C_23
REMARK    7  A    between atoms: C_23  and  C_24
REMARK                            x       y       z     vdW  Elec       q    Type
REMARK                         _______ _______ _______ _____ _____    ______ ____
ROOT
ATOM      1  C   UNL     1       0.614  -2.074  -1.042  0.00  0.00    +0.097 A 
ATOM      2  C   UNL     1       1.569  -2.876  -0.433  0.00  0.00    +0.064 A 
ATOM      3  C   UNL     1       1.170  -4.179  -0.560  0.00  0.00    +0.223 A 
ATOM      4  N   UNL     1       0.005  -4.184  -1.226  0.00  0.00    -0.246 N 
ATOM      5  H   UNL     1      -0.515  -4.968  -1.462  0.00  0.00    +0.192 HD
ATOM      6  N   UNL     1      -0.331  -2.852  -1.516  0.00  0.00    -0.173 NA
ATOM      7  O   UNL     1       1.893  -5.215  -0.067  0.00  0.00    -0.423 OA
ATOM      8  C   UNL     1       3.159  -4.971   0.327  0.00  0.00    +0.201 C 
ATOM      9  C   UNL     1       3.665  -3.727   0.501  0.00  0.00    +0.110 C 
ATOM     10  C   UNL     1       2.842  -2.491   0.266  0.00  0.00    +0.145 C 
ATOM     11  C   UNL     1       2.562  -1.772   1.547  0.00  0.00    -0.001 A 
ATOM     12  C   UNL     1       1.898  -2.162   2.689  0.00  0.00    +0.007 A 
ATOM     13  C   UNL     1       1.814  -1.232   3.720  0.00  0.00    +0.000 A 
ATOM     14  C   UNL     1       2.371   0.025   3.600  0.00  0.00    +0.002 A 
ATOM     15  C   UNL     1       3.042   0.424   2.455  0.00  0.00    +0.024 A 
ATOM     16  C   UNL     1       3.134  -0.500   1.413  0.00  0.00    +0.041 A 
ATOM     17  N   UNL     1       3.738  -0.372   0.175  0.00  0.00    -0.265 N 
ATOM     18  C   UNL     1       3.618  -1.494  -0.566  0.00  0.00    +0.241 C 
ATOM     19  O   UNL     1       4.050  -1.669  -1.685  0.00  0.00    -0.274 OA
ENDROOT
BRANCH   8  20
ATOM     20  N   UNL     1       3.982  -6.044   0.567  0.00  0.00    -0.328 N 
ATOM     21  H   UNL     1       3.647  -6.947   0.451  0.00  0.00    +0.145 HD
ATOM     22  H   UNL     1       4.897  -5.899   0.852  0.00  0.00    +0.145 HD
ENDBRANCH   8  20
BRANCH   9  23
ATOM     23  C   UNL     1       5.027  -3.584   0.922  0.00  0.00    +0.102 C 
ATOM     24  N   UNL     1       6.106  -3.471   1.255  0.00  0.00    -0.191 NA
ENDBRANCH   9  23
BRANCH   1  25
ATOM     25  C   UNL     1       0.652  -0.570  -1.138  0.00  0.00    +0.217 C 
BRANCH  25  27
ATOM     26  C   UNL     1      -0.017   1.425   0.010  0.00  0.00    +0.194 C 
ATOM     27  O   UNL     1       0.002  -0.004   0.002  0.00  0.00    -0.377 OA
ENDBRANCH  25  27
ENDBRANCH   1  25
BRANCH  17  28
ATOM     28  C   UNL     1       4.428   0.839  -0.278  0.00  0.00    +0.148 C 
BRANCH  28  29
ATOM     29  C   UNL     1       5.882   0.764   0.111  0.00  0.00    -0.030 A 
ATOM     30  C   UNL     1       6.297   1.258   1.333  0.00  0.00    +0.005 A 
ATOM     31  C   UNL     1       7.630   1.190   1.690  0.00  0.00    +0.000 A 
ATOM     32  C   UNL     1       8.549   0.627   0.824  0.00  0.00    +0.000 A 
ATOM     33  C   UNL     1       8.134   0.132  -0.398  0.00  0.00    +0.000 A 
ATOM     34  C   UNL     1       6.800   0.197  -0.753  0.00  0.00    +0.005 A 
ENDBRANCH  28  29
ENDBRANCH  17  28
TORSDOF 6
