REMARK  Name = ZINC21986439
REMARK  1 active torsions:
REMARK  status: ('A' for Active; 'I' for Inactive)
REMARK    1  A    between atoms: C_7  and  N_18
REMARK                            x       y       z     vdW  Elec       q    Type
REMARK                         _______ _______ _______ _____ _____    ______ ____
ROOT
ATOM      1  C   UNL     1       1.222   1.555  -0.103  0.00  0.00    +0.000 A 
ATOM      2  C   UNL     1       1.294   2.937  -0.092  0.00  0.00    +0.002 A 
ATOM      3  C   UNL     1       0.135   3.675  -0.044  0.00  0.00    +0.023 A 
ATOM      4  C   UNL     1      -1.118   3.047  -0.004  0.00  0.00    +0.038 A 
ATOM      5  C   UNL     1      -1.190   1.672  -0.015  0.00  0.00    +0.008 A 
ATOM      6  C   UNL     1      -0.006   0.934  -0.062  0.00  0.00    +0.008 A 
ATOM      7  C   UNL     1      -2.452   0.850   0.044  0.00  0.00    +0.174 C 
ATOM      8  N   UNL     1      -3.664   1.615  -0.160  0.00  0.00    -0.323 N 
ATOM      9  C   UNL     1      -4.069   2.592   0.748  0.00  0.00    +0.051 A 
ATOM     10  C   UNL     1      -5.193   2.407   1.539  0.00  0.00    +0.044 A 
ATOM     11  C   UNL     1      -5.510   3.348   2.505  0.00  0.00    +0.043 A 
ATOM     12  C   UNL     1      -4.714   4.467   2.680  0.00  0.00    +0.022 A 
ATOM     13  C   UNL     1      -3.603   4.664   1.878  0.00  0.00    +0.026 A 
ATOM     14  C   UNL     1      -3.296   3.732   0.902  0.00  0.00    +0.053 A 
ATOM     15  N   UNL     1      -2.215   3.899   0.037  0.00  0.00    -0.313 N 
ATOM     16 CL   UNL     1      -6.914   3.123   3.501  0.00  0.00    -0.083 Cl
ATOM     17  H   UNL     1      -4.287   1.432  -1.048  0.00  0.00    +0.148 HD
ATOM     18  H   UNL     1      -2.264   4.765  -0.640  0.00  0.00    +0.152 HD
ENDROOT
BRANCH   7  19
ATOM     19  N   UNL     1      -2.527   0.194   1.356  0.00  0.00    -0.284 NA
ATOM     20  C   UNL     1      -2.310   1.161   2.441  0.00  0.00    +0.067 C 
ATOM     21  C   UNL     1      -2.318   0.427   3.784  0.00  0.00    -0.067 C 
ATOM     22  N   UNL     1      -3.602  -0.268   3.952  0.00  0.00    +0.381 N 
ATOM     23  C   UNL     1      -3.819  -1.235   2.867  0.00  0.00    -0.067 C 
ATOM     24  C   UNL     1      -3.811  -0.501   1.524  0.00  0.00    +0.067 C 
ATOM     25  H   UNL     1      -3.604  -0.806   4.911  0.00  0.00    -0.086 HD
ATOM     26  H   UNL     1      -4.421   0.466   3.941  0.00  0.00    -0.086 HD
ENDBRANCH   7  19
TORSDOF 1
