REMARK  Name = ZINC36324809
REMARK  4 active torsions:
REMARK  status: ('A' for Active; 'I' for Inactive)
REMARK    1  A    between atoms: C_1  and  C_2
REMARK    2  A    between atoms: C_5  and  C_7
REMARK    3  A    between atoms: C_7  and  N_8
REMARK    4  A    between atoms: C_15  and  N_19
REMARK                            x       y       z     vdW  Elec       q    Type
REMARK                         _______ _______ _______ _____ _____    ______ ____
ROOT
ATOM      1  N   UNL     1       1.983  -3.620  -1.407  0.00  0.00    -0.227 N 
ATOM      2  C   UNL     1       1.269  -4.503  -2.128  0.00  0.00    +0.254 C 
ATOM      3  O   UNL     1       0.289  -5.108  -1.741  0.00  0.00    -0.270 OA
ATOM      4  C   UNL     1       1.877  -4.614  -3.470  0.00  0.00    +0.051 A 
ATOM      5  C   UNL     1       1.584  -5.347  -4.607  0.00  0.00    +0.014 A 
ATOM      6  C   UNL     1       2.378  -5.217  -5.738  0.00  0.00    +0.003 A 
ATOM      7  C   UNL     1       3.460  -4.363  -5.743  0.00  0.00    +0.023 A 
ATOM      8  C   UNL     1       3.773  -3.615  -4.606  0.00  0.00    +0.038 A 
ATOM      9  C   UNL     1       2.982  -3.736  -3.465  0.00  0.00    +0.070 A 
ATOM     10  C   UNL     1       3.004  -3.121  -2.127  0.00  0.00    +0.256 C 
ATOM     11  O   UNL     1       3.812  -2.301  -1.737  0.00  0.00    -0.269 OA
ENDROOT
BRANCH   8  12
ATOM     12  N   UNL     1       4.862  -2.756  -4.613  0.00  0.00    -0.357 N 
ATOM     13  H   UNL     1       5.410  -2.674  -5.410  0.00  0.00    +0.142 HD
ATOM     14  H   UNL     1       5.077  -2.237  -3.822  0.00  0.00    +0.142 HD
ENDBRANCH   8  12
BRANCH   1  15
ATOM     15  C   UNL     1       1.684  -3.245  -0.023  0.00  0.00    +0.191 C 
BRANCH  15  20
ATOM     16  C   UNL     1      -0.018   1.503   0.010  0.00  0.00    +0.086 C 
ATOM     17  C   UNL     1       0.002  -0.004   0.002  0.00  0.00    +0.102 A 
ATOM     18  C   UNL     1      -1.078  -0.805   0.003  0.00  0.00    +0.045 A 
ATOM     19  C   UNL     1      -0.601  -2.136  -0.007  0.00  0.00    +0.046 A 
ATOM     20  C   UNL     1       0.742  -2.069  -0.013  0.00  0.00    +0.123 A 
ATOM     21  O   UNL     1       1.102  -0.775  -0.013  0.00  0.00    -0.463 OA
ENDBRANCH  15  20
ENDBRANCH   1  15
TORSDOF 3
