REMARK  Name = ZINC45141684
REMARK  5 active torsions:
REMARK  status: ('A' for Active; 'I' for Inactive)
REMARK    1  A    between atoms: C_1  and  C_2
REMARK    2  A    between atoms: C_2  and  C_18
REMARK    3  A    between atoms: C_4  and  N_6
REMARK    4  A    between atoms: N_6  and  C_7
REMARK    5  A    between atoms: C_7  and  C_15
REMARK                            x       y       z     vdW  Elec       q    Type
REMARK                         _______ _______ _______ _____ _____    ______ ____
ROOT
ATOM      1  C   UNL     1       0.862  -2.437   2.826  0.00  0.00    +0.036 C 
ATOM      2  C   UNL     1       2.358  -2.449   2.517  0.00  0.00    -0.001 C 
ATOM      3  C   UNL     1       3.005  -3.818   2.742  0.00  0.00    -0.001 C 
ATOM      4  C   UNL     1       3.237  -4.473   1.364  0.00  0.00    -0.000 C 
ATOM      5  C   UNL     1       1.900  -4.922   0.786  0.00  0.00    -0.000 C 
ATOM      6  C   UNL     1       1.060  -5.617   1.848  0.00  0.00    -0.000 C 
ATOM      7  C   UNL     1      -0.108  -4.732   2.265  0.00  0.00    -0.001 C 
ATOM      8  C   UNL     1       0.309  -3.746   3.345  0.00  0.00    -0.001 C 
ENDROOT
BRANCH   1   9
ATOM      9  N   UNL     1       0.130  -1.978   1.633  0.00  0.00    +0.392 N 
ATOM     10  H   UNL     1      -0.842  -1.845   1.866  0.00  0.00    -0.084 HD
ATOM     11  H   UNL     1       0.209  -2.670   0.903  0.00  0.00    -0.084 HD
BRANCH   9  15
ATOM     12  C   UNL     1      -0.019   1.526   0.010  0.00  0.00    +0.009 C 
ATOM     13  C   UNL     1       0.002  -0.004   0.002  0.00  0.00    -0.049 C 
ATOM     14  C   UNL     1       1.351  -0.691  -0.218  0.00  0.00    -0.011 C 
ATOM     15  C   UNL     1       0.701  -0.708   1.167  0.00  0.00    -0.064 C 
ATOM     16  C   UNL     1      -1.239  -0.678  -0.588  0.00  0.00    +0.009 C 
ENDBRANCH   9  15
ENDBRANCH   1   9
BRANCH   1  17
ATOM     17  C   UNL     1       0.640  -1.381   3.905  0.00  0.00    +0.345 C 
ATOM     18  O   UNL     1      -0.042  -0.400   3.666  0.00  0.00    -0.248 OA
ATOM     19  O   UNL     1       1.144  -1.520   5.006  0.00  0.00    -0.248 OA
ENDBRANCH   1  17
TORSDOF 3
