REMARK  Name = ZINC22788793
REMARK  12 active torsions:
REMARK  status: ('A' for Active; 'I' for Inactive)
REMARK    1  A    between atoms: C_1  and  C_2
REMARK    2  A    between atoms: C_2  and  C_4
REMARK    3  A    between atoms: C_2  and  N_21
REMARK    4  A    between atoms: N_6  and  C_7
REMARK    5  A    between atoms: C_10  and  S_13
REMARK    6  A    between atoms: S_13  and  N_16
REMARK    7  A    between atoms: N_25  and  C_28
REMARK    8  A    between atoms: C_28  and  C_29
REMARK    9  A    between atoms: N_31  and  C_32
REMARK   10  A    between atoms: C_32  and  C_33
REMARK   11  A    between atoms: C_32  and  C_34
REMARK   12  A    between atoms: C_32  and  C_35
REMARK                            x       y       z     vdW  Elec       q    Type
REMARK                         _______ _______ _______ _____ _____    ______ ____
ROOT
ATOM      1  C   UNL     1       1.894  -6.560   2.261  0.00  0.00    +0.034 C 
ATOM      2  C   UNL     1       2.469  -6.335   0.861  0.00  0.00    +0.140 C 
ENDROOT
BRANCH   2   3
ATOM      3  N   UNL     1       2.223  -4.947   0.448  0.00  0.00    -0.294 NA
ATOM      4  C   UNL     1       0.815  -4.561   0.694  0.00  0.00    +0.083 C 
ATOM      5  C   UNL     1       0.441  -3.236   0.010  0.00  0.00    -0.003 C 
ATOM      6  C   UNL     1       1.535  -2.205   0.134  0.00  0.00    -0.077 C 
ATOM      7  N   UNL     1       2.407  -2.301  -1.056  0.00  0.00    +0.386 N 
ATOM      8  C   UNL     1       3.340  -3.344  -0.998  0.00  0.00    -0.063 C 
ATOM      9  C   UNL     1       2.662  -4.725  -0.912  0.00  0.00    +0.066 C 
ATOM     10  H   UNL     1       1.777  -2.596  -1.909  0.00  0.00    -0.081 HD
BRANCH   7  11
ATOM     11  C   UNL     1       3.068  -1.018  -1.330  0.00  0.00    +0.019 C 
BRANCH  11  12
ATOM     12  C   UNL     1       2.026   0.029  -1.629  0.00  0.00    +0.197 C 
ATOM     13  O   UNL     1       0.850  -0.264  -1.615  0.00  0.00    -0.278 OA
ATOM     14  N   UNL     1       2.402   1.292  -1.911  0.00  0.00    -0.312 N 
ATOM     15  H   UNL     1       3.470   1.560  -1.919  0.00  0.00    +0.149 HD
BRANCH  14  16
ATOM     16  C   UNL     1       1.390   2.309  -2.207  0.00  0.00    +0.026 C 
ATOM     17  C   UNL     1       0.454   2.462  -1.007  0.00  0.00    +0.031 C 
ATOM     18  C   UNL     1       2.078   3.646  -2.491  0.00  0.00    +0.031 C 
ATOM     19  C   UNL     1       0.582   1.882  -3.434  0.00  0.00    +0.031 C 
ENDBRANCH  14  16
ENDBRANCH  11  12
ENDBRANCH   7  11
ENDBRANCH   2   3
BRANCH   2  20
ATOM     20  C   UNL     1       1.803  -7.273  -0.112  0.00  0.00    +0.234 C 
ATOM     21  O   UNL     1       0.935  -6.863  -0.853  0.00  0.00    -0.274 OA
ATOM     22  N   UNL     1       2.171  -8.569  -0.158  0.00  0.00    -0.284 N 
ATOM     23  H   UNL     1       2.893  -8.962   0.573  0.00  0.00    +0.155 HD
BRANCH  22  24
ATOM     24  C   UNL     1       1.636  -9.414  -1.137  0.00  0.00    +0.034 A 
ATOM     25  C   UNL     1       0.319  -9.257  -1.547  0.00  0.00    +0.025 A 
ATOM     26  C   UNL     1      -0.204 -10.089  -2.518  0.00  0.00    +0.030 A 
ATOM     27  C   UNL     1       0.579 -11.085  -3.072  0.00  0.00    +0.106 A 
ATOM     28  C   UNL     1       1.889 -11.248  -2.661  0.00  0.00    +0.030 A 
ATOM     29  C   UNL     1       2.420 -10.415  -1.696  0.00  0.00    +0.025 A 
BRANCH  27  30
ATOM     30  S   UNL     1      -0.095 -12.148  -4.305  0.00  0.00    +0.061 S 
ATOM     31  O   UNL     1      -1.171 -11.442  -4.907  0.00  0.00    -0.153 OA
ATOM     32  O   UNL     1       1.004 -12.646  -5.056  0.00  0.00    -0.153 OA
BRANCH  30  33
ATOM     33  N   UNL     1      -0.760 -13.446  -3.522  0.00  0.00    -0.177 NA
ATOM     34  C   UNL     1      -0.063 -14.698  -3.193  0.00  0.00    +0.109 C 
ATOM     35  C   UNL     1      -1.082 -15.620  -2.491  0.00  0.00    +0.018 C 
ATOM     36  C   UNL     1      -2.445 -15.060  -2.975  0.00  0.00    +0.018 C 
ATOM     37  C   UNL     1      -2.151 -13.541  -3.043  0.00  0.00    +0.109 C 
ENDBRANCH  30  33
ENDBRANCH  27  30
ENDBRANCH  22  24
ENDBRANCH   2  20
TORSDOF 8
