REMARK  Name = ZINC63530637
REMARK  7 active torsions:
REMARK  status: ('A' for Active; 'I' for Inactive)
REMARK    1  A    between atoms: C_1  and  C_2
REMARK    2  A    between atoms: C_6  and  S_26
REMARK    3  A    between atoms: C_7  and  C_12
REMARK    4  A    between atoms: N_14  and  C_15
REMARK    5  A    between atoms: C_20  and  C_25
REMARK    6  A    between atoms: C_22  and  C_24
REMARK    7  A    between atoms: S_26  and  C_27
REMARK                            x       y       z     vdW  Elec       q    Type
REMARK                         _______ _______ _______ _____ _____    ______ ____
ROOT
ATOM      1  C   UNL     1      -0.527   1.452   0.173  0.00  0.00    +0.044 C 
ATOM      2  C   UNL     1      -0.371  -0.046   0.128  0.00  0.00    -0.048 A 
ATOM      3  C   UNL     1      -0.446  -0.699  -1.104  0.00  0.00    +0.004 A 
ATOM      4  C   UNL     1      -0.313  -2.047  -1.203  0.00  0.00    +0.011 A 
ATOM      5  C   UNL     1      -0.093  -2.817  -0.039  0.00  0.00    +0.010 A 
ATOM      6  C   UNL     1       0.077  -4.182   0.165  0.00  0.00    +0.030 C 
ATOM      7  C   UNL     1       0.271  -4.352   1.655  0.00  0.00    +0.204 C 
ATOM      8  N   UNL     1       0.193  -3.006   2.229  0.00  0.00    -0.369 N 
ATOM      9  C   UNL     1      -0.014  -2.133   1.260  0.00  0.00    +0.044 A 
ATOM     10  C   UNL     1      -0.157  -0.723   1.284  0.00  0.00    +0.029 A 
ATOM     11  H   UNL     1       0.280  -2.790   3.171  0.00  0.00    +0.161 HD
ENDROOT
BRANCH   7  12
ATOM     12  C   UNL     1       1.620  -4.962   1.937  0.00  0.00    +0.241 C 
ATOM     13  O   UNL     1       2.543  -4.256   2.284  0.00  0.00    -0.273 OA
ATOM     14  N   UNL     1       1.800  -6.291   1.804  0.00  0.00    -0.310 N 
ATOM     15  H   UNL     1       1.061  -6.855   1.527  0.00  0.00    +0.149 HD
BRANCH  14  16
ATOM     16  C   UNL     1       3.111  -6.883   2.079  0.00  0.00    +0.076 C 
ATOM     17  C   UNL     1       3.986  -6.788   0.827  0.00  0.00    +0.022 C 
ATOM     18  C   UNL     1       5.356  -7.407   1.113  0.00  0.00    +0.002 C 
ATOM     19  C   UNL     1       5.180  -8.876   1.502  0.00  0.00    +0.003 C 
ATOM     20  C   UNL     1       4.306  -8.971   2.754  0.00  0.00    -0.009 C 
ATOM     21  C   UNL     1       2.936  -8.352   2.468  0.00  0.00    +0.009 C 
ATOM     22  C   UNL     1       2.266  -9.108   1.318  0.00  0.00    +0.009 C 
ATOM     23  C   UNL     1       4.130 -10.441   3.143  0.00  0.00    +0.008 C 
ENDBRANCH  14  16
ENDBRANCH   7  12
BRANCH   6  24
ATOM     24  S   UNL     1       0.070  -5.377  -0.988  0.00  0.00    -0.091 S 
BRANCH  24  25
ATOM     25  C   UNL     1      -1.397  -6.291  -0.645  0.00  0.00    +0.013 A 
ATOM     26  C   UNL     1      -2.289  -5.839   0.320  0.00  0.00    +0.016 A 
ATOM     27  C   UNL     1      -3.438  -6.557   0.586  0.00  0.00    +0.021 A 
ATOM     28  C   UNL     1      -3.701  -7.727  -0.106  0.00  0.00    +0.041 A 
ATOM     29  C   UNL     1      -2.814  -8.179  -1.067  0.00  0.00    +0.021 A 
ATOM     30  C   UNL     1      -1.667  -7.462  -1.343  0.00  0.00    +0.016 A 
ATOM     31 CL   UNL     1      -5.146  -8.627   0.232  0.00  0.00    -0.084 Cl
ENDBRANCH  24  25
ENDBRANCH   6  24
TORSDOF 4
