REMARK  Name = ZINC10036500
REMARK  5 active torsions:
REMARK  status: ('A' for Active; 'I' for Inactive)
REMARK    1  A    between atoms: C_1  and  C_2
REMARK    2  A    between atoms: C_5  and  S_10
REMARK    3  A    between atoms: S_10  and  C_11
REMARK    4  A    between atoms: C_14  and  C_23
REMARK    5  A    between atoms: N_15  and  C_16
REMARK                            x       y       z     vdW  Elec       q    Type
REMARK                         _______ _______ _______ _____ _____    ______ ____
ROOT
ATOM      1  C   UNL     1       0.002  -0.004   0.002  0.00  0.00    +0.197 A 
ATOM      2  N   UNL     1       1.069  -0.768  -0.018  0.00  0.00    -0.122 NA
ATOM      3  N   UNL     1       0.727  -2.007  -0.016  0.00  0.00    -0.128 NA
ATOM      4  C   UNL     1      -0.582  -2.113  -0.004  0.00  0.00    +0.171 A 
ATOM      5  N   UNL     1      -1.090  -0.832   0.008  0.00  0.00    -0.270 N 
ENDROOT
BRANCH   4   6
ATOM      6  C   UNL     1      -1.362  -3.367  -0.003  0.00  0.00    +0.045 A 
ATOM      7  C   UNL     1      -2.715  -3.481   0.016  0.00  0.00    +0.095 A 
ATOM      8  N   UNL     1      -3.066  -4.799   0.006  0.00  0.00    -0.360 N 
ATOM      9  H   UNL     1      -3.978  -5.131   0.013  0.00  0.00    +0.165 HD
ATOM     10  C   UNL     1      -1.939  -5.592  -0.010  0.00  0.00    +0.047 A 
ATOM     11  C   UNL     1      -0.823  -4.737  -0.016  0.00  0.00    +0.010 A 
ATOM     12  C   UNL     1       0.464  -5.271  -0.033  0.00  0.00    +0.011 A 
ATOM     13  C   UNL     1       0.636  -6.637  -0.042  0.00  0.00    +0.001 A 
ATOM     14  C   UNL     1      -0.465  -7.482  -0.036  0.00  0.00    +0.002 A 
ATOM     15  C   UNL     1      -1.743  -6.970  -0.020  0.00  0.00    +0.026 A 
ENDBRANCH   4   6
BRANCH   5  16
ATOM     16  C   UNL     1      -2.440  -0.455   0.024  0.00  0.00    +0.051 A 
ATOM     17  C   UNL     1      -3.237  -0.768   1.117  0.00  0.00    +0.028 A 
ATOM     18  C   UNL     1      -4.566  -0.392   1.132  0.00  0.00    +0.022 A 
ATOM     19  C   UNL     1      -5.106   0.288   0.054  0.00  0.00    +0.041 A 
ATOM     20  C   UNL     1      -4.315   0.597  -1.038  0.00  0.00    +0.022 A 
ATOM     21  C   UNL     1      -2.984   0.227  -1.056  0.00  0.00    +0.028 A 
ATOM     22 CL   UNL     1      -6.777   0.755   0.074  0.00  0.00    -0.084 Cl
ENDBRANCH   5  16
BRANCH   1  23
ATOM     23  S   UNL     1      -0.022   1.758   0.012  0.00  0.00    -0.071 S 
BRANCH  23  27
ATOM     24  C   UNL     1       4.492   3.708  -0.441  0.00  0.00    +0.052 C 
ATOM     25  C   UNL     1       3.090   3.804  -1.045  0.00  0.00    +0.175 C 
ATOM     26  C   UNL     1       2.014   3.619   0.049  0.00  0.00    +0.070 C 
ATOM     27  C   UNL     1       1.756   2.096  -0.004  0.00  0.00    +0.166 C 
ATOM     28  C   UNL     1       2.367   1.645  -1.312  0.00  0.00    +0.321 C 
ATOM     29  O   UNL     1       2.406   0.502  -1.703  0.00  0.00    -0.250 OA
ATOM     30  O   UNL     1       2.858   2.703  -1.973  0.00  0.00    -0.461 OA
ENDBRANCH  23  27
ENDBRANCH   1  23
TORSDOF 4
