REMARK  Name = ZINC67102063
REMARK  7 active torsions:
REMARK  status: ('A' for Active; 'I' for Inactive)
REMARK    1  A    between atoms: C_1  and  C_2
REMARK    2  A    between atoms: C_6  and  C_7
REMARK    3  A    between atoms: N_9  and  N_10
REMARK    4  A    between atoms: C_17  and  C_20
REMARK    5  A    between atoms: C_20  and  N_21
REMARK    6  A    between atoms: N_21  and  S_22
REMARK    7  A    between atoms: S_22  and  C_25
REMARK                            x       y       z     vdW  Elec       q    Type
REMARK                         _______ _______ _______ _____ _____    ______ ____
ROOT
ATOM      1  N   UNL     1       0.054  -0.732   4.900  0.00  0.00    -0.218 N 
ATOM      2  C   UNL     1       0.182  -1.623   5.904  0.00  0.00    +0.319 C 
ATOM      3  O   UNL     1       0.191  -1.240   7.058  0.00  0.00    -0.251 OA
ATOM      4  N   UNL     1       0.299  -2.937   5.628  0.00  0.00    -0.284 N 
ATOM      5  C   UNL     1       0.409  -3.403   4.239  0.00  0.00    +0.109 C 
ATOM      6  C   UNL     1      -0.667  -4.464   3.988  0.00  0.00    +0.019 C 
ATOM      7  C   UNL     1      -0.540  -5.572   5.035  0.00  0.00    +0.008 C 
ATOM      8  C   UNL     1      -0.757  -4.984   6.432  0.00  0.00    +0.022 C 
ATOM      9  C   UNL     1       0.324  -3.929   6.711  0.00  0.00    +0.114 C 
ATOM     10  H   UNL     1      -0.028  -1.042   3.985  0.00  0.00    +0.174 HD
ENDROOT
BRANCH   1  13
ATOM     11  C   UNL     1       0.016   1.533   4.170  0.00  0.00    +0.267 C 
ATOM     12  O   UNL     1       0.004   1.147   3.016  0.00  0.00    -0.268 OA
ATOM     13  N   UNL     1       0.041   0.641   5.179  0.00  0.00    -0.229 N 
ATOM     14  H   UNL     1       0.050   0.949   6.099  0.00  0.00    +0.173 HD
BRANCH  11  20
ATOM     15  C   UNL     1      -0.043   3.849   2.087  0.00  0.00    +0.045 C 
ATOM     16  C   UNL     1      -0.024   4.040   3.581  0.00  0.00    -0.031 A 
ATOM     17  C   UNL     1      -0.038   5.288   4.158  0.00  0.00    +0.011 A 
ATOM     18  C   UNL     1      -0.020   5.389   5.510  0.00  0.00    +0.046 A 
ATOM     19  S   UNL     1       0.015   3.796   6.042  0.00  0.00    -0.092 S 
ATOM     20  C   UNL     1       0.002   2.970   4.462  0.00  0.00    +0.078 A 
ENDBRANCH  11  20
ENDBRANCH   1  13
BRANCH   8  21
ATOM     21  C   UNL     1      -0.663  -6.099   7.475  0.00  0.00    +0.110 C 
BRANCH  21  22
ATOM     22  N   UNL     1      -0.988  -5.559   8.798  0.00  0.00    -0.194 NA
ATOM     23  H   UNL     1      -1.003  -4.600   8.940  0.00  0.00    +0.148 HD
BRANCH  22  24
ATOM     24  S   UNL     1      -1.331  -6.587  10.050  0.00  0.00    +0.027 S 
ATOM     25  O   UNL     1      -1.618  -5.734  11.150  0.00  0.00    -0.158 OA
ATOM     26  O   UNL     1      -2.322  -7.466   9.537  0.00  0.00    -0.158 OA
ATOM     27  C   UNL     1       0.213  -7.491  10.347  0.00  0.00    +0.214 C 
ENDBRANCH  22  24
ENDBRANCH  21  22
ENDBRANCH   8  21
TORSDOF 5
