REMARK  Name = ZINC07126150
REMARK  5 active torsions:
REMARK  status: ('A' for Active; 'I' for Inactive)
REMARK    1  A    between atoms: C_10  and  C_16
REMARK    2  A    between atoms: C_19  and  O_26
REMARK    3  A    between atoms: C_21  and  O_22
REMARK    4  A    between atoms: O_22  and  C_23
REMARK    5  A    between atoms: O_26  and  C_27
REMARK                            x       y       z     vdW  Elec       q    Type
REMARK                         _______ _______ _______ _____ _____    ______ ____
ROOT
ATOM      1  C   UNL     1      -0.133   1.069  -0.124  0.00  0.00    +0.002 A 
ATOM      2  C   UNL     1       1.008   1.859  -0.122  0.00  0.00    +0.002 A 
ATOM      3  C   UNL     1       2.259   1.281  -0.103  0.00  0.00    +0.028 A 
ATOM      4  C   UNL     1       2.384  -0.101  -0.085  0.00  0.00    +0.072 A 
ATOM      5  C   UNL     1       1.230  -0.906  -0.084  0.00  0.00    +0.091 A 
ATOM      6  C   UNL     1      -0.030  -0.303  -0.105  0.00  0.00    +0.030 A 
ATOM      7  N   UNL     1       1.642  -2.203  -0.059  0.00  0.00    -0.214 NA
ATOM      8  C   UNL     1       2.942  -2.246  -0.044  0.00  0.00    +0.205 A 
ATOM      9  N   UNL     1       3.451  -0.971  -0.067  0.00  0.00    -0.288 N 
ATOM     10  C   UNL     1       4.886  -0.668  -0.080  0.00  0.00    +0.212 C 
ATOM     11  N   UNL     1       5.608  -1.902   0.284  0.00  0.00    -0.294 N 
ATOM     12  C   UNL     1       5.126  -3.105  -0.212  0.00  0.00    +0.159 C 
ATOM     13  N   UNL     1       3.771  -3.365  -0.006  0.00  0.00    -0.259 N 
ATOM     14  N   UNL     1       5.899  -3.947  -0.838  0.00  0.00    -0.375 N 
ATOM     15  H   UNL     1       6.394  -1.874   0.851  0.00  0.00    +0.151 HD
ATOM     16  H   UNL     1       6.838  -3.740  -0.967  0.00  0.00    +0.158 HD
ATOM     17  H   UNL     1       3.431  -4.260   0.151  0.00  0.00    +0.158 HD
ATOM     18  H   UNL     1       5.535  -4.781  -1.175  0.00  0.00    +0.158 HD
ENDROOT
BRANCH  10  19
ATOM     19  C   UNL     1       5.301  -0.219  -1.457  0.00  0.00    +0.035 A 
ATOM     20  C   UNL     1       4.476  -0.458  -2.539  0.00  0.00    +0.014 A 
ATOM     21  C   UNL     1       4.854  -0.047  -3.803  0.00  0.00    +0.046 A 
ATOM     22  C   UNL     1       6.064   0.607  -3.988  0.00  0.00    +0.130 A 
ATOM     23  C   UNL     1       6.894   0.848  -2.904  0.00  0.00    +0.092 A 
ATOM     24  C   UNL     1       6.510   0.439  -1.636  0.00  0.00    +0.137 A 
BRANCH  24  25
ATOM     25  O   UNL     1       7.318   0.679  -0.571  0.00  0.00    -0.434 OA
BRANCH  25  26
ATOM     26  C   UNL     1       8.547   1.361  -0.829  0.00  0.00    +0.541 C 
ATOM     27  F   UNL     1       9.317   0.612  -1.724  0.00  0.00    -0.166 F 
ATOM     28  F   UNL     1       8.276   2.616  -1.385  0.00  0.00    -0.166 F 
ENDBRANCH  25  26
ENDBRANCH  24  25
BRANCH  22  29
ATOM     29  O   UNL     1       6.436   1.010  -5.232  0.00  0.00    -0.434 OA
BRANCH  29  30
ATOM     30  C   UNL     1       5.532   0.729  -6.302  0.00  0.00    +0.541 C 
ATOM     31  F   UNL     1       5.338  -0.654  -6.398  0.00  0.00    -0.166 F 
ATOM     32  F   UNL     1       4.306   1.355  -6.054  0.00  0.00    -0.166 F 
ENDBRANCH  29  30
ENDBRANCH  22  29
ENDBRANCH  10  19
TORSDOF 5
