REMARK  Name = ZINC20313787
REMARK  3 active torsions:
REMARK  status: ('A' for Active; 'I' for Inactive)
REMARK    1  A    between atoms: C_1  and  C_2
REMARK    2  A    between atoms: C_4  and  N_12
REMARK    3  A    between atoms: N_5  and  C_7
REMARK                            x       y       z     vdW  Elec       q    Type
REMARK                         _______ _______ _______ _____ _____    ______ ____
ROOT
ATOM      1  C   UNL     1       3.606   0.789  -0.028  0.00  0.00    +0.069 C 
ATOM      2  C   UNL     1       2.099   0.756  -0.014  0.00  0.00    +0.076 A 
ATOM      3  C   UNL     1       1.307  -0.395  -0.013  0.00  0.00    +0.080 A 
ATOM      4  C   UNL     1       0.002  -0.004   0.002  0.00  0.00    +0.129 A 
ATOM      5  N   UNL     1      -0.016   1.354   0.009  0.00  0.00    -0.247 N 
ATOM      6  N   UNL     1       1.311   1.801  -0.001  0.00  0.00    -0.173 NA
ATOM      7 BR   UNL     1       1.934  -2.179  -0.028  0.00  0.00    -0.045 Br
ENDROOT
BRANCH   5   8
ATOM      8  C   UNL     1      -1.212   2.201   0.020  0.00  0.00    +0.109 C 
ATOM      9  C   UNL     1      -1.204   3.141  -1.203  0.00  0.00    +0.027 C 
ATOM     10  C   UNL     1      -1.798   4.468  -0.665  0.00  0.00    +0.002 C 
ATOM     11  C   UNL     1      -1.199   4.558   0.761  0.00  0.00    +0.002 C 
ATOM     12  C   UNL     1      -1.209   3.101   1.268  0.00  0.00    +0.027 C 
ENDBRANCH   5   8
BRANCH   4  13
ATOM     13  N   UNL     1      -1.110  -0.843   0.008  0.00  0.00    -0.342 N 
ATOM     14  H   UNL     1      -2.122  -0.414   0.020  0.00  0.00    +0.144 HD
ATOM     15  H   UNL     1      -0.975  -1.935   0.000  0.00  0.00    +0.144 HD
ENDBRANCH   4  13
TORSDOF 2
