REMARK  Name = ZINC18523438
REMARK  9 active torsions:
REMARK  status: ('A' for Active; 'I' for Inactive)
REMARK    1  A    between atoms: C_1  and  C_2
REMARK    2  A    between atoms: C_10  and  C_11
REMARK    3  A    between atoms: C_11  and  O_13
REMARK    4  A    between atoms: O_13  and  C_14
REMARK    5  A    between atoms: C_14  and  C_16
REMARK    6  A    between atoms: C_14  and  C_17
REMARK    7  A    between atoms: N_19  and  C_20
REMARK    8  A    between atoms: C_24  and  S_26
REMARK    9  A    between atoms: S_26  and  N_29
REMARK                            x       y       z     vdW  Elec       q    Type
REMARK                         _______ _______ _______ _____ _____    ______ ____
ROOT
ATOM      1  C   UNL     1      -5.635  -0.727   0.057  0.00  0.00    +0.259 C 
ATOM      2  C   UNL     1      -6.162  -0.718  -1.379  0.00  0.00    +0.062 C 
ENDROOT
BRANCH   1   3
ATOM      3  C   UNL     1      -6.107  -1.975   0.758  0.00  0.00    +0.258 C 
ATOM      4  O   UNL     1      -5.299  -2.765   1.199  0.00  0.00    -0.271 OA
ATOM      5  N   UNL     1      -7.426  -2.214   0.894  0.00  0.00    -0.282 N 
ATOM      6  H   UNL     1      -8.072  -1.552   0.601  0.00  0.00    +0.155 HD
BRANCH   5   7
ATOM      7  C   UNL     1      -7.865  -3.417   1.457  0.00  0.00    +0.035 A 
ATOM      8  C   UNL     1      -7.137  -4.014   2.478  0.00  0.00    +0.023 A 
ATOM      9  C   UNL     1      -7.573  -5.202   3.032  0.00  0.00    +0.004 A 
ATOM     10  C   UNL     1      -8.733  -5.797   2.570  0.00  0.00    +0.028 A 
ATOM     11  C   UNL     1      -9.460  -5.206   1.554  0.00  0.00    +0.107 A 
ATOM     12  C   UNL     1      -9.032  -4.015   1.000  0.00  0.00    +0.051 A 
BRANCH  11  13
ATOM     13  S   UNL     1     -10.937  -5.968   0.970  0.00  0.00    +0.056 S 
ATOM     14  O   UNL     1     -11.139  -5.500  -0.357  0.00  0.00    -0.153 OA
ATOM     15  O   UNL     1     -10.831  -7.350   1.281  0.00  0.00    -0.153 OA
BRANCH  13  16
ATOM     16  N   UNL     1     -12.187  -5.372   1.877  0.00  0.00    -0.204 NA
ATOM     17  H   UNL     1     -12.012  -4.724   2.577  0.00  0.00    +0.144 HD
ATOM     18  H   UNL     1     -13.094  -5.672   1.709  0.00  0.00    +0.144 HD
ENDBRANCH  13  16
ENDBRANCH  11  13
ENDBRANCH   5   7
ENDBRANCH   1   3
BRANCH   1  19
ATOM     19  O   UNL     1      -4.184  -0.701   0.040  0.00  0.00    -0.447 OA
BRANCH  19  20
ATOM     20  C   UNL     1      -3.593   0.512   0.048  0.00  0.00    +0.376 C 
ATOM     21  O   UNL     1      -4.274   1.519   0.069  0.00  0.00    -0.241 OA
BRANCH  20  31
ATOM     22  C   UNL     1      -1.989   3.177   0.069  0.00  0.00    +0.048 C 
ATOM     23  C   UNL     1      -1.427   1.779   0.043  0.00  0.00    +0.010 A 
ATOM     24  C   UNL     1      -0.015   1.400   0.016  0.00  0.00    +0.025 A 
ATOM     25  C   UNL     1       1.185   2.116   0.011  0.00  0.00    +0.032 A 
ATOM     26  C   UNL     1       2.375   1.443  -0.011  0.00  0.00    +0.042 A 
ATOM     27  C   UNL     1       2.397   0.053  -0.028  0.00  0.00    +0.023 A 
ATOM     28  C   UNL     1       1.225  -0.670  -0.023  0.00  0.00    +0.048 A 
ATOM     29  C   UNL     1       0.003  -0.007  -0.001  0.00  0.00    +0.136 A 
ATOM     30  O   UNL     1      -1.276  -0.431   0.009  0.00  0.00    -0.448 OA
ATOM     31  C   UNL     1      -2.129   0.615   0.032  0.00  0.00    +0.216 A 
ATOM     32 CL   UNL     1       3.868   2.329  -0.018  0.00  0.00    -0.084 Cl
ENDBRANCH  20  31
ENDBRANCH  19  20
ENDBRANCH   1  19
TORSDOF 7
