REMARK  Name = ZINC47964715
REMARK  9 active torsions:
REMARK  status: ('A' for Active; 'I' for Inactive)
REMARK    1  A    between atoms: C_1  and  N_2
REMARK    2  A    between atoms: N_2  and  C_3
REMARK    3  A    between atoms: N_2  and  C_4
REMARK    4  A    between atoms: C_4  and  C_6
REMARK    5  A    between atoms: C_4  and  C_21
REMARK    6  A    between atoms: C_6  and  N_7
REMARK    7  A    between atoms: C_8  and  C_10
REMARK    8  A    between atoms: N_12  and  C_13
REMARK    9  A    between atoms: C_14  and  C_18
REMARK                            x       y       z     vdW  Elec       q    Type
REMARK                         _______ _______ _______ _____ _____    ______ ____
ROOT
ATOM      1  N   UNL     1      -1.702   1.302  -1.405  0.00  0.00    -0.309 N 
ATOM      2  C   UNL     1      -2.076   1.923  -2.541  0.00  0.00    +0.299 C 
ATOM      3  O   UNL     1      -2.646   1.301  -3.414  0.00  0.00    -0.265 OA
ATOM      4  H   UNL     1      -1.246   1.799  -0.708  0.00  0.00    +0.149 HD
ENDROOT
BRANCH   2   5
ATOM      5  C   UNL     1      -1.789   3.377  -2.726  0.00  0.00    +0.304 C 
ATOM      6  O   UNL     1      -1.220   3.999  -1.853  0.00  0.00    -0.265 OA
ATOM      7  N   UNL     1      -2.163   3.998  -3.862  0.00  0.00    -0.272 N 
ATOM      8  H   UNL     1      -2.619   3.501  -4.559  0.00  0.00    +0.156 HD
BRANCH   7   9
ATOM      9  C   UNL     1      -1.898   5.346  -4.033  0.00  0.00    +0.084 A 
ATOM     10  C   UNL     1      -2.212   6.146  -5.123  0.00  0.00    +0.065 A 
ATOM     11  C   UNL     1      -1.816   7.532  -5.042  0.00  0.00    +0.022 A 
ATOM     12  C   UNL     1      -1.183   7.897  -3.911  0.00  0.00    +0.048 A 
ATOM     13  S   UNL     1      -1.130   6.389  -2.967  0.00  0.00    -0.081 S 
BRANCH  10  14
ATOM     14  C   UNL     1      -2.908   5.610  -6.297  0.00  0.00    +0.244 C 
ATOM     15  O   UNL     1      -3.227   4.436  -6.333  0.00  0.00    -0.270 OA
ATOM     16  N   UNL     1      -3.196   6.418  -7.337  0.00  0.00    -0.325 N 
ATOM     17  H   UNL     1      -2.942   7.353  -7.309  0.00  0.00    +0.145 HD
ATOM     18  H   UNL     1      -3.656   6.063  -8.114  0.00  0.00    +0.145 HD
ENDBRANCH  10  14
ENDBRANCH   7   9
ENDBRANCH   2   5
BRANCH   1  19
ATOM     19  C   UNL     1      -1.983  -0.125  -1.224  0.00  0.00    +0.094 C 
BRANCH  19  20
ATOM     20  C   UNL     1      -1.353  -0.606   0.085  0.00  0.00    -0.020 C 
BRANCH  20  21
ATOM     21  C   UNL     1       0.147  -0.502  -0.012  0.00  0.00    -0.041 A 
ATOM     22  C   UNL     1       0.805   0.566   0.570  0.00  0.00    +0.003 A 
ATOM     23  C   UNL     1       2.181   0.661   0.481  0.00  0.00    +0.000 A 
ATOM     24  C   UNL     1       2.901  -0.311  -0.189  0.00  0.00    +0.001 A 
ATOM     25  C   UNL     1       2.244  -1.379  -0.770  0.00  0.00    +0.020 A 
ATOM     26  C   UNL     1       0.868  -1.478  -0.677  0.00  0.00    +0.043 A 
ATOM     27 CL   UNL     1       0.043  -2.823  -1.402  0.00  0.00    -0.083 Cl
ENDBRANCH  20  21
BRANCH  20  29
ATOM     28  C   UNL     1      -3.300   0.231   1.207  0.00  0.00    -0.096 C 
ATOM     29  N   UNL     1      -1.831   0.228   1.195  0.00  0.00    +0.382 N 
ATOM     30  C   UNL     1      -1.332  -0.314   2.465  0.00  0.00    -0.096 C 
ATOM     31  H   UNL     1      -1.494   1.172   1.076  0.00  0.00    -0.082 HD
ENDBRANCH  20  29
ENDBRANCH  19  20
ENDBRANCH   1  19
TORSDOF 7
