REMARK  Name = ZINC41681568
REMARK  7 active torsions:
REMARK  status: ('A' for Active; 'I' for Inactive)
REMARK    1  A    between atoms: C_1  and  C_2
REMARK    2  A    between atoms: C_5  and  C_9
REMARK    3  A    between atoms: C_7  and  N_8
REMARK    4  A    between atoms: C_9  and  N_10
REMARK    5  A    between atoms: C_12  and  C_19
REMARK    6  A    between atoms: C_15  and  C_17
REMARK    7  A    between atoms: C_15  and  C_18
REMARK                            x       y       z     vdW  Elec       q    Type
REMARK                         _______ _______ _______ _____ _____    ______ ____
ROOT
ATOM      1  C   UNL     1      -0.018   1.503   0.010  0.00  0.00    +0.045 C 
ATOM      2  C   UNL     1       0.002  -0.004   0.002  0.00  0.00    -0.030 A 
ATOM      3  C   UNL     1       0.006  -0.689  -1.198  0.00  0.00    +0.005 A 
ATOM      4  C   UNL     1       0.024  -2.071  -1.206  0.00  0.00    +0.005 A 
ATOM      5  C   UNL     1       0.039  -2.773  -0.014  0.00  0.00    -0.032 A 
ATOM      6  C   UNL     1       0.036  -2.095   1.188  0.00  0.00    +0.028 A 
ATOM      7  C   UNL     1       0.023  -0.706   1.200  0.00  0.00    +0.028 A 
ENDROOT
BRANCH   7   8
ATOM      8  N   UNL     1       0.025  -0.016   2.415  0.00  0.00    -0.358 N 
ATOM      9  H   UNL     1       0.012   0.954   2.422  0.00  0.00    +0.142 HD
ATOM     10  H   UNL     1       0.040  -0.507   3.252  0.00  0.00    +0.142 HD
ENDBRANCH   7   8
BRANCH   5  11
ATOM     11  C   UNL     1       0.058  -4.280  -0.029  0.00  0.00    +0.119 C 
BRANCH  11  12
ATOM     12  N   UNL     1       1.450  -4.752  -0.040  0.00  0.00    -0.293 NA
ATOM     13  C   UNL     1       2.119  -4.388  -1.298  0.00  0.00    +0.116 C 
ATOM     14  C   UNL     1       3.579  -4.845  -1.243  0.00  0.00    +0.130 C 
ATOM     15  O   UNL     1       3.624  -6.253  -0.993  0.00  0.00    -0.368 OA
ATOM     16  C   UNL     1       2.982  -6.642   0.224  0.00  0.00    +0.077 C 
ATOM     17  C   UNL     1       1.516  -6.203   0.184  0.00  0.00    +0.119 C 
ATOM     18  C   UNL     1       3.683  -5.973   1.408  0.00  0.00    +0.042 C 
ATOM     19  C   UNL     1       3.056  -8.162   0.377  0.00  0.00    +0.042 C 
ATOM     20  C   UNL     1       4.260  -4.540  -2.579  0.00  0.00    +0.039 C 
ENDBRANCH  11  12
ENDBRANCH   5  11
TORSDOF 3
