REMARK  Name = ZINC44882279
REMARK  3 active torsions:
REMARK  status: ('A' for Active; 'I' for Inactive)
REMARK    1  A    between atoms: C_1  and  C_2
REMARK    2  A    between atoms: C_2  and  N_9
REMARK    3  A    between atoms: C_16  and  C_18
REMARK                            x       y       z     vdW  Elec       q    Type
REMARK                         _______ _______ _______ _____ _____    ______ ____
ROOT
ATOM      1  N   UNL     1       0.731  -0.456  -1.186  0.00  0.00    -0.292 N 
ATOM      2  C   UNL     1       0.300  -0.105  -2.414  0.00  0.00    +0.304 C 
ATOM      3  O   UNL     1      -0.693   0.586  -2.536  0.00  0.00    -0.253 OA
ATOM      4  N   UNL     1       0.971  -0.521  -3.507  0.00  0.00    -0.262 N 
ATOM      5  C   UNL     1       2.179  -1.367  -3.404  0.00  0.00    +0.179 C 
ATOM      6  S   UNL     1       2.211  -2.153  -5.075  0.00  0.00    -0.139 S 
ATOM      7  C   UNL     1       1.423  -0.747  -5.980  0.00  0.00    +0.105 C 
ATOM      8  C   UNL     1       0.540  -0.165  -4.849  0.00  0.00    +0.201 C 
ATOM      9  H   UNL     1       1.523  -1.007  -1.089  0.00  0.00    +0.151 HD
ENDROOT
BRANCH   1  11
ATOM     10  C   UNL     1      -0.019   1.526   0.010  0.00  0.00    +0.033 C 
ATOM     11  C   UNL     1       0.002  -0.004   0.002  0.00  0.00    +0.054 C 
ATOM     12  C   UNL     1      -1.436  -0.513  -0.087  0.00  0.00    +0.049 C 
ATOM     13  C   UNL     1      -1.556  -1.909   0.586  0.00  0.00    +0.168 C 
ATOM     14  S   UNL     1      -0.454  -1.644   2.043  0.00  0.00    -0.029 S 
ATOM     15  O   UNL     1      -1.172  -0.949   3.053  0.00  0.00    -0.174 OA
ATOM     16  O   UNL     1       0.202  -2.864   2.361  0.00  0.00    -0.174 OA
ATOM     17  C   UNL     1       0.751  -0.495   1.257  0.00  0.00    +0.191 C 
ENDBRANCH   1  11
BRANCH   8  18
ATOM     18  C   UNL     1       0.543   1.337  -4.970  0.00  0.00    +0.377 C 
ATOM     19  O   UNL     1       1.332   1.999  -4.318  0.00  0.00    -0.244 OA
ATOM     20  O   UNL     1      -0.243   1.890  -5.720  0.00  0.00    -0.244 OA
ENDBRANCH   8  18
TORSDOF 2
