REMARK  Name = ZINC49025558
REMARK  9 active torsions:
REMARK  status: ('A' for Active; 'I' for Inactive)
REMARK    1  A    between atoms: C_1  and  C_2
REMARK    2  A    between atoms: C_2  and  N_3
REMARK    3  A    between atoms: N_3  and  C_4
REMARK    4  A    between atoms: C_4  and  C_5
REMARK    5  A    between atoms: N_7  and  C_8
REMARK    6  A    between atoms: C_9  and  C_11
REMARK    7  A    between atoms: C_16  and  C_17
REMARK    8  A    between atoms: C_18  and  C_19
REMARK    9  A    between atoms: C_19  and  N_20
REMARK                            x       y       z     vdW  Elec       q    Type
REMARK                         _______ _______ _______ _____ _____    ______ ____
ROOT
ATOM      1  C   UNL     1      -1.483  -0.576  -2.327  0.00  0.00    +0.055 A 
ATOM      2  C   UNL     1      -2.295  -1.123  -1.333  0.00  0.00    +0.052 A 
ATOM      3  C   UNL     1      -3.660  -0.909  -1.363  0.00  0.00    +0.124 A 
ATOM      4  C   UNL     1      -4.231  -0.153  -2.377  0.00  0.00    +0.039 A 
ATOM      5  C   UNL     1      -3.443   0.396  -3.367  0.00  0.00    +0.020 A 
ATOM      6  C   UNL     1      -2.063   0.197  -3.351  0.00  0.00    +0.037 A 
ATOM      7  F   UNL     1      -4.444  -1.440  -0.399  0.00  0.00    -0.205 F 
ENDROOT
BRANCH   1   9
ATOM      8  N   UNL     1       0.700  -0.400  -1.238  0.00  0.00    -0.289 N 
ATOM      9  C   UNL     1      -0.025  -0.801  -2.300  0.00  0.00    +0.248 C 
ATOM     10  O   UNL     1       0.523  -1.348  -3.238  0.00  0.00    -0.270 OA
BRANCH   8  12
ATOM     11  C   UNL     1      -0.001   1.693  -0.183  0.00  0.00    +0.024 C 
ATOM     12  C   UNL     1       0.029   0.168  -0.065  0.00  0.00    +0.105 C 
ENDBRANCH   8  12
BRANCH   8  13
ATOM     13  C   UNL     1       2.159  -0.531  -1.254  0.00  0.00    +0.203 C 
BRANCH  13  14
ATOM     14  C   UNL     1       2.549  -1.875  -0.694  0.00  0.00    +0.230 C 
ATOM     15  O   UNL     1       1.692  -2.647  -0.318  0.00  0.00    -0.274 OA
ATOM     16  N   UNL     1       3.850  -2.219  -0.611  0.00  0.00    -0.317 N 
ATOM     17  C   UNL     1       4.229  -3.525  -0.067  0.00  0.00    +0.128 C 
ATOM     18  H   UNL     1       4.535  -1.601  -0.912  0.00  0.00    +0.148 HD
ENDBRANCH  13  14
ENDBRANCH   8  13
ENDBRANCH   1   9
BRANCH   6  19
ATOM     19  C   UNL     1      -1.241   0.769  -4.374  0.00  0.00    -0.067 C 
ATOM     20  C   UNL     1      -0.567   1.239  -5.213  0.00  0.00    -0.117 C 
BRANCH  20  21
ATOM     21  C   UNL     1       0.278   1.827  -6.265  0.00  0.00    +0.005 C 
BRANCH  21  22
ATOM     22  N   UNL     1      -0.563   2.580  -7.205  0.00  0.00    +0.385 N 
ATOM     23  H   UNL     1      -1.238   1.959  -7.624  0.00  0.00    -0.089 HD
ATOM     24  H   UNL     1      -1.045   3.316  -6.710  0.00  0.00    -0.089 HD
ATOM     25  H   UNL     1       0.016   2.984  -7.926  0.00  0.00    -0.089 HD
ENDBRANCH  21  22
ENDBRANCH  20  21
ENDBRANCH   6  19
TORSDOF 7
