REMARK  Name = ZINC05049553
REMARK  4 active torsions:
REMARK  status: ('A' for Active; 'I' for Inactive)
REMARK    1  A    between atoms: C_6  and  C_7
REMARK    2  A    between atoms: C_7  and  C_8
REMARK    3  A    between atoms: C_7  and  N_15
REMARK    4  A    between atoms: N_15  and  C_16
REMARK                            x       y       z     vdW  Elec       q    Type
REMARK                         _______ _______ _______ _____ _____    ______ ____
ROOT
ATOM      1  C   UNL     1       1.219  -2.179  -0.034  0.00  0.00    +0.132 C 
ENDROOT
BRANCH   1   7
ATOM      2  C   UNL     1       0.006   0.010  -0.016  0.00  0.00    +0.007 A 
ATOM      3  C   UNL     1      -0.005   1.392  -0.004  0.00  0.00    +0.020 A 
ATOM      4  C   UNL     1       1.188   2.093  -0.000  0.00  0.00    +0.041 A 
ATOM      5  C   UNL     1       2.391   1.409  -0.007  0.00  0.00    +0.020 A 
ATOM      6  C   UNL     1       2.401   0.027  -0.018  0.00  0.00    +0.007 A 
ATOM      7  C   UNL     1       1.208  -0.672  -0.022  0.00  0.00    -0.023 A 
ATOM      8 CL   UNL     1       1.176   3.829   0.014  0.00  0.00    -0.084 Cl
ENDBRANCH   1   7
BRANCH   1   9
ATOM      9  C   UNL     1       1.471  -2.690   1.361  0.00  0.00    -0.023 A 
ATOM     10  C   UNL     1       2.759  -2.724   1.863  0.00  0.00    +0.007 A 
ATOM     11  C   UNL     1       2.990  -3.188   3.144  0.00  0.00    +0.020 A 
ATOM     12  C   UNL     1       1.934  -3.628   3.921  0.00  0.00    +0.041 A 
ATOM     13  C   UNL     1       0.646  -3.599   3.417  0.00  0.00    +0.020 A 
ATOM     14  C   UNL     1       0.415  -3.130   2.137  0.00  0.00    +0.007 A 
ATOM     15 CL   UNL     1       2.224  -4.217   5.528  0.00  0.00    -0.084 Cl
ENDBRANCH   1   9
BRANCH   1  16
ATOM     16  N   UNL     1       2.280  -2.653  -0.926  0.00  0.00    -0.316 N 
ATOM     17  H   UNL     1       2.365  -2.029  -1.704  0.00  0.00    +0.148 HD
BRANCH  16  18
ATOM     18  C   UNL     1       2.185  -3.905  -1.511  0.00  0.00    +0.152 A 
ATOM     19  C   UNL     1       3.188  -4.371  -2.364  0.00  0.00    +0.147 A 
ATOM     20  C   UNL     1       3.055  -5.651  -2.926  0.00  0.00    +0.165 A 
ATOM     21  N   UNL     1       4.138  -5.851  -3.701  0.00  0.00    -0.329 N 
ATOM     22  C   UNL     1       4.916  -4.805  -3.653  0.00  0.00    +0.198 A 
ATOM     23  N   UNL     1       4.379  -3.864  -2.844  0.00  0.00    -0.231 NA
ATOM     24  H   UNL     1       4.319  -6.677  -4.234  0.00  0.00    +0.168 HD
ATOM     25  N   UNL     1       1.976  -6.379  -2.621  0.00  0.00    -0.195 NA
ATOM     26  C   UNL     1       1.042  -5.892  -1.823  0.00  0.00    +0.216 A 
ATOM     27  N   UNL     1       1.137  -4.689  -1.272  0.00  0.00    -0.198 NA
ATOM     28  N   UNL     1      -0.070  -6.670  -1.542  0.00  0.00    -0.327 N 
ATOM     29  H   UNL     1      -0.761  -6.333  -0.951  0.00  0.00    +0.145 HD
ATOM     30  H   UNL     1      -0.157  -7.552  -1.936  0.00  0.00    +0.145 HD
ENDBRANCH  16  18
ENDBRANCH   1  16
TORSDOF 4
