REMARK  Name = ZINC49098298
REMARK  3 active torsions:
REMARK  status: ('A' for Active; 'I' for Inactive)
REMARK    1  A    between atoms: C_1  and  C_2
REMARK    2  A    between atoms: C_6  and  C_19
REMARK    3  A    between atoms: C_10  and  C_12
REMARK                            x       y       z     vdW  Elec       q    Type
REMARK                         _______ _______ _______ _____ _____    ______ ____
ROOT
ATOM      1  C   UNL     1       0.813   1.512  -0.447  0.00  0.00    +0.028 C 
ATOM      2  C   UNL     1       0.311   0.089  -0.191  0.00  0.00    +0.073 C 
ATOM      3  C   UNL     1       0.784  -0.833  -1.318  0.00  0.00    +0.023 C 
ATOM      4  C   UNL     1       0.399  -2.277  -0.987  0.00  0.00    +0.016 C 
ATOM      5  C   UNL     1       1.090  -2.705   0.310  0.00  0.00    +0.092 C 
ATOM      6  C   UNL     1       0.620  -1.804   1.456  0.00  0.00    +0.121 C 
ATOM      7  N   UNL     1       0.851  -0.401   1.085  0.00  0.00    -0.294 N 
ATOM      8  C   UNL     1       1.550   0.418   1.895  0.00  0.00    +0.240 C 
ATOM      9  O   UNL     1       1.634   1.603   1.636  0.00  0.00    -0.271 OA
ENDROOT
BRANCH   8  10
ATOM     10  C   UNL     1       2.210  -0.121   3.094  0.00  0.00    +0.066 C 
ATOM     11  C   UNL     1       2.610   0.701   4.060  0.00  0.00    -0.065 C 
ATOM     12  C   UNL     1       2.231   2.166   4.038  0.00  0.00    +0.031 C 
ATOM     13  C   UNL     1       1.621   2.531   5.395  0.00  0.00    +0.004 C 
ATOM     14  C   UNL     1       2.595   2.150   6.510  0.00  0.00    +0.001 C 
ATOM     15  C   UNL     1       2.800   0.634   6.523  0.00  0.00    +0.004 C 
ATOM     16  C   UNL     1       3.449   0.195   5.212  0.00  0.00    +0.031 C 
ENDBRANCH   8  10
BRANCH   5  17
ATOM     17  C   UNL     1       0.736  -4.138   0.619  0.00  0.00    +0.215 C 
ATOM     18  O   UNL     1       0.004  -4.755  -0.126  0.00  0.00    -0.276 OA
ATOM     19  N   UNL     1       1.234  -4.732   1.721  0.00  0.00    -0.329 N 
ATOM     20  H   UNL     1       1.819  -4.238   2.316  0.00  0.00    +0.145 HD
ATOM     21  H   UNL     1       1.006  -5.654   1.919  0.00  0.00    +0.145 HD
ENDBRANCH   5  17
TORSDOF 2
