REMARK  Name = ZINC51152588
REMARK  7 active torsions:
REMARK  status: ('A' for Active; 'I' for Inactive)
REMARK    1  A    between atoms: C_1  and  C_2
REMARK    2  A    between atoms: C_2  and  C_3
REMARK    3  A    between atoms: C_4  and  C_20
REMARK    4  A    between atoms: C_6  and  C_11
REMARK    5  A    between atoms: C_8  and  N_9
REMARK    6  A    between atoms: N_9  and  N_10
REMARK    7  A    between atoms: C_11  and  C_12
REMARK                            x       y       z     vdW  Elec       q    Type
REMARK                         _______ _______ _______ _____ _____    ______ ____
ROOT
ATOM      1  C   UNL     1      -1.412  -0.526   0.013  0.00  0.00    +0.014 A 
ATOM      2  C   UNL     1      -2.067  -0.772   1.204  0.00  0.00    +0.047 A 
ATOM      3  N   UNL     1      -3.310  -1.230   1.175  0.00  0.00    -0.236 NA
ATOM      4  C   UNL     1      -3.925  -1.453   0.032  0.00  0.00    +0.136 A 
ATOM      5  N   UNL     1      -3.339  -1.233  -1.128  0.00  0.00    -0.216 NA
ATOM      6  C   UNL     1      -2.095  -0.767  -1.181  0.00  0.00    +0.139 A 
ATOM      7  C   UNL     1      -1.376  -0.522   2.519  0.00  0.00    +0.066 C 
ENDROOT
BRANCH   1   9
ATOM      8  C   UNL     1      -0.019   1.526   0.010  0.00  0.00    +0.009 C 
ATOM      9  C   UNL     1       0.002  -0.004   0.002  0.00  0.00    +0.037 C 
ENDBRANCH   1   9
BRANCH   6  10
ATOM     10  N   UNL     1      -1.483  -0.531  -2.402  0.00  0.00    -0.267 N 
ATOM     11  H   UNL     1      -0.574  -0.195  -2.432  0.00  0.00    +0.167 HD
BRANCH  10  12
ATOM     12  N   UNL     1      -2.161  -0.770  -3.563  0.00  0.00    -0.255 NA
ATOM     13  H   UNL     1      -3.030  -0.258  -3.587  0.00  0.00    +0.140 HD
ATOM     14  H   UNL     1      -1.591  -0.553  -4.366  0.00  0.00    +0.140 HD
ENDBRANCH  10  12
ENDBRANCH   6  10
BRANCH   4  15
ATOM     15  C   UNL     1      -5.339  -1.975   0.050  0.00  0.00    +0.111 C 
BRANCH  15  16
ATOM     16  C   UNL     1      -6.302  -0.816   0.061  0.00  0.00    -0.039 A 
ATOM     17  C   UNL     1      -6.724  -0.280   1.264  0.00  0.00    +0.005 A 
ATOM     18  C   UNL     1      -7.608   0.783   1.275  0.00  0.00    +0.022 A 
ATOM     19  C   UNL     1      -8.070   1.311   0.083  0.00  0.00    +0.059 A 
ATOM     20  C   UNL     1      -7.647   0.775  -1.121  0.00  0.00    +0.060 A 
ATOM     21  C   UNL     1      -6.759  -0.286  -1.131  0.00  0.00    +0.025 A 
ATOM     22 CL   UNL     1      -8.227   1.436  -2.618  0.00  0.00    -0.082 Cl
ATOM     23 CL   UNL     1      -9.180   2.646   0.097  0.00  0.00    -0.082 Cl
ENDBRANCH  15  16
ENDBRANCH   4  15
TORSDOF 5
