REMARK  Name = ZINC61406260
REMARK  6 active torsions:
REMARK  status: ('A' for Active; 'I' for Inactive)
REMARK    1  A    between atoms: C_1  and  C_2
REMARK    2  A    between atoms: C_2  and  C_4
REMARK    3  A    between atoms: C_2  and  N_22
REMARK    4  A    between atoms: C_4  and  C_6
REMARK    5  A    between atoms: C_4  and  S_12
REMARK    6  A    between atoms: S_12  and  C_13
REMARK                            x       y       z     vdW  Elec       q    Type
REMARK                         _______ _______ _______ _____ _____    ______ ____
ROOT
ATOM      1  C   UNL     1       0.844  -0.501   1.179  0.00  0.00    +0.076 C 
ENDROOT
BRANCH   1   2
ATOM      2  C   UNL     1       0.943  -1.985   0.931  0.00  0.00    +0.003 A 
ATOM      3  C   UNL     1       0.582  -3.011   1.739  0.00  0.00    +0.013 A 
ATOM      4  C   UNL     1       0.766  -4.308   1.299  0.00  0.00    +0.023 A 
ATOM      5  C   UNL     1       1.302  -4.515   0.071  0.00  0.00    +0.055 A 
ATOM      6  S   UNL     1       1.558  -2.846  -0.507  0.00  0.00    -0.085 S 
ATOM      7 BR   UNL     1       1.675  -6.149  -0.806  0.00  0.00    -0.043 Br
ENDBRANCH   1   2
BRANCH   1   9
ATOM      8  C   UNL     1      -0.217   1.627   0.412  0.00  0.00    -0.013 C 
ATOM      9  C   UNL     1      -0.054   0.135   0.116  0.00  0.00    -0.060 C 
BRANCH   9  10
ATOM     10  N   UNL     1      -1.371  -0.515   0.136  0.00  0.00    +0.381 N 
ATOM     11  H   UNL     1      -1.964  -0.096  -0.565  0.00  0.00    -0.090 HD
ATOM     12  H   UNL     1      -1.264  -1.499  -0.060  0.00  0.00    -0.090 HD
ATOM     13  H   UNL     1      -1.791  -0.397   1.045  0.00  0.00    -0.090 HD
ENDBRANCH   9  10
ENDBRANCH   1   9
BRANCH   1  14
ATOM     14  S   UNL     1       2.499   0.237   1.092  0.00  0.00    -0.079 S 
BRANCH  14  15
ATOM     15  C   UNL     1       3.339  -0.435   2.488  0.00  0.00    +0.196 A 
ATOM     16  N   UNL     1       2.818  -1.213   3.410  0.00  0.00    -0.122 NA
ATOM     17  N   UNL     1       3.707  -1.524   4.287  0.00  0.00    -0.129 NA
ATOM     18  C   UNL     1       4.857  -0.957   3.973  0.00  0.00    +0.162 A 
ATOM     19  N   UNL     1       4.651  -0.248   2.808  0.00  0.00    -0.278 N 
ATOM     20  C   UNL     1       5.676   0.448   2.231  0.00  0.00    +0.095 A 
ATOM     21  C   UNL     1       6.903   0.449   2.791  0.00  0.00    +0.018 A 
ATOM     22  C   UNL     1       7.145  -0.268   3.978  0.00  0.00    +0.005 A 
ATOM     23  C   UNL     1       6.135  -0.959   4.570  0.00  0.00    +0.049 A 
ENDBRANCH  14  15
ENDBRANCH   1  14
TORSDOF 5
