REMARK  Name = ZINC02234366
REMARK  7 active torsions:
REMARK  status: ('A' for Active; 'I' for Inactive)
REMARK    1  A    between atoms: C_1  and  C_2
REMARK    2  A    between atoms: C_2  and  C_26
REMARK    3  A    between atoms: C_9  and  O_23
REMARK    4  A    between atoms: C_11  and  C_14
REMARK    5  A    between atoms: C_17  and  N_20
REMARK    6  A    between atoms: N_20  and  C_21
REMARK    7  A    between atoms: N_20  and  C_22
REMARK                            x       y       z     vdW  Elec       q    Type
REMARK                         _______ _______ _______ _____ _____    ______ ____
ROOT
ATOM      1  C   UNL     1      -0.042   1.519  -0.064  0.00  0.00    +0.041 C 
ATOM      2  C   UNL     1      -0.023  -0.011  -0.072  0.00  0.00    +0.068 C 
ATOM      3  C   UNL     1      -1.462  -0.537  -0.061  0.00  0.00    +0.071 C 
ATOM      4  C   UNL     1      -2.059  -0.244   1.308  0.00  0.00    -0.018 A 
ATOM      5  C   UNL     1      -1.246   0.050   2.352  0.00  0.00    +0.021 A 
ATOM      6  S   UNL     1      -2.340   0.316   3.716  0.00  0.00    -0.075 S 
ATOM      7  C   UNL     1      -3.792   0.060   2.956  0.00  0.00    +0.080 A 
ATOM      8  C   UNL     1      -3.472  -0.246   1.627  0.00  0.00    +0.068 A 
ATOM      9  C   UNL     1      -4.598  -0.541   0.703  0.00  0.00    +0.220 C 
ATOM     10  N   UNL     1      -5.806  -0.257   1.109  0.00  0.00    -0.223 NA
ATOM     11  C   UNL     1      -6.121   0.387   2.377  0.00  0.00    +0.224 C 
ATOM     12  N   UNL     1      -5.095   0.108   3.398  0.00  0.00    -0.313 N 
ATOM     13  C   UNL     1       0.248   0.120   2.309  0.00  0.00    +0.203 C 
ATOM     14  O   UNL     1       0.683  -0.482   1.079  0.00  0.00    -0.368 OA
ATOM     15  C   UNL     1       0.684  -0.502  -1.337  0.00  0.00    +0.041 C 
ATOM     16  H   UNL     1      -5.325  -0.034   4.330  0.00  0.00    +0.149 HD
ENDROOT
BRANCH  11  17
ATOM     17  C   UNL     1      -6.209   1.876   2.165  0.00  0.00    -0.005 A 
ATOM     18  C   UNL     1      -5.876   2.741   3.191  0.00  0.00    +0.009 A 
ATOM     19  C   UNL     1      -5.955   4.106   3.000  0.00  0.00    +0.023 A 
ATOM     20  C   UNL     1      -6.370   4.611   1.774  0.00  0.00    +0.029 A 
ATOM     21  C   UNL     1      -6.704   3.740   0.745  0.00  0.00    +0.023 A 
ATOM     22  C   UNL     1      -6.617   2.376   0.941  0.00  0.00    +0.009 A 
BRANCH  20  23
ATOM     23  N   UNL     1      -6.452   5.991   1.577  0.00  0.00    -0.336 N 
ATOM     24  C   UNL     1      -6.222   6.906   2.698  0.00  0.00    +0.129 C 
ATOM     25  C   UNL     1      -6.768   6.524   0.250  0.00  0.00    +0.129 C 
ENDBRANCH  20  23
ENDBRANCH  11  17
BRANCH   9  26
ATOM     26  O   UNL     1      -4.378  -1.085  -0.516  0.00  0.00    -0.492 OA
ATOM     27  H   UNL     1      -5.183  -1.233  -1.031  0.00  0.00    +0.294 HD
ENDBRANCH   9  26
TORSDOF 3
