REMARK  Name = ZINC25723214
REMARK  4 active torsions:
REMARK  status: ('A' for Active; 'I' for Inactive)
REMARK    1  A    between atoms: C_1  and  C_2
REMARK    2  A    between atoms: C_5  and  O_28
REMARK    3  A    between atoms: C_18  and  C_27
REMARK    4  A    between atoms: C_22  and  O_26
REMARK                            x       y       z     vdW  Elec       q    Type
REMARK                         _______ _______ _______ _____ _____    ______ ____
ROOT
ATOM      1  C   UNL     1      -2.917   1.554  -2.471  0.00  0.00    +0.012 C 
ATOM      2  C   UNL     1      -2.177   1.060  -1.227  0.00  0.00    -0.026 C 
ATOM      3  C   UNL     1      -2.889   1.562   0.031  0.00  0.00    +0.010 C 
ATOM      4  C   UNL     1      -2.150   1.056   1.271  0.00  0.00    +0.032 C 
ATOM      5  C   UNL     1      -0.713   1.579   1.258  0.00  0.00    +0.115 C 
ATOM      6  C   UNL     1       0.000   1.083  -0.002  0.00  0.00    +0.035 C 
ATOM      7  C   UNL     1      -0.741   1.589  -1.241  0.00  0.00    -0.002 C 
ATOM      8  C   UNL     1      -0.025   1.093  -2.499  0.00  0.00    +0.004 C 
ATOM      9  C   UNL     1      -0.001  -0.438  -2.502  0.00  0.00    +0.004 C 
ATOM     10  C   UNL     1      -1.434  -0.970  -2.490  0.00  0.00    -0.003 C 
ATOM     11  C   UNL     1      -2.147  -0.472  -1.224  0.00  0.00    -0.001 C 
ATOM     12  C   UNL     1      -3.573  -1.005  -1.137  0.00  0.00    +0.005 C 
ATOM     13  C   UNL     1      -3.603  -2.540  -1.230  0.00  0.00    +0.015 C 
ATOM     14  C   UNL     1      -2.936  -2.927  -2.534  0.00  0.00    +0.032 C 
ATOM     15  C   UNL     1      -1.433  -2.487  -2.464  0.00  0.00    +0.008 C 
ATOM     16  C   UNL     1      -0.848  -3.173  -3.705  0.00  0.00    +0.044 C 
ATOM     17  C   UNL     1      -1.533  -4.566  -3.675  0.00  0.00    +0.181 C 
ATOM     18  C   UNL     1      -2.841  -4.392  -2.841  0.00  0.00    +0.168 C 
ATOM     19  O   UNL     1      -3.626  -5.253  -2.526  0.00  0.00    -0.294 OA
ATOM     20  C   UNL     1      -3.619  -2.202  -3.696  0.00  0.00    +0.019 C 
ENDROOT
BRANCH  17  21
ATOM     21  O   UNL     1      -0.677  -5.519  -3.041  0.00  0.00    -0.384 OA
ATOM     22  H   UNL     1      -1.003  -6.564  -2.932  0.00  0.00    +0.210 HD
ENDBRANCH  17  21
BRANCH   5  23
ATOM     23  O   UNL     1      -0.022   1.103   2.415  0.00  0.00    -0.392 OA
ATOM     24  H   UNL     1       1.030   1.378   2.579  0.00  0.00    +0.210 HD
ENDBRANCH   5  23
TORSDOF 2
