REMARK  Name = ZINC58394954
REMARK  3 active torsions:
REMARK  status: ('A' for Active; 'I' for Inactive)
REMARK    1  A    between atoms: C_9  and  C_11
REMARK    2  A    between atoms: C_12  and  C_13
REMARK    3  A    between atoms: C_18  and  C_20
REMARK                            x       y       z     vdW  Elec       q    Type
REMARK                         _______ _______ _______ _____ _____    ______ ____
ROOT
ATOM      1  C   UNL     1       1.231  -2.164  -0.022  0.00  0.00    +0.015 C 
ATOM      2  C   UNL     1       0.070  -2.856  -0.015  0.00  0.00    +0.068 C 
ENDROOT
BRANCH   1  11
ATOM      3  C   UNL     1      -0.017   1.383   0.010  0.00  0.00    +0.001 A 
ATOM      4  C   UNL     1       1.132   2.115   0.003  0.00  0.00    +0.010 A 
ATOM      5  C   UNL     1       2.385   1.482  -0.013  0.00  0.00    +0.001 A 
ATOM      6  C   UNL     1       3.582   2.224  -0.021  0.00  0.00    +0.011 A 
ATOM      7  C   UNL     1       4.764   1.538  -0.035  0.00  0.00    +0.020 A 
ATOM      8  C   UNL     1       4.761   0.146  -0.043  0.00  0.00    +0.111 A 
ATOM      9  N   UNL     1       3.642  -0.540  -0.036  0.00  0.00    -0.254 NA
ATOM     10  C   UNL     1       2.457   0.068  -0.021  0.00  0.00    +0.078 A 
ATOM     11  C   UNL     1       1.209  -0.697  -0.014  0.00  0.00    +0.001 A 
ATOM     12  C   UNL     1       0.002  -0.004   0.002  0.00  0.00    +0.010 A 
ENDBRANCH   1  11
BRANCH   2  13
ATOM     13  C   UNL     1       0.092  -4.319  -0.023  0.00  0.00    +0.239 C 
ATOM     14  O   UNL     1       1.154  -4.912  -0.037  0.00  0.00    -0.271 OA
ATOM     15  N   UNL     1      -1.066  -5.009  -0.016  0.00  0.00    -0.297 N 
ATOM     16  C   UNL     1      -2.414  -4.423  -0.006  0.00  0.00    +0.109 C 
ATOM     17  C   UNL     1      -3.422  -5.591  -0.028  0.00  0.00    +0.033 C 
ATOM     18  C   UNL     1      -2.589  -6.758  -0.620  0.00  0.00    +0.093 C 
ATOM     19  C   UNL     1      -1.190  -6.479  -0.023  0.00  0.00    +0.120 C 
BRANCH  18  20
ATOM     20  C   UNL     1      -3.120  -8.090  -0.158  0.00  0.00    +0.215 C 
ATOM     21  O   UNL     1      -4.080  -8.136   0.582  0.00  0.00    -0.276 OA
ATOM     22  N   UNL     1      -2.528  -9.230  -0.566  0.00  0.00    -0.329 N 
ATOM     23  H   UNL     1      -1.760  -9.193  -1.157  0.00  0.00    +0.145 HD
ATOM     24  H   UNL     1      -2.870 -10.088  -0.268  0.00  0.00    +0.145 HD
ENDBRANCH  18  20
ENDBRANCH   2  13
TORSDOF 3
