REMARK  Name = ZINC50841309
REMARK  4 active torsions:
REMARK  status: ('A' for Active; 'I' for Inactive)
REMARK    1  A    between atoms: C_1  and  C_2
REMARK    2  A    between atoms: C_2  and  C_3
REMARK    3  A    between atoms: C_2  and  C_4
REMARK    4  A    between atoms: C_2  and  C_5
REMARK                            x       y       z     vdW  Elec       q    Type
REMARK                         _______ _______ _______ _____ _____    ______ ____
ROOT
ATOM      1  C   UNL     1       0.707  -0.490  -1.238  0.00  0.00    +0.138 A 
ATOM      2  N   UNL     1       0.051  -1.248  -2.098  0.00  0.00    -0.217 NA
ATOM      3  C   UNL     1       0.614  -1.707  -3.205  0.00  0.00    +0.128 A 
ATOM      4  C   UNL     1       1.969  -1.374  -3.478  0.00  0.00    +0.051 A 
ATOM      5  C   UNL     1       2.793  -1.765  -4.634  0.00  0.00    -0.025 A 
ATOM      6  C   UNL     1       4.058  -1.316  -4.657  0.00  0.00    -0.004 A 
ATOM      7  S   UNL     1       4.236  -0.354  -3.172  0.00  0.00    -0.073 S 
ATOM      8  C   UNL     1       2.602  -0.563  -2.518  0.00  0.00    +0.114 A 
ATOM      9  N   UNL     1       1.964  -0.144  -1.442  0.00  0.00    -0.224 NA
ATOM     10  C   UNL     1       4.805  -1.782  -5.878  0.00  0.00    +0.043 C 
ATOM     11  C   UNL     1       3.961  -2.955  -6.424  0.00  0.00    +0.010 C 
ATOM     12  C   UNL     1       2.557  -2.604  -5.893  0.00  0.00    +0.037 C 
ATOM     13  N   UNL     1      -0.104  -2.499  -4.082  0.00  0.00    -0.343 N 
ATOM     14  H   UNL     1      -1.028  -2.723  -3.888  0.00  0.00    +0.144 HD
ATOM     15  H   UNL     1       0.315  -2.832  -4.891  0.00  0.00    +0.144 HD
ENDROOT
BRANCH   1  17
ATOM     16  C   UNL     1      -0.019   1.526   0.010  0.00  0.00    +0.019 C 
ATOM     17  C   UNL     1       0.002  -0.004   0.002  0.00  0.00    +0.022 C 
ATOM     18  C   UNL     1       0.742  -0.511   1.242  0.00  0.00    +0.019 C 
ATOM     19  C   UNL     1      -1.433  -0.534   0.013  0.00  0.00    +0.019 C 
ENDBRANCH   1  17
TORSDOF 1
