REMARK  Name = ZINC40469336
REMARK  3 active torsions:
REMARK  status: ('A' for Active; 'I' for Inactive)
REMARK    1  A    between atoms: C_4  and  C_7
REMARK    2  A    between atoms: C_4  and  N_18
REMARK    3  A    between atoms: C_13  and  C_15
REMARK                            x       y       z     vdW  Elec       q    Type
REMARK                         _______ _______ _______ _____ _____    ______ ____
ROOT
ATOM      1  C   UNL     1       0.720   2.353  -0.235  0.00  0.00    -0.000 C 
ATOM      2  C   UNL     1       2.232   2.199  -0.061  0.00  0.00    -0.001 C 
ATOM      3  C   UNL     1       2.803   1.404  -1.237  0.00  0.00    -0.004 C 
ATOM      4  C   UNL     1       2.151   0.020  -1.281  0.00  0.00    +0.007 C 
ATOM      5  C   UNL     1       0.638   0.174  -1.455  0.00  0.00    -0.004 C 
ATOM      6  C   UNL     1       0.068   0.970  -0.279  0.00  0.00    -0.001 C 
ENDROOT
BRANCH   4   7
ATOM      7  C   UNL     1       2.437  -0.711   0.006  0.00  0.00    +0.205 C 
ATOM      8  O   UNL     1       1.581  -0.787   0.862  0.00  0.00    -0.277 OA
ATOM      9  N   UNL     1       3.642  -1.279   0.204  0.00  0.00    -0.279 N 
ATOM     10  C   UNL     1       4.752  -1.105  -0.758  0.00  0.00    +0.178 C 
ATOM     11  S   UNL     1       6.215  -1.453   0.315  0.00  0.00    -0.139 S 
ATOM     12  C   UNL     1       5.365  -2.645   1.444  0.00  0.00    +0.104 C 
ATOM     13  C   UNL     1       3.921  -2.089   1.378  0.00  0.00    +0.199 C 
BRANCH  13  14
ATOM     14  C   UNL     1       2.964  -3.253   1.394  0.00  0.00    +0.377 C 
ATOM     15  O   UNL     1       2.542  -3.709   0.346  0.00  0.00    -0.244 OA
ATOM     16  O   UNL     1       2.613  -3.738   2.456  0.00  0.00    -0.244 OA
ENDBRANCH  13  14
ENDBRANCH   4   7
BRANCH   4  17
ATOM     17  N   UNL     1       2.698  -0.744  -2.410  0.00  0.00    +0.388 N 
ATOM     18  H   UNL     1       3.700  -0.625  -2.442  0.00  0.00    -0.089 HD
ATOM     19  H   UNL     1       2.478  -1.721  -2.292  0.00  0.00    -0.089 HD
ATOM     20  H   UNL     1       2.292  -0.409  -3.271  0.00  0.00    -0.089 HD
ENDBRANCH   4  17
TORSDOF 3
