REMARK  Name = ZINC04741791
REMARK  2 active torsions:
REMARK  status: ('A' for Active; 'I' for Inactive)
REMARK    1  A    between atoms: C_4  and  C_21
REMARK    2  A    between atoms: C_5  and  C_7
REMARK                            x       y       z     vdW  Elec       q    Type
REMARK                         _______ _______ _______ _____ _____    ______ ____
ROOT
ATOM      1  C   UNL     1       0.149   5.341  -0.037  0.00  0.00    +0.218 C 
ATOM      2  C   UNL     1      -1.992   6.509  -0.034  0.00  0.00    +0.159 C 
ATOM      3  N   UNL     1      -1.990   6.689  -1.404  0.00  0.00    -0.259 N 
ATOM      4  C   UNL     1      -0.796   6.438  -2.067  0.00  0.00    +0.205 A 
ATOM      5  N   UNL     1       0.242   5.797  -1.424  0.00  0.00    -0.287 N 
ATOM      6  C   UNL     1       1.270   5.702  -2.317  0.00  0.00    +0.072 A 
ATOM      7  C   UNL     1       2.548   5.164  -2.234  0.00  0.00    +0.028 A 
ATOM      8  C   UNL     1       3.342   5.243  -3.367  0.00  0.00    +0.002 A 
ATOM      9  C   UNL     1       2.894   5.831  -4.537  0.00  0.00    +0.002 A 
ATOM     10  C   UNL     1       1.626   6.374  -4.646  0.00  0.00    +0.030 A 
ATOM     11  C   UNL     1       0.807   6.305  -3.514  0.00  0.00    +0.091 A 
ATOM     12  N   UNL     1      -0.454   6.728  -3.290  0.00  0.00    -0.214 NA
ATOM     13  N   UNL     1      -3.060   6.986   0.690  0.00  0.00    -0.332 N 
ATOM     14  H   UNL     1      -2.785   6.976  -1.881  0.00  0.00    +0.158 HD
ATOM     15  H   UNL     1      -3.083   6.871   1.653  0.00  0.00    +0.145 HD
ATOM     16  H   UNL     1      -3.789   7.438   0.238  0.00  0.00    +0.145 HD
ATOM     17  N   UNL     1      -1.047   5.906   0.699  0.00  0.00    -0.337 N 
ATOM     18  H   UNL     1      -1.130   5.830   1.720  0.00  0.00    +0.164 HD
ENDROOT
BRANCH   1  23
ATOM     19  C   UNL     1      -0.377   1.766  -1.131  0.00  0.00    +0.000 A 
ATOM     20  C   UNL     1      -0.119   1.079   0.040  0.00  0.00    +0.001 A 
ATOM     21  C   UNL     1       0.231   1.770   1.184  0.00  0.00    +0.013 A 
ATOM     22  C   UNL     1       0.318   3.150   1.159  0.00  0.00    +0.062 A 
ATOM     23  C   UNL     1       0.055   3.837  -0.010  0.00  0.00    +0.007 A 
ATOM     24  C   UNL     1      -0.295   3.146  -1.155  0.00  0.00    +0.008 A 
BRANCH  22  25
ATOM     25  C   UNL     1       0.700   3.903   2.407  0.00  0.00    +0.418 C 
ATOM     26  F   UNL     1       0.920   2.997   3.450  0.00  0.00    -0.166 F 
ATOM     27  F   UNL     1       1.869   4.635   2.171  0.00  0.00    -0.166 F 
ATOM     28  F   UNL     1      -0.334   4.778   2.759  0.00  0.00    -0.166 F 
ENDBRANCH  22  25
ENDBRANCH   1  23
TORSDOF 2
