REMARK  Name = ZINC50252693
REMARK  9 active torsions:
REMARK  status: ('A' for Active; 'I' for Inactive)
REMARK    1  A    between atoms: C_1  and  C_2
REMARK    2  A    between atoms: C_3  and  S_9
REMARK    3  A    between atoms: C_4  and  C_8
REMARK    4  A    between atoms: N_5  and  C_7
REMARK    5  A    between atoms: S_9  and  N_12
REMARK    6  A    between atoms: N_12  and  C_13
REMARK    7  A    between atoms: N_12  and  C_14
REMARK    8  A    between atoms: C_14  and  C_15
REMARK    9  A    between atoms: C_18  and  N_21
REMARK                            x       y       z     vdW  Elec       q    Type
REMARK                         _______ _______ _______ _____ _____    ______ ____
ROOT
ATOM      1  N   UNL     1       1.489  -0.034  -3.012  0.00  0.00    -0.175 NA
ATOM      2  C   UNL     1       2.423  -1.008  -3.582  0.00  0.00    +0.132 C 
ENDROOT
BRANCH   1   3
ATOM      3  S   UNL     1      -0.124  -0.393  -2.913  0.00  0.00    +0.064 S 
ATOM      4  O   UNL     1      -0.692   0.539  -2.003  0.00  0.00    -0.153 OA
ATOM      5  O   UNL     1      -0.216  -1.798  -2.721  0.00  0.00    -0.153 OA
BRANCH   3   8
ATOM      6  C   UNL     1      -0.719  -2.451  -5.456  0.00  0.00    +0.069 C 
ATOM      7  C   UNL     1      -1.050  -0.982  -5.512  0.00  0.00    +0.086 A 
ATOM      8  C   UNL     1      -0.832  -0.052  -4.490  0.00  0.00    +0.148 A 
ATOM      9  C   UNL     1      -1.261   1.155  -4.926  0.00  0.00    +0.062 A 
ATOM     10  N   UNL     1      -1.734   0.994  -6.180  0.00  0.00    -0.269 N 
ATOM     11  N   UNL     1      -1.585  -0.355  -6.528  0.00  0.00    -0.174 NA
ATOM     12  C   UNL     1      -2.297   2.046  -7.030  0.00  0.00    +0.172 C 
ATOM     13  C   UNL     1      -1.219   2.446  -4.151  0.00  0.00    +0.067 C 
ENDBRANCH   3   8
ENDBRANCH   1   3
BRANCH   1  14
ATOM     14  C   UNL     1       1.983   1.258  -2.529  0.00  0.00    +0.144 C 
BRANCH  14  15
ATOM     15  C   UNL     1       2.522   1.100  -1.131  0.00  0.00    -0.032 A 
ATOM     16  C   UNL     1       1.681   1.264  -0.045  0.00  0.00    +0.007 A 
ATOM     17  C   UNL     1       2.172   1.119   1.238  0.00  0.00    +0.023 A 
ATOM     18  C   UNL     1       3.511   0.809   1.437  0.00  0.00    +0.025 A 
ATOM     19  C   UNL     1       4.352   0.645   0.344  0.00  0.00    +0.023 A 
ATOM     20  C   UNL     1       3.854   0.785  -0.936  0.00  0.00    +0.007 A 
BRANCH  18  21
ATOM     21  N   UNL     1       4.010   0.662   2.733  0.00  0.00    -0.358 N 
ATOM     22  H   UNL     1       3.421   0.777   3.495  0.00  0.00    +0.142 HD
ATOM     23  H   UNL     1       4.945   0.445   2.871  0.00  0.00    +0.142 HD
ENDBRANCH  18  21
ENDBRANCH  14  15
ENDBRANCH   1  14
TORSDOF 5
