REMARK  Name = ZINC40378346
REMARK  6 active torsions:
REMARK  status: ('A' for Active; 'I' for Inactive)
REMARK    1  A    between atoms: C_1  and  C_2
REMARK    2  A    between atoms: C_3  and  C_7
REMARK    3  A    between atoms: C_13  and  C_16
REMARK    4  A    between atoms: C_16  and  N_17
REMARK    5  A    between atoms: N_17  and  S_18
REMARK    6  A    between atoms: S_18  and  N_21
REMARK                            x       y       z     vdW  Elec       q    Type
REMARK                         _______ _______ _______ _____ _____    ______ ____
ROOT
ATOM      1  C   UNL     1      -2.504  -0.399   0.012  0.00  0.00    +0.252 C 
ATOM      2  O   UNL     1      -2.786   0.779   0.119  0.00  0.00    -0.270 OA
ATOM      3  N   UNL     1      -3.483  -1.319  -0.090  0.00  0.00    -0.297 N 
ATOM      4  C   UNL     1      -3.165  -2.753  -0.096  0.00  0.00    +0.108 C 
ATOM      5  C   UNL     1      -3.993  -3.446   0.992  0.00  0.00    +0.019 C 
ATOM      6  C   UNL     1      -5.475  -3.131   0.778  0.00  0.00    +0.008 C 
ATOM      7  C   UNL     1      -5.698  -1.621   0.890  0.00  0.00    +0.022 C 
ATOM      8  C   UNL     1      -4.890  -0.907  -0.192  0.00  0.00    +0.113 C 
ENDROOT
BRANCH   1  11
ATOM      9  C   UNL     1      -0.205   0.808   1.759  0.00  0.00    +0.090 C 
ATOM     10  C   UNL     1      -0.079  -0.304   0.750  0.00  0.00    +0.146 A 
ATOM     11  C   UNL     1      -1.092  -0.820  -0.006  0.00  0.00    +0.098 A 
ATOM     12  C   UNL     1      -0.506  -1.874  -0.836  0.00  0.00    +0.170 A 
ATOM     13  N   UNL     1       0.761  -1.929  -0.548  0.00  0.00    -0.086 NA
ATOM     14  O   UNL     1       1.045  -0.953   0.434  0.00  0.00    -0.359 OA
ENDBRANCH   1  11
BRANCH   7  15
ATOM     15  C   UNL     1      -7.185  -1.309   0.710  0.00  0.00    +0.112 C 
BRANCH  15  16
ATOM     16  N   UNL     1      -7.415   0.120   0.935  0.00  0.00    -0.180 NA
ATOM     17  H   UNL     1      -6.734   0.659   1.367  0.00  0.00    +0.149 HD
BRANCH  16  18
ATOM     18  S   UNL     1      -8.839   0.815   0.454  0.00  0.00    +0.092 S 
ATOM     19  O   UNL     1      -8.771   2.184   0.831  0.00  0.00    -0.142 OA
ATOM     20  O   UNL     1      -9.058   0.405  -0.889  0.00  0.00    -0.142 OA
BRANCH  18  21
ATOM     21  N   UNL     1     -10.047   0.135   1.360  0.00  0.00    -0.193 NA
ATOM     22  H   UNL     1      -9.834  -0.540   2.023  0.00  0.00    +0.145 HD
ATOM     23  H   UNL     1     -10.967   0.412   1.227  0.00  0.00    +0.145 HD
ENDBRANCH  18  21
ENDBRANCH  16  18
ENDBRANCH  15  16
ENDBRANCH   7  15
TORSDOF 5
