REMARK  Name = ZINC63114087
REMARK  4 active torsions:
REMARK  status: ('A' for Active; 'I' for Inactive)
REMARK    1  A    between atoms: C_1  and  C_2
REMARK    2  A    between atoms: C_2  and  O_3
REMARK    3  A    between atoms: O_3  and  C_4
REMARK    4  A    between atoms: C_10  and  C_12
REMARK                            x       y       z     vdW  Elec       q    Type
REMARK                         _______ _______ _______ _____ _____    ______ ____
ROOT
ATOM      1  C   UNL     1       0.284  -2.201   0.875  0.00  0.00    +0.136 C 
ATOM      2  C   UNL     1       1.527  -2.668   0.114  0.00  0.00    +0.035 C 
ATOM      3  C   UNL     1       1.755  -4.160   0.371  0.00  0.00    +0.021 C 
ATOM      4  C   UNL     1       1.990  -4.386   1.867  0.00  0.00    +0.108 C 
ATOM      5  N   UNL     1       0.865  -3.809   2.616  0.00  0.00    -0.299 N 
ATOM      6  C   UNL     1       0.503  -2.405   2.377  0.00  0.00    +0.139 C 
ATOM      7  C   UNL     1       0.178  -4.554   3.504  0.00  0.00    +0.219 C 
ATOM      8  O   UNL     1       0.446  -5.728   3.648  0.00  0.00    -0.275 OA
ENDROOT
BRANCH   7   9
ATOM      9  C   UNL     1      -0.924  -3.928   4.320  0.00  0.00    +0.078 C 
ATOM     10  C   UNL     1      -0.325  -2.901   5.284  0.00  0.00    +0.032 C 
ATOM     11  C   UNL     1      -1.451  -2.242   6.086  0.00  0.00    +0.110 C 
ATOM     12  N   UNL     1      -2.243  -3.293   6.740  0.00  0.00    -0.286 N 
ATOM     13  C   UNL     1      -2.791  -4.380   5.917  0.00  0.00    +0.110 C 
ATOM     14  C   UNL     1      -1.650  -5.015   5.116  0.00  0.00    +0.032 C 
ATOM     15  C   UNL     1      -2.463  -3.260   8.069  0.00  0.00    +0.300 C 
ATOM     16  O   UNL     1      -2.083  -2.310   8.725  0.00  0.00    -0.253 OA
ATOM     17  N   UNL     1      -3.104  -4.281   8.671  0.00  0.00    -0.313 N 
ATOM     18  H   UNL     1      -3.472  -5.004   8.139  0.00  0.00    +0.146 HD
ATOM     19  H   UNL     1      -3.199  -4.293   9.637  0.00  0.00    +0.146 HD
ENDBRANCH   7   9
BRANCH   1  20
ATOM     20  O   UNL     1       0.055  -0.816   0.610  0.00  0.00    -0.375 OA
BRANCH  20  22
ATOM     21  C   UNL     1      -0.962   0.937  -0.707  0.00  0.00    +0.034 C 
ATOM     22  C   UNL     1      -0.787  -0.571  -0.519  0.00  0.00    +0.157 C 
ENDBRANCH  20  22
ENDBRANCH   1  20
TORSDOF 3
