REMARK  Name = ZINC00664765
REMARK  5 active torsions:
REMARK  status: ('A' for Active; 'I' for Inactive)
REMARK    1  A    between atoms: C_3  and  C_6
REMARK    2  A    between atoms: C_13  and  N_31
REMARK    3  A    between atoms: C_14  and  C_29
REMARK    4  A    between atoms: C_15  and  C_17
REMARK    5  A    between atoms: C_20  and  C_22
REMARK                            x       y       z     vdW  Elec       q    Type
REMARK                         _______ _______ _______ _____ _____    ______ ____
ROOT
ATOM      1  C   UNL     1       3.736   1.822  -0.024  0.00  0.00    +0.080 A 
ATOM      2  C   UNL     1       4.754   1.370  -0.818  0.00  0.00    +0.057 A 
ATOM      3  C   UNL     1       5.908   2.115  -0.507  0.00  0.00    +0.245 A 
ATOM      4  N   UNL     1       5.606   2.972   0.426  0.00  0.00    -0.135 NA
ATOM      5  N   UNL     1       4.250   2.824   0.753  0.00  0.00    -0.273 N 
ATOM      6  H   UNL     1       3.763   3.340   1.415  0.00  0.00    +0.189 HD
ATOM      7  O   UNL     1       7.095   1.898  -1.137  0.00  0.00    -0.421 OA
ATOM      8  C   UNL     1       7.077   1.143  -2.253  0.00  0.00    +0.201 C 
ATOM      9  C   UNL     1       6.035   0.381  -2.645  0.00  0.00    +0.101 C 
ATOM     10  C   UNL     1       4.750   0.284  -1.861  0.00  0.00    +0.138 C 
ENDROOT
BRANCH   1  13
ATOM     11  C   UNL     1      -0.016   1.354   0.009  0.00  0.00    +0.008 A 
ATOM     12  C   UNL     1       1.177   2.042   0.002  0.00  0.00    +0.017 A 
ATOM     13  C   UNL     1       2.348   1.328  -0.013  0.00  0.00    +0.037 A 
ATOM     14  S   UNL     1       1.752  -0.355  -0.017  0.00  0.00    -0.095 S 
ATOM     15  C   UNL     1       0.002  -0.004   0.002  0.00  0.00    +0.046 A 
ENDBRANCH   1  13
BRANCH  10  16
ATOM     16  C   UNL     1       4.662  -1.064  -1.192  0.00  0.00    +0.119 A 
ATOM     17  C   UNL     1       3.683  -1.971  -1.377  0.00  0.00    +0.046 A 
ATOM     18  C   UNL     1       3.989  -3.081  -0.565  0.00  0.00    +0.050 A 
ATOM     19  C   UNL     1       5.151  -2.787   0.077  0.00  0.00    +0.135 A 
ATOM     20  O   UNL     1       5.550  -1.563  -0.317  0.00  0.00    -0.459 OA
BRANCH  19  21
ATOM     21  C   UNL     1       5.856  -3.662   1.037  0.00  0.00    +0.017 A 
ATOM     22  C   UNL     1       5.337  -4.919   1.352  0.00  0.00    +0.012 A 
ATOM     23  C   UNL     1       6.000  -5.731   2.249  0.00  0.00    +0.016 A 
ATOM     24  C   UNL     1       7.177  -5.301   2.837  0.00  0.00    +0.018 A 
ATOM     25  C   UNL     1       7.697  -4.056   2.529  0.00  0.00    +0.016 A 
ATOM     26  C   UNL     1       7.047  -3.237   1.629  0.00  0.00    +0.012 A 
ATOM     27 BR   UNL     1       8.079  -6.420   4.066  0.00  0.00    -0.050 Br
ENDBRANCH  19  21
ENDBRANCH  10  16
BRANCH   8  28
ATOM     28  N   UNL     1       8.198   1.149  -3.046  0.00  0.00    -0.328 N 
ATOM     29  H   UNL     1       8.966   1.685  -2.795  0.00  0.00    +0.145 HD
ATOM     30  H   UNL     1       8.221   0.617  -3.857  0.00  0.00    +0.145 HD
ENDBRANCH   8  28
BRANCH   9  31
ATOM     31  C   UNL     1       6.154  -0.370  -3.859  0.00  0.00    +0.101 C 
ATOM     32  N   UNL     1       6.248  -0.965  -4.822  0.00  0.00    -0.191 NA
ENDBRANCH   9  31
TORSDOF 5
