REMARK  Name = ZINC14806721
REMARK  7 active torsions:
REMARK  status: ('A' for Active; 'I' for Inactive)
REMARK    1  A    between atoms: C_1  and  C_2
REMARK    2  A    between atoms: C_2  and  C_31
REMARK    3  A    between atoms: C_5  and  O_30
REMARK    4  A    between atoms: C_7  and  C_28
REMARK    5  A    between atoms: C_11  and  O_27
REMARK    6  A    between atoms: C_20  and  O_22
REMARK    7  A    between atoms: C_28  and  O_29
REMARK                            x       y       z     vdW  Elec       q    Type
REMARK                         _______ _______ _______ _____ _____    ______ ____
ROOT
ATOM      1  C   UNL     1      -0.169   0.780   2.739  0.00  0.00    +0.011 C 
ATOM      2  C   UNL     1      -0.923   1.562   1.639  0.00  0.00    -0.031 C 
ATOM      3  C   UNL     1      -0.270   1.183   0.309  0.00  0.00    +0.009 C 
ATOM      4  C   UNL     1      -1.076   1.725  -0.864  0.00  0.00    +0.032 C 
ATOM      5  C   UNL     1      -2.491   1.144  -0.842  0.00  0.00    +0.123 C 
ATOM      6  C   UNL     1      -3.208   1.525   0.456  0.00  0.00    +0.027 C 
ATOM      7  C   UNL     1      -2.383   1.140   1.673  0.00  0.00    +0.008 C 
ATOM      8  C   UNL     1      -3.065   1.602   2.956  0.00  0.00    +0.037 C 
ATOM      9  C   UNL     1      -4.483   1.040   3.046  0.00  0.00    +0.131 C 
ATOM     10  C   UNL     1      -4.829   0.160   1.871  0.00  0.00    +0.089 C 
ATOM     11  C   UNL     1      -4.566   0.819   0.517  0.00  0.00    +0.019 C 
ATOM     12  C   UNL     1      -4.706  -0.251  -0.568  0.00  0.00    +0.006 C 
ATOM     13  C   UNL     1      -6.113  -0.860  -0.494  0.00  0.00    +0.011 C 
ATOM     14  C   UNL     1      -6.374  -1.383   0.926  0.00  0.00    +0.051 C 
ATOM     15  C   UNL     1      -6.357  -0.157   1.882  0.00  0.00    +0.138 C 
ATOM     16  C   UNL     1      -5.144  -2.170   1.355  0.00  0.00    -0.006 C 
ATOM     17  C   UNL     1      -4.952  -3.483   1.215  0.00  0.00    +0.016 C 
ATOM     18  C   UNL     1      -4.205  -1.210   1.963  0.00  0.00    +0.170 C 
ATOM     19  O   UNL     1      -3.143  -1.513   2.471  0.00  0.00    -0.292 OA
ATOM     20  C   UNL     1      -0.722   3.049   1.917  0.00  0.00    +0.011 C 
ENDROOT
BRANCH  15  21
ATOM     21  O   UNL     1      -6.796  -0.512   3.194  0.00  0.00    -0.390 OA
ATOM     22  H   UNL     1      -7.739  -0.718   3.250  0.00  0.00    +0.210 HD
ENDBRANCH  15  21
BRANCH   9  23
ATOM     23  O   UNL     1      -5.413   2.123   3.121  0.00  0.00    -0.391 OA
ATOM     24  H   UNL     1      -5.251   2.731   3.855  0.00  0.00    +0.210 HD
ENDBRANCH   9  23
BRANCH   5  25
ATOM     25  O   UNL     1      -3.204   1.710  -1.952  0.00  0.00    -0.391 OA
ATOM     26  H   UNL     1      -2.808   1.516  -2.813  0.00  0.00    +0.210 HD
ENDBRANCH   5  25
BRANCH   6  27
ATOM     27  C   UNL     1      -3.494   3.034   0.425  0.00  0.00    +0.165 C 
BRANCH  27  28
ATOM     28  O   UNL     1      -4.403   3.325  -0.639  0.00  0.00    -0.394 OA
ATOM     29  H   UNL     1      -4.629   4.261  -0.718  0.00  0.00    +0.209 HD
ENDBRANCH  27  28
ENDBRANCH   6  27
TORSDOF 5
