REMARK  Name = ZINC39505089
REMARK  2 active torsions:
REMARK  status: ('A' for Active; 'I' for Inactive)
REMARK    1  A    between atoms: C_5  and  O_7
REMARK    2  A    between atoms: N_12  and  O_13
REMARK                            x       y       z     vdW  Elec       q    Type
REMARK                         _______ _______ _______ _____ _____    ______ ____
ROOT
ATOM      1  C   UNL     1      -0.019   1.545   0.011  0.00  0.00    +0.033 C 
ATOM      2  C   UNL     1       1.488   1.909  -0.002  0.00  0.00    +0.027 C 
ATOM      3  C   UNL     1       2.138   0.842   0.894  0.00  0.00    +0.050 C 
ATOM      4  C   UNL     1       1.201  -0.372   0.903  0.00  0.00    +0.056 C 
ATOM      5  C   UNL     1       0.002  -0.004   0.002  0.00  0.00    +0.116 C 
ATOM      6  C   UNL     1       2.318   1.388   2.320  0.00  0.00    +0.040 C 
ATOM      7  C   UNL     1       3.679   0.779   2.753  0.00  0.00    +0.075 C 
ATOM      8  C   UNL     1       4.469   0.794   1.421  0.00  0.00    +0.130 C 
ATOM      9  N   UNL     1       3.464   0.475   0.382  0.00  0.00    -0.184 NA
ATOM     10 BR   UNL     1       4.555   1.906   4.105  0.00  0.00    -0.087 Br
ENDROOT
BRANCH   5  11
ATOM     11  O   UNL     1      -1.212  -0.524   0.548  0.00  0.00    -0.392 OA
ATOM     12  H   UNL     1      -2.004  -0.274   0.054  0.00  0.00    +0.210 HD
ENDBRANCH   5  11
BRANCH   9  13
ATOM     13  O   UNL     1       3.758   1.180  -0.866  0.00  0.00    -0.312 OA
ATOM     14  H   UNL     1       4.623   0.969  -1.242  0.00  0.00    +0.237 HD
ENDBRANCH   9  13
TORSDOF 2
