REMARK  Name = ZINC23266616
REMARK  7 active torsions:
REMARK  status: ('A' for Active; 'I' for Inactive)
REMARK    1  A    between atoms: C_6  and  C_7
REMARK    2  A    between atoms: C_10  and  C_12
REMARK    3  A    between atoms: C_12  and  O_14
REMARK    4  A    between atoms: O_14  and  C_15
REMARK    5  A    between atoms: C_15  and  C_16
REMARK    6  A    between atoms: N_18  and  C_19
REMARK    7  A    between atoms: C_20  and  C_27
REMARK                            x       y       z     vdW  Elec       q    Type
REMARK                         _______ _______ _______ _____ _____    ______ ____
ROOT
ATOM      1  C   UNL     1      -3.587   1.978   0.030  0.00  0.00    +0.255 C 
ATOM      2  O   UNL     1      -3.445   3.183   0.036  0.00  0.00    -0.272 OA
ATOM      3  N   UNL     1      -4.825   1.446   0.033  0.00  0.00    -0.277 N 
ATOM      4  H   UNL     1      -4.955   0.354   0.028  0.00  0.00    +0.155 HD
ENDROOT
BRANCH   3   5
ATOM      5  C   UNL     1      -5.936   2.276   0.043  0.00  0.00    +0.084 A 
ATOM      6  C   UNL     1      -7.275   1.922   0.041  0.00  0.00    +0.068 A 
ATOM      7  C   UNL     1      -8.261   3.001   0.057  0.00  0.00    -0.023 A 
ATOM      8  C   UNL     1      -7.747   4.244   0.062  0.00  0.00    -0.004 A 
ATOM      9  S   UNL     1      -5.987   4.006   0.052  0.00  0.00    -0.077 S 
ATOM     10  C   UNL     1      -8.821   5.299   0.076  0.00  0.00    +0.043 C 
ATOM     11  C   UNL     1     -10.097   4.548   0.516  0.00  0.00    +0.010 C 
ATOM     12  C   UNL     1      -9.787   3.108   0.064  0.00  0.00    +0.037 C 
BRANCH   6  13
ATOM     13  C   UNL     1      -7.688   0.515   0.029  0.00  0.00    +0.244 C 
ATOM     14  O   UNL     1      -7.859  -0.079   1.077  0.00  0.00    -0.270 OA
ATOM     15  N   UNL     1      -7.880  -0.120  -1.144  0.00  0.00    -0.325 N 
ATOM     16  H   UNL     1      -8.190  -1.176  -1.154  0.00  0.00    +0.145 HD
ATOM     17  H   UNL     1      -7.726   0.416  -2.092  0.00  0.00    +0.145 HD
ENDBRANCH   6  13
ENDBRANCH   3   5
BRANCH   1  18
ATOM     18  C   UNL     1      -2.380   1.077   0.019  0.00  0.00    +0.328 C 
BRANCH  18  19
ATOM     19  O   UNL     1      -1.192   1.871   0.018  0.00  0.00    -0.451 OA
BRANCH  19  20
ATOM     20  C   UNL     1      -0.014   1.212   0.009  0.00  0.00    +0.346 C 
ATOM     21  O   UNL     1       0.002  -0.004   0.002  0.00  0.00    -0.244 OA
BRANCH  20  25
ATOM     22  C   UNL     1       3.280   3.730  -0.008  0.00  0.00    +0.020 A 
ATOM     23  C   UNL     1       3.575   2.376  -0.019  0.00  0.00    +0.017 A 
ATOM     24  C   UNL     1       2.544   1.479  -0.009  0.00  0.00    +0.023 A 
ATOM     25  C   UNL     1       1.242   1.961   0.001  0.00  0.00    +0.097 A 
ATOM     26  S   UNL     1       1.495   3.728   0.008  0.00  0.00    -0.082 S 
BRANCH  22  32
ATOM     27  C   UNL     1       5.587   4.670  -0.019  0.00  0.00    +0.012 A 
ATOM     28  C   UNL     1       6.447   5.748  -0.026  0.00  0.00    +0.039 A 
ATOM     29  C   UNL     1       5.944   7.039  -0.014  0.00  0.00    +0.123 A 
ATOM     30  C   UNL     1       4.575   7.255   0.001  0.00  0.00    +0.039 A 
ATOM     31  C   UNL     1       3.706   6.184   0.002  0.00  0.00    +0.012 A 
ATOM     32  C   UNL     1       4.207   4.881  -0.011  0.00  0.00    -0.011 A 
ATOM     33  F   UNL     1       6.791   8.091  -0.015  0.00  0.00    -0.205 F 
ENDBRANCH  22  32
ENDBRANCH  20  25
ENDBRANCH  19  20
ENDBRANCH  18  19
ENDBRANCH   1  18
TORSDOF 7
