REMARK  Name = ZINC62017443
REMARK  8 active torsions:
REMARK  status: ('A' for Active; 'I' for Inactive)
REMARK    1  A    between atoms: C_1  and  C_2
REMARK    2  A    between atoms: C_2  and  C_4
REMARK    3  A    between atoms: C_2  and  N_11
REMARK    4  A    between atoms: N_11  and  C_12
REMARK    5  A    between atoms: N_11  and  C_13
REMARK    6  A    between atoms: C_13  and  C_14
REMARK    7  A    between atoms: C_18  and  N_20
REMARK    8  A    between atoms: N_20  and  N_21
REMARK                            x       y       z     vdW  Elec       q    Type
REMARK                         _______ _______ _______ _____ _____    ______ ____
ROOT
ATOM      1  C   UNL     1       0.859  -2.043   0.750  0.00  0.00    -0.020 C 
ENDROOT
BRANCH   1   2
ATOM      2  C   UNL     1       1.657  -2.718   1.836  0.00  0.00    +0.045 A 
ATOM      3  C   UNL     1       3.011  -2.926   1.658  0.00  0.00    +0.060 A 
ATOM      4  C   UNL     1       3.741  -3.549   2.663  0.00  0.00    +0.025 A 
ATOM      5  C   UNL     1       3.080  -3.941   3.813  0.00  0.00    +0.046 A 
ATOM      6  C   UNL     1       1.715  -3.699   3.924  0.00  0.00    +0.132 A 
ATOM      7  N   UNL     1       1.054  -3.098   2.947  0.00  0.00    -0.236 NA
ATOM      8 CL   UNL     1       3.792  -2.416   0.194  0.00  0.00    -0.082 Cl
BRANCH   6   9
ATOM      9  N   UNL     1       1.038  -4.088   5.075  0.00  0.00    -0.268 N 
ATOM     10  H   UNL     1       1.518  -4.526   5.796  0.00  0.00    +0.167 HD
BRANCH   9  11
ATOM     11  N   UNL     1      -0.303  -3.854   5.191  0.00  0.00    -0.255 NA
ATOM     12  H   UNL     1      -0.810  -4.266   4.422  0.00  0.00    +0.140 HD
ATOM     13  H   UNL     1      -0.653  -4.190   6.076  0.00  0.00    +0.140 HD
ENDBRANCH   9  11
ENDBRANCH   6   9
ENDBRANCH   1   2
BRANCH   1  14
ATOM     14  N   UNL     1       0.753  -0.607   1.041  0.00  0.00    +0.386 N 
ATOM     15  C   UNL     1      -0.012  -0.413   2.280  0.00  0.00    -0.095 C 
ATOM     16  H   UNL     1       1.677  -0.218   1.151  0.00  0.00    -0.081 HD
BRANCH  14  18
ATOM     17  C   UNL     1      -0.162   1.537   0.291  0.00  0.00    -0.008 C 
ATOM     18  C   UNL     1       0.067   0.068  -0.069  0.00  0.00    -0.039 C 
BRANCH  18  19
ATOM     19  C   UNL     1       0.916  -0.018  -1.311  0.00  0.00    -0.043 A 
ATOM     20  C   UNL     1       2.291  -0.115  -1.203  0.00  0.00    +0.003 A 
ATOM     21  C   UNL     1       3.070  -0.194  -2.342  0.00  0.00    +0.000 A 
ATOM     22  C   UNL     1       2.475  -0.176  -3.590  0.00  0.00    +0.001 A 
ATOM     23  C   UNL     1       1.101  -0.079  -3.699  0.00  0.00    +0.020 A 
ATOM     24  C   UNL     1       0.320  -0.006  -2.559  0.00  0.00    +0.043 A 
ATOM     25 CL   UNL     1      -1.407   0.109  -2.695  0.00  0.00    -0.083 Cl
ENDBRANCH  18  19
ENDBRANCH  14  18
ENDBRANCH   1  14
TORSDOF 6
