REMARK  Name = ZINC32487912
REMARK  3 active torsions:
REMARK  status: ('A' for Active; 'I' for Inactive)
REMARK    1  A    between atoms: C_9  and  C_12
REMARK    2  A    between atoms: C_12  and  N_13
REMARK    3  A    between atoms: C_14  and  C_16
REMARK                            x       y       z     vdW  Elec       q    Type
REMARK                         _______ _______ _______ _____ _____    ______ ____
ROOT
ATOM      1  N   UNL     1      -0.267  -4.665  -0.022  0.00  0.00    -0.305 N 
ATOM      2  C   UNL     1      -1.021  -3.548  -0.009  0.00  0.00    +0.280 C 
ATOM      3  O   UNL     1      -2.235  -3.633   0.002  0.00  0.00    -0.267 OA
ATOM      4  H   UNL     1       0.830  -4.588  -0.033  0.00  0.00    +0.149 HD
ENDROOT
BRANCH   2   5
ATOM      5  C   UNL     1      -0.377  -2.227  -0.007  0.00  0.00    +0.191 A 
ATOM      6  C   UNL     1      -1.033  -1.037   0.006  0.00  0.00    +0.063 A 
ATOM      7  C   UNL     1       0.002  -0.004   0.002  0.00  0.00    +0.022 A 
ATOM      8  C   UNL     1      -0.017   1.393   0.010  0.00  0.00    +0.012 A 
ATOM      9  C   UNL     1       1.160   2.087   0.002  0.00  0.00    +0.002 A 
ATOM     10  C   UNL     1       2.374   1.413  -0.012  0.00  0.00    +0.019 A 
ATOM     11  C   UNL     1       2.414   0.035  -0.020  0.00  0.00    +0.061 A 
ATOM     12  C   UNL     1       1.229  -0.693  -0.013  0.00  0.00    +0.150 A 
ATOM     13  O   UNL     1       0.955  -2.012  -0.019  0.00  0.00    -0.449 OA
ATOM     14 BR   UNL     1       4.078  -0.865  -0.040  0.00  0.00    -0.046 Br
ENDBRANCH   2   5
BRANCH   1  15
ATOM     15  C   UNL     1      -0.909  -5.982  -0.024  0.00  0.00    +0.152 C 
BRANCH  15  24
ATOM     16  C   UNL     1       3.324 -10.272   2.036  0.00  0.00    +0.004 A 
ATOM     17  C   UNL     1       3.522  -9.066   2.684  0.00  0.00    +0.004 A 
ATOM     18  C   UNL     1       2.717  -7.982   2.392  0.00  0.00    +0.049 A 
ATOM     19  C   UNL     1       1.708  -8.100   1.449  0.00  0.00    +0.163 A 
ATOM     20  C   UNL     1       1.510  -9.310   0.796  0.00  0.00    +0.162 A 
ATOM     21  C   UNL     1       2.321 -10.396   1.094  0.00  0.00    +0.049 A 
ATOM     22  O   UNL     1       0.528  -9.447  -0.137  0.00  0.00    -0.485 OA
ATOM     23  C   UNL     1      -0.501  -8.452  -0.137  0.00  0.00    +0.275 C 
ATOM     24  C   UNL     1       0.164  -7.072  -0.040  0.00  0.00    +0.228 C 
ATOM     25  O   UNL     1       0.920  -7.024   1.175  0.00  0.00    -0.480 OA
ENDBRANCH  15  24
ENDBRANCH   1  15
TORSDOF 3
