REMARK  Name = ZINC11736773
REMARK  9 active torsions:
REMARK  status: ('A' for Active; 'I' for Inactive)
REMARK    1  A    between atoms: C_1  and  C_2
REMARK    2  A    between atoms: C_4  and  S_12
REMARK    3  A    between atoms: C_5  and  O_10
REMARK    4  A    between atoms: C_6  and  N_9
REMARK    5  A    between atoms: C_7  and  C_8
REMARK    6  A    between atoms: O_10  and  C_11
REMARK    7  A    between atoms: S_12  and  N_15
REMARK    8  A    between atoms: N_15  and  C_16
REMARK    9  A    between atoms: N_15  and  C_17
REMARK                            x       y       z     vdW  Elec       q    Type
REMARK                         _______ _______ _______ _____ _____    ______ ____
ROOT
ATOM      1  C   UNL     1       1.488   1.311   2.674  0.00  0.00    +0.044 C 
ATOM      2  C   UNL     1       0.026   1.663   2.563  0.00  0.00    -0.044 A 
ATOM      3  C   UNL     1      -0.664   2.102   3.678  0.00  0.00    +0.036 A 
ATOM      4  C   UNL     1      -2.005   2.426   3.582  0.00  0.00    +0.149 A 
ATOM      5  C   UNL     1      -2.660   2.312   2.367  0.00  0.00    +0.167 A 
ATOM      6  C   UNL     1      -1.964   1.875   1.242  0.00  0.00    +0.072 A 
ATOM      7  C   UNL     1      -0.620   1.546   1.347  0.00  0.00    -0.023 A 
ATOM      8  C   UNL     1       0.136   1.068   0.134  0.00  0.00    +0.046 C 
ENDROOT
BRANCH   6   9
ATOM      9  N   UNL     1      -2.619   1.763   0.011  0.00  0.00    -0.355 N 
ATOM     10  H   UNL     1      -2.134   1.455  -0.771  0.00  0.00    +0.142 HD
ATOM     11  H   UNL     1      -3.559   1.993  -0.061  0.00  0.00    +0.142 HD
ENDBRANCH   6   9
BRANCH   4  12
ATOM     12  S   UNL     1      -2.880   2.985   5.005  0.00  0.00    +0.064 S 
ATOM     13  O   UNL     1      -1.947   2.994   6.077  0.00  0.00    -0.153 OA
ATOM     14  O   UNL     1      -3.599   4.146   4.611  0.00  0.00    -0.153 OA
BRANCH  12  15
ATOM     15  N   UNL     1      -4.009   1.830   5.370  0.00  0.00    -0.183 NA
ATOM     16  C   UNL     1      -3.628   0.658   6.163  0.00  0.00    +0.131 C 
ATOM     17  C   UNL     1      -5.388   1.980   4.901  0.00  0.00    +0.131 C 
ENDBRANCH  12  15
ENDBRANCH   4  12
BRANCH   5  18
ATOM     18  O   UNL     1      -3.979   2.631   2.271  0.00  0.00    -0.491 OA
ATOM     19  C   UNL     1      -4.296   3.945   1.808  0.00  0.00    +0.277 C 
ENDBRANCH   5  18
TORSDOF 4
