REMARK  Name = ZINC52860547
REMARK  5 active torsions:
REMARK  status: ('A' for Active; 'I' for Inactive)
REMARK    1  A    between atoms: C_1  and  C_2
REMARK    2  A    between atoms: C_2  and  C_3
REMARK    3  A    between atoms: N_6  and  C_10
REMARK    4  A    between atoms: C_15  and  C_16
REMARK    5  A    between atoms: N_17  and  O_18
REMARK                            x       y       z     vdW  Elec       q    Type
REMARK                         _______ _______ _______ _____ _____    ______ ____
ROOT
ATOM      1  C   UNL     1      -3.355  -3.446   0.860  0.00  0.00    +0.041 A 
ATOM      2  C   UNL     1      -4.062  -2.964   1.954  0.00  0.00    +0.025 A 
ATOM      3  C   UNL     1      -4.623  -3.845   2.856  0.00  0.00    +0.022 A 
ATOM      4  C   UNL     1      -4.487  -5.213   2.678  0.00  0.00    +0.042 A 
ATOM      5  C   UNL     1      -3.788  -5.707   1.596  0.00  0.00    +0.033 A 
ATOM      6  C   UNL     1      -3.219  -4.828   0.674  0.00  0.00    +0.040 A 
ATOM      7 CL   UNL     1      -5.197  -6.309   3.822  0.00  0.00    -0.084 Cl
ENDROOT
BRANCH   1  10
ATOM      8  C   UNL     1      -1.433  -0.534   0.013  0.00  0.00    +0.135 C 
ATOM      9  C   UNL     1      -1.414  -2.062   0.128  0.00  0.00    +0.136 C 
ATOM     10  N   UNL     1      -2.788  -2.558  -0.052  0.00  0.00    -0.325 N 
ATOM     11  C   UNL     1      -3.545  -2.089  -1.223  0.00  0.00    +0.133 C 
ATOM     12  C   UNL     1      -3.460  -0.559  -1.272  0.00  0.00    +0.179 C 
ATOM     13  O   UNL     1      -2.089  -0.160  -1.201  0.00  0.00    -0.373 OA
BRANCH   8  15
ATOM     14  C   UNL     1      -0.019   1.526   0.010  0.00  0.00    +0.006 C 
ATOM     15  C   UNL     1       0.002  -0.004   0.002  0.00  0.00    +0.030 C 
ENDBRANCH   8  15
ENDBRANCH   1  10
BRANCH   6  16
ATOM     16  C   UNL     1      -2.474  -5.351  -0.491  0.00  0.00    +0.164 C 
ATOM     17  N   UNL     1      -1.942  -4.528  -1.347  0.00  0.00    -0.071 NA
ATOM     18  N   UNL     1      -2.342  -6.718  -0.671  0.00  0.00    -0.340 N 
ATOM     19  H   UNL     1      -2.739  -7.332  -0.033  0.00  0.00    +0.144 HD
ATOM     20  H   UNL     1      -1.853  -7.062  -1.435  0.00  0.00    +0.144 HD
BRANCH  17  21
ATOM     21  O   UNL     1      -1.228  -5.029  -2.462  0.00  0.00    -0.408 OA
ATOM     22  H   UNL     1      -0.869  -4.343  -3.041  0.00  0.00    +0.328 HD
ENDBRANCH  17  21
ENDBRANCH   6  16
TORSDOF 4
