REMARK  Name = ZINC63147956
REMARK  6 active torsions:
REMARK  status: ('A' for Active; 'I' for Inactive)
REMARK    1  A    between atoms: C_5  and  C_6
REMARK    2  A    between atoms: C_6  and  N_7
REMARK    3  A    between atoms: N_10  and  CA_11
REMARK    4  A    between atoms: CA_11  and  CB_13
REMARK    5  A    between atoms: CA_11  and  C_20
REMARK    6  A    between atoms: CB_13  and  CG_14
REMARK                            x       y       z     vdW  Elec       q    Type
REMARK                         _______ _______ _______ _____ _____    ______ ____
ROOT
ATOM      1  N   UNK A   0      -1.717  -1.032  -1.368  0.00  0.00    -0.295 N 
ATOM      2  C   UNK A   0      -2.852  -1.719  -1.606  0.00  0.00    +0.301 C 
ATOM      3  O   UNK A   0      -3.518  -2.134  -0.678  0.00  0.00    -0.253 OA
ATOM      4  N   HIS A   1      -3.248  -1.946  -2.874  0.00  0.00    -0.286 N 
ATOM      5  H   UNK A   0      -1.186  -0.701  -2.109  0.00  0.00    +0.151 HD
ATOM      6  H   HIS A   1      -2.717  -1.614  -3.615  0.00  0.00    +0.151 HD
ENDROOT
BRANCH   1   7
ATOM      7  C   UNK A   0      -1.286  -0.786   0.011  0.00  0.00    +0.141 C 
BRANCH   7  12
ATOM      8  C   UNK A   0      -0.017   1.378   0.010  0.00  0.00    +0.013 A 
ATOM      9  C   UNK A   0       1.160   2.051   0.002  0.00  0.00    +0.045 A 
ATOM     10  S   UNK A   0       2.348   0.719  -0.017  0.00  0.00    -0.105 S 
ATOM     11  C   UNK A   0       1.196  -0.645  -0.013  0.00  0.00    +0.050 A 
ATOM     12  C   UNK A   0       0.002  -0.004   0.002  0.00  0.00    -0.023 A 
ENDBRANCH   7  12
ENDBRANCH   1   7
BRANCH   4  13
ATOM     13  CA  HIS A   1      -4.482  -2.692  -3.134  0.00  0.00    +0.193 C 
BRANCH  13  14
ATOM     14  C   HIS A   1      -4.189  -4.170  -3.115  0.00  0.00    +0.376 C 
ATOM     15  O   HIS A   1      -5.050  -4.958  -2.765  0.00  0.00    -0.244 OA
ATOM     16  OXT HIS A   1      -3.089  -4.577  -3.449  0.00  0.00    -0.244 OA
ENDBRANCH  13  14
BRANCH  13  17
ATOM     17  CB  HIS A   1      -5.037  -2.300  -4.505  0.00  0.00    +0.088 C 
BRANCH  17  18
ATOM     18  CG  HIS A   1      -5.445  -0.849  -4.486  0.00  0.00    +0.035 A 
ATOM     19  CD2 HIS A   1      -4.646   0.213  -4.705  0.00  0.00    +0.105 A 
ATOM     20  NE2 HIS A   1      -5.392   1.322  -4.598  0.00  0.00    -0.352 N 
ATOM     21  HD1 HIS A   1      -7.496  -0.879  -4.059  0.00  0.00    +0.166 HD
ATOM     22  CE1 HIS A   1      -6.623   0.988  -4.322  0.00  0.00    +0.171 A 
ATOM     23  ND1 HIS A   1      -6.700  -0.358  -4.248  0.00  0.00    -0.350 N 
ATOM     24  HE2 HIS A   1      -5.068   2.230  -4.710  0.00  0.00    +0.166 HD
ENDBRANCH  17  18
ENDBRANCH  13  17
ENDBRANCH   4  13
TORSDOF 6
