REMARK  Name = ZINC15994476
REMARK  7 active torsions:
REMARK  status: ('A' for Active; 'I' for Inactive)
REMARK    1  A    between atoms: C_1  and  C_2
REMARK    2  A    between atoms: C_4  and  C_8
REMARK    3  A    between atoms: C_5  and  C_7
REMARK    4  A    between atoms: N_10  and  N_11
REMARK    5  A    between atoms: C_12  and  C_14
REMARK    6  A    between atoms: N_17  and  S_20
REMARK    7  A    between atoms: S_20  and  C_23
REMARK                            x       y       z     vdW  Elec       q    Type
REMARK                         _______ _______ _______ _____ _____    ______ ____
ROOT
ATOM      1  C   UNL     1       5.264   6.507  -0.013  0.00  0.00    +0.079 C 
ATOM      2  C   UNL     1       4.723   7.222  -1.253  0.00  0.00    +0.030 C 
ATOM      3  C   UNL     1       5.170   8.687  -1.229  0.00  0.00    +0.110 C 
ATOM      4  N   UNL     1       6.632   8.733  -1.096  0.00  0.00    -0.177 NA
ATOM      5  C   UNL     1       7.265   8.003   0.011  0.00  0.00    +0.110 C 
ATOM      6  C   UNL     1       6.794   6.546  -0.028  0.00  0.00    +0.030 C 
ENDROOT
BRANCH   1   8
ATOM      7  N   UNL     1       3.480   4.794  -0.005  0.00  0.00    -0.234 N 
ATOM      8  C   UNL     1       4.798   5.074  -0.017  0.00  0.00    +0.232 C 
ATOM      9  O   UNL     1       5.609   4.172  -0.029  0.00  0.00    -0.274 OA
ATOM     10  H   UNL     1       2.831   5.515   0.005  0.00  0.00    +0.173 HD
BRANCH   7  13
ATOM     11  C   UNL     1       1.728   3.182   0.003  0.00  0.00    +0.263 C 
ATOM     12  O   UNL     1       0.915   4.086   0.015  0.00  0.00    -0.269 OA
ATOM     13  N   UNL     1       3.047   3.462  -0.008  0.00  0.00    -0.230 N 
ATOM     14  H   UNL     1       3.695   2.741  -0.018  0.00  0.00    +0.173 HD
BRANCH  11  18
ATOM     15  C   UNL     1       1.660  -1.919  -0.024  0.00  0.00    +0.086 C 
ATOM     16  C   UNL     1       1.262  -0.466  -0.013  0.00  0.00    +0.103 A 
ATOM     17  C   UNL     1       2.111   0.573  -0.015  0.00  0.00    +0.057 A 
ATOM     18  C   UNL     1       1.272   1.780  -0.001  0.00  0.00    +0.079 A 
ATOM     19  C   UNL     1      -0.016   1.332   0.009  0.00  0.00    +0.114 A 
ATOM     20  O   UNL     1       0.002  -0.004   0.002  0.00  0.00    -0.464 OA
ATOM     21  C   UNL     1      -1.250   2.197   0.020  0.00  0.00    +0.087 C 
ENDBRANCH  11  18
ENDBRANCH   7  13
ENDBRANCH   1   8
BRANCH   4  22
ATOM     22  S   UNL     1       7.550   9.593  -2.174  0.00  0.00    +0.061 S 
ATOM     23  O   UNL     1       6.700  10.587  -2.729  0.00  0.00    -0.153 OA
ATOM     24  O   UNL     1       8.764   9.913  -1.508  0.00  0.00    -0.153 OA
BRANCH  22  25
ATOM     25  C   UNL     1       7.971   8.498  -3.489  0.00  0.00    +0.106 A 
ATOM     26  C   UNL     1       9.131   7.749  -3.420  0.00  0.00    +0.030 A 
ATOM     27  C   UNL     1       9.459   6.886  -4.449  0.00  0.00    +0.022 A 
ATOM     28  C   UNL     1       8.631   6.780  -5.553  0.00  0.00    +0.041 A 
ATOM     29  C   UNL     1       7.473   7.534  -5.623  0.00  0.00    +0.022 A 
ATOM     30  C   UNL     1       7.144   8.392  -4.592  0.00  0.00    +0.030 A 
ATOM     31 CL   UNL     1       9.046   5.701  -6.848  0.00  0.00    -0.084 Cl
ENDBRANCH  22  25
ENDBRANCH   4  22
TORSDOF 5
