REMARK  Name = ZINC23466156
REMARK  7 active torsions:
REMARK  status: ('A' for Active; 'I' for Inactive)
REMARK    1  A    between atoms: C_1  and  C_2
REMARK    2  A    between atoms: C_2  and  C_3
REMARK    3  A    between atoms: C_2  and  C_4
REMARK    4  A    between atoms: C_2  and  N_30
REMARK    5  A    between atoms: N_6  and  C_9
REMARK    6  A    between atoms: C_9  and  C_10
REMARK    7  A    between atoms: N_19  and  C_20
REMARK                            x       y       z     vdW  Elec       q    Type
REMARK                         _______ _______ _______ _____ _____    ______ ____
ROOT
ATOM      1  C   UNL     1       3.922   1.748  -1.207  0.00  0.00    +0.028 C 
ATOM      2  C   UNL     1       5.437   1.956  -1.151  0.00  0.00    +0.008 C 
ATOM      3  C   UNL     1       5.875   2.849  -2.314  0.00  0.00    +0.019 C 
ATOM      4  C   UNL     1       5.529   2.162  -3.639  0.00  0.00    +0.109 C 
ATOM      5  N   UNL     1       4.099   1.827  -3.640  0.00  0.00    -0.285 N 
ATOM      6  C   UNL     1       3.554   1.048  -2.519  0.00  0.00    +0.114 C 
ATOM      7  C   UNL     1       3.300   2.228  -4.649  0.00  0.00    +0.303 C 
ATOM      8  O   UNL     1       2.139   1.869  -4.685  0.00  0.00    -0.253 OA
ATOM      9  N   UNL     1       3.789   3.028  -5.618  0.00  0.00    -0.294 N 
ATOM     10  H   UNL     1       4.858   3.286  -5.630  0.00  0.00    +0.151 HD
ENDROOT
BRANCH   9  11
ATOM     11  C   UNL     1       2.896   3.553  -6.654  0.00  0.00    +0.037 C 
ATOM     12  C   UNL     1       1.796   4.393  -6.001  0.00  0.00    +0.029 C 
ATOM     13  C   UNL     1       0.864   4.941  -7.083  0.00  0.00    -0.008 C 
ATOM     14  C   UNL     1       1.665   5.814  -8.052  0.00  0.00    +0.007 C 
ATOM     15  C   UNL     1       2.764   4.974  -8.705  0.00  0.00    -0.008 C 
ATOM     16  C   UNL     1       3.697   4.425  -7.623  0.00  0.00    +0.029 C 
ATOM     17  C   UNL     1       2.131   3.810  -9.470  0.00  0.00    +0.007 C 
ATOM     18  C   UNL     1       1.331   2.938  -8.501  0.00  0.00    -0.008 C 
ATOM     19  C   UNL     1       0.231   3.778  -7.848  0.00  0.00    +0.007 C 
ATOM     20  C   UNL     1       2.263   2.389  -7.419  0.00  0.00    +0.029 C 
ENDBRANCH   9  11
BRANCH   1  21
ATOM     21  C   UNL     1       3.481   0.882  -0.025  0.00  0.00    +0.150 C 
BRANCH  21  24
ATOM     22  C   UNL     1       0.002  -0.001   0.003  0.00  0.00    +0.071 A 
ATOM     23  C   UNL     1       1.304  -0.368  -0.011  0.00  0.00    +0.132 A 
ATOM     24  N   UNL     1       2.020   0.781  -0.012  0.00  0.00    -0.251 N 
ATOM     25  N   UNL     1       1.195   1.769   0.001  0.00  0.00    -0.065 NA
ATOM     26  N   UNL     1      -0.016   1.337   0.010  0.00  0.00    -0.136 NA
BRANCH  22  28
ATOM     27  C   UNL     1      -2.477  -0.085   0.027  0.00  0.00    -0.004 C 
ATOM     28  C   UNL     1      -1.194  -0.918   0.011  0.00  0.00    -0.030 C 
ATOM     29  C   UNL     1      -1.171  -1.795  -1.243  0.00  0.00    -0.004 C 
BRANCH  28  30
ATOM     30  N   UNL     1      -1.149  -1.771   1.206  0.00  0.00    +0.385 N 
ATOM     31  H   UNL     1      -0.227  -2.371   1.194  0.00  0.00    -0.089 HD
ATOM     32  H   UNL     1      -2.021  -2.441   1.211  0.00  0.00    -0.089 HD
ATOM     33  H   UNL     1      -1.165  -1.141   2.107  0.00  0.00    -0.089 HD
ENDBRANCH  28  30
ENDBRANCH  22  28
ENDBRANCH  21  24
ENDBRANCH   1  21
TORSDOF 5
