REMARK  Name = ZINC33494816
REMARK  4 active torsions:
REMARK  status: ('A' for Active; 'I' for Inactive)
REMARK    1  A    between atoms: C_1  and  N_2
REMARK    2  A    between atoms: N_2  and  C_3
REMARK    3  A    between atoms: C_4  and  C_11
REMARK    4  A    between atoms: N_13  and  N_14
REMARK                            x       y       z     vdW  Elec       q    Type
REMARK                         _______ _______ _______ _____ _____    ______ ____
ROOT
ATOM      1  C   UNL     1       1.231  -0.681  -0.013  0.00  0.00    +0.075 A 
ATOM      2  C   UNL     1       0.002  -0.004   0.002  0.00  0.00    +0.063 A 
ATOM      3  C   UNL     1      -0.017   1.393   0.010  0.00  0.00    +0.030 A 
ATOM      4  C   UNL     1       1.168   2.098   0.002  0.00  0.00    +0.021 A 
ATOM      5  C   UNL     1       2.381   1.427  -0.013  0.00  0.00    +0.055 A 
ATOM      6  C   UNL     1       2.417   0.046  -0.021  0.00  0.00    +0.146 A 
ATOM      7  F   UNL     1       3.604  -0.599  -0.035  0.00  0.00    -0.203 F 
ATOM      8 BR   UNL     1       1.138   3.989   0.012  0.00  0.00    -0.050 Br
ENDROOT
BRANCH   2   9
ATOM      9  C   UNL     1      -1.262  -0.763   0.009  0.00  0.00    +0.259 C 
ATOM     10  O   UNL     1      -1.242  -1.979   0.003  0.00  0.00    -0.269 OA
ATOM     11  N   UNL     1      -2.441  -0.109   0.024  0.00  0.00    -0.250 N 
ATOM     12  H   UNL     1      -2.459   0.991   0.030  0.00  0.00    +0.169 HD
BRANCH  11  13
ATOM     13  N   UNL     1      -3.612  -0.812   0.031  0.00  0.00    -0.254 NA
ATOM     14  H   UNL     1      -4.460  -0.111   0.042  0.00  0.00    +0.140 HD
ATOM     15  H   UNL     1      -3.667  -1.440  -0.870  0.00  0.00    +0.140 HD
ENDBRANCH  11  13
ENDBRANCH   2   9
BRANCH   1  17
ATOM     16  C   UNL     1       1.949  -2.575  -1.218  0.00  0.00    +0.125 C 
ATOM     17  N   UNL     1       1.263  -2.071  -0.021  0.00  0.00    -0.344 N 
ATOM     18  H   UNL     1       0.859  -2.777   0.720  0.00  0.00    +0.146 HD
ENDBRANCH   1  17
TORSDOF 3
