REMARK  Name = ZINC21023818
REMARK  6 active torsions:
REMARK  status: ('A' for Active; 'I' for Inactive)
REMARK    1  A    between atoms: C_1  and  C_2
REMARK    2  A    between atoms: C_3  and  N_22
REMARK    3  A    between atoms: C_5  and  S_9
REMARK    4  A    between atoms: S_9  and  N_12
REMARK    5  A    between atoms: N_12  and  C_13
REMARK    6  A    between atoms: C_19  and  C_21
REMARK                            x       y       z     vdW  Elec       q    Type
REMARK                         _______ _______ _______ _____ _____    ______ ____
ROOT
ATOM      1  S   UNL     1      -2.834   3.034   4.980  0.00  0.00    +0.059 S 
ATOM      2  O   UNL     1      -4.192   2.633   4.863  0.00  0.00    -0.153 OA
ATOM      3  O   UNL     1      -2.020   2.654   6.081  0.00  0.00    -0.153 OA
ENDROOT
BRANCH   1   8
ATOM      4  C   UNL     1      -0.013   1.086   0.008  0.00  0.00    +0.047 C 
ATOM      5  C   UNL     1      -0.718   1.572   1.248  0.00  0.00    -0.011 A 
ATOM      6  C   UNL     1      -2.090   1.791   1.227  0.00  0.00    +0.031 A 
ATOM      7  C   UNL     1      -2.737   2.233   2.374  0.00  0.00    +0.051 A 
ATOM      8  C   UNL     1      -2.014   2.465   3.528  0.00  0.00    +0.108 A 
ATOM      9  C   UNL     1      -0.648   2.252   3.544  0.00  0.00    +0.049 A 
ATOM     10  C   UNL     1      -0.000   1.806   2.405  0.00  0.00    +0.047 A 
ATOM     11 CL   UNL     1       1.715   1.540   2.431  0.00  0.00    -0.083 Cl
BRANCH   6  12
ATOM     12  N   UNL     1      -2.817   1.561   0.057  0.00  0.00    -0.358 N 
ATOM     13  H   UNL     1      -3.904   1.734   0.042  0.00  0.00    +0.142 HD
ATOM     14  H   UNL     1      -2.304   1.206  -0.849  0.00  0.00    +0.142 HD
ENDBRANCH   6  12
ENDBRANCH   1   8
BRANCH   1  15
ATOM     15  N   UNL     1      -2.822   4.689   4.932  0.00  0.00    -0.187 NA
ATOM     16  H   UNL     1      -2.133   5.241   5.587  0.00  0.00    +0.148 HD
BRANCH  15  17
ATOM     17  C   UNL     1      -3.558   5.397   3.881  0.00  0.00    +0.079 C 
ATOM     18  C   UNL     1      -2.610   5.721   2.725  0.00  0.00    +0.020 C 
ATOM     19  C   UNL     1      -1.470   6.605   3.233  0.00  0.00    +0.002 C 
ATOM     20  C   UNL     1      -2.046   7.904   3.800  0.00  0.00    +0.000 C 
ATOM     21  C   UNL     1      -2.994   7.580   4.956  0.00  0.00    +0.005 C 
ATOM     22  C   UNL     1      -4.134   6.696   4.448  0.00  0.00    +0.005 C 
ATOM     23  C   UNL     1      -5.082   6.372   5.604  0.00  0.00    +0.009 C 
ENDBRANCH  15  17
ENDBRANCH   1  15
TORSDOF 4
