REMARK  Name = ZINC09421864
REMARK  4 active torsions:
REMARK  status: ('A' for Active; 'I' for Inactive)
REMARK    1  A    between atoms: C_1  and  C_2
REMARK    2  A    between atoms: C_6  and  N_22
REMARK    3  A    between atoms: C_7  and  C_11
REMARK    4  A    between atoms: N_13  and  C_14
REMARK                            x       y       z     vdW  Elec       q    Type
REMARK                         _______ _______ _______ _____ _____    ______ ____
ROOT
ATOM      1  C   UNL     1      -7.527   6.172   7.881  0.00  0.00    +0.066 C 
ATOM      2  C   UNL     1      -6.767   5.043   7.235  0.00  0.00    +0.043 A 
ATOM      3  C   UNL     1      -6.576   3.853   7.936  0.00  0.00    -0.022 A 
ATOM      4  C   UNL     1      -5.890   2.822   7.353  0.00  0.00    -0.031 A 
ATOM      5  C   UNL     1      -5.379   2.987   6.038  0.00  0.00    +0.032 A 
ATOM      6  C   UNL     1      -4.632   2.032   5.232  0.00  0.00    +0.054 A 
ATOM      7  C   UNL     1      -4.229   2.416   3.972  0.00  0.00    +0.097 A 
ATOM      8  S   UNL     1      -4.856   4.077   3.826  0.00  0.00    -0.062 S 
ATOM      9  C   UNL     1      -5.625   4.231   5.419  0.00  0.00    +0.111 A 
ATOM     10  N   UNL     1      -6.293   5.194   6.017  0.00  0.00    -0.244 NA
ATOM     11  C   UNL     1      -5.649   1.505   8.037  0.00  0.00    +0.036 C 
ATOM     12  C   UNL     1      -5.873   1.635   9.543  0.00  0.00    +0.005 C 
ATOM     13  C   UNL     1      -7.235   2.300   9.773  0.00  0.00    +0.005 C 
ATOM     14  C   UNL     1      -7.141   3.759   9.330  0.00  0.00    +0.037 C 
ENDROOT
BRANCH   7  15
ATOM     15  C   UNL     1      -3.495   1.666   3.019  0.00  0.00    +0.253 C 
ATOM     16  O   UNL     1      -3.138   0.532   3.280  0.00  0.00    -0.270 OA
ATOM     17  N   UNL     1      -3.193   2.209   1.823  0.00  0.00    -0.306 N 
ATOM     18  H   UNL     1      -3.477   3.113   1.615  0.00  0.00    +0.149 HD
BRANCH  17  19
ATOM     19  C   UNL     1      -2.435   1.435   0.837  0.00  0.00    +0.096 C 
ATOM     20  C   UNL     1      -0.930   1.572   1.127  0.00  0.00    +0.046 C 
ATOM     21  C   UNL     1      -0.149   1.013  -0.096  0.00  0.00    +0.168 C 
ATOM     22  S   UNL     1      -1.170   1.675  -1.480  0.00  0.00    -0.029 S 
ATOM     23  O   UNL     1      -0.636   2.926  -1.890  0.00  0.00    -0.174 OA
ATOM     24  O   UNL     1      -1.364   0.648  -2.443  0.00  0.00    -0.174 OA
ATOM     25  C   UNL     1      -2.749   1.963  -0.584  0.00  0.00    +0.188 C 
ENDBRANCH  17  19
ENDBRANCH   7  15
BRANCH   6  26
ATOM     26  N   UNL     1      -4.331   0.769   5.723  0.00  0.00    -0.356 N 
ATOM     27  H   UNL     1      -3.551   0.295   5.394  0.00  0.00    +0.142 HD
ATOM     28  H   UNL     1      -4.900   0.361   6.393  0.00  0.00    +0.142 HD
ENDBRANCH   6  26
TORSDOF 3
