REMARK  Name = ZINC59851460
REMARK  9 active torsions:
REMARK  status: ('A' for Active; 'I' for Inactive)
REMARK    1  A    between atoms: C_1  and  C_2
REMARK    2  A    between atoms: C_4  and  C_28
REMARK    3  A    between atoms: C_5  and  C_27
REMARK    4  A    between atoms: C_6  and  S_9
REMARK    5  A    between atoms: C_7  and  C_8
REMARK    6  A    between atoms: S_9  and  N_12
REMARK    7  A    between atoms: N_12  and  C_13
REMARK    8  A    between atoms: C_17  and  C_19
REMARK    9  A    between atoms: C_19  and  C_26
REMARK                            x       y       z     vdW  Elec       q    Type
REMARK                         _______ _______ _______ _____ _____    ______ ____
ROOT
ATOM      1  C   UNL     1       2.290  -2.778   3.471  0.00  0.00    +0.048 A 
ATOM      2  C   UNL     1       2.518  -1.783   2.529  0.00  0.00    +0.024 A 
ATOM      3  C   UNL     1       3.654  -1.003   2.612  0.00  0.00    +0.002 A 
ATOM      4  C   UNL     1       4.564  -1.210   3.632  0.00  0.00    +0.006 A 
ATOM      5  C   UNL     1       4.340  -2.200   4.572  0.00  0.00    -0.014 A 
ATOM      6  C   UNL     1       3.203  -2.980   4.498  0.00  0.00    +0.030 A 
ENDROOT
BRANCH   5   7
ATOM      7  C   UNL     1       5.336  -2.423   5.681  0.00  0.00    +0.135 C 
ATOM      8  C   UNL     1       5.995  -3.781   5.542  0.00  0.00    +0.248 C 
ATOM      9  O   UNL     1       5.452  -4.864   5.572  0.00  0.00    -0.273 OA
ATOM     10  N   UNL     1       7.309  -3.532   5.375  0.00  0.00    -0.238 N 
ATOM     11  C   UNL     1       7.569  -2.220   5.390  0.00  0.00    +0.307 C 
ATOM     12  O   UNL     1       8.682  -1.750   5.259  0.00  0.00    -0.252 OA
ATOM     13  N   UNL     1       6.460  -1.478   5.567  0.00  0.00    -0.282 N 
ATOM     14  C   UNL     1       4.657  -2.288   7.046  0.00  0.00    +0.047 C 
ATOM     15  H   UNL     1       7.983  -4.220   5.259  0.00  0.00    +0.159 HD
ATOM     16  H   UNL     1       6.411  -0.511   5.610  0.00  0.00    +0.152 HD
ENDBRANCH   5   7
BRANCH   1  17
ATOM     17  N   UNL     1       1.142  -3.569   3.390  0.00  0.00    -0.216 N 
ATOM     18  H   UNL     1       1.207  -4.531   3.498  0.00  0.00    +0.174 HD
BRANCH  17  19
ATOM     19  S   UNL     1      -0.331  -2.865   3.110  0.00  0.00    +0.073 S 
ATOM     20  O   UNL     1      -0.396  -1.715   3.942  0.00  0.00    -0.150 OA
ATOM     21  O   UNL     1      -1.297  -3.905   3.172  0.00  0.00    -0.150 OA
BRANCH  19  27
ATOM     22  C   UNL     1      -0.663  -3.689  -2.041  0.00  0.00    +0.044 C 
ATOM     23  C   UNL     1      -0.481  -2.718  -0.902  0.00  0.00    -0.045 A 
ATOM     24  C   UNL     1      -0.308  -1.372  -1.163  0.00  0.00    +0.007 A 
ATOM     25  C   UNL     1      -0.141  -0.481  -0.119  0.00  0.00    -0.045 A 
ATOM     26  C   UNL     1      -0.148  -0.937   1.186  0.00  0.00    -0.021 A 
ATOM     27  C   UNL     1      -0.323  -2.284   1.447  0.00  0.00    +0.115 A 
ATOM     28  C   UNL     1      -0.493  -3.174   0.403  0.00  0.00    -0.021 A 
ATOM     29  C   UNL     1      -0.688  -4.641   0.687  0.00  0.00    +0.046 C 
ATOM     30  C   UNL     1       0.034   0.033   2.324  0.00  0.00    +0.046 C 
ATOM     31  C   UNL     1       0.048   0.986  -0.404  0.00  0.00    +0.044 C 
ENDBRANCH  19  27
ENDBRANCH  17  19
ENDBRANCH   1  17
TORSDOF 4
