REMARK  Name = ZINC62175565
REMARK  8 active torsions:
REMARK  status: ('A' for Active; 'I' for Inactive)
REMARK    1  A    between atoms: C_8  and  O_21
REMARK    2  A    between atoms: C_10  and  N_14
REMARK    3  A    between atoms: N_14  and  C_15
REMARK    4  A    between atoms: N_14  and  C_18
REMARK    5  A    between atoms: C_15  and  C_16
REMARK    6  A    between atoms: C_16  and  O_17
REMARK    7  A    between atoms: C_18  and  C_19
REMARK    8  A    between atoms: C_19  and  O_20
REMARK                            x       y       z     vdW  Elec       q    Type
REMARK                         _______ _______ _______ _____ _____    ______ ____
ROOT
ATOM      1  C   UNL     1       0.095   1.171   0.386  0.00  0.00    +0.023 A 
ATOM      2  C   UNL     1       1.274   1.887   0.366  0.00  0.00    +0.047 A 
ATOM      3  C   UNL     1       2.492   1.227   0.243  0.00  0.00    +0.126 A 
ATOM      4  C   UNL     1       2.518  -0.153   0.144  0.00  0.00    +0.022 A 
ATOM      5  C   UNL     1       1.332  -0.868   0.162  0.00  0.00    +0.029 A 
ATOM      6  C   UNL     1       0.123  -0.209   0.283  0.00  0.00    +0.042 A 
ATOM      7 CL   UNL     1      -1.360  -1.112   0.306  0.00  0.00    -0.084 Cl
ATOM      8  C   UNL     1       3.818  -0.908   0.021  0.00  0.00    +0.138 C 
ATOM      9  C   UNL     1       4.930   0.049  -0.415  0.00  0.00    +0.003 C 
ATOM     10  C   UNL     1       4.868   1.298   0.473  0.00  0.00    +0.217 C 
ATOM     11  O   UNL     1       3.631   1.968   0.222  0.00  0.00    -0.493 OA
ENDROOT
BRANCH   9  12
ATOM     12  N   UNL     1       6.236  -0.606  -0.259  0.00  0.00    +0.389 N 
ATOM     13  H   UNL     1       6.334  -0.938   0.689  0.00  0.00    -0.081 HD
BRANCH  12  14
ATOM     14  C   UNL     1       6.329  -1.741  -1.187  0.00  0.00    -0.050 C 
BRANCH  14  15
ATOM     15  C   UNL     1       7.661  -2.464  -0.977  0.00  0.00    +0.137 C 
BRANCH  15  16
ATOM     16  O   UNL     1       7.688  -3.041   0.330  0.00  0.00    -0.397 OA
ATOM     17  H   UNL     1       8.505  -3.517   0.533  0.00  0.00    +0.209 HD
ENDBRANCH  15  16
ENDBRANCH  14  15
ENDBRANCH  12  14
BRANCH  12  18
ATOM     18  C   UNL     1       7.305   0.357  -0.554  0.00  0.00    -0.050 C 
BRANCH  18  19
ATOM     19  C   UNL     1       7.235   0.762  -2.028  0.00  0.00    +0.137 C 
BRANCH  19  20
ATOM     20  O   UNL     1       6.041   1.513  -2.259  0.00  0.00    -0.397 OA
ATOM     21  H   UNL     1       5.931   1.803  -3.175  0.00  0.00    +0.209 HD
ENDBRANCH  19  20
ENDBRANCH  18  19
ENDBRANCH  12  18
ENDBRANCH   9  12
BRANCH   8  22
ATOM     22  O   UNL     1       4.155  -1.483   1.284  0.00  0.00    -0.389 OA
ATOM     23  H   UNL     1       3.495  -2.104   1.623  0.00  0.00    +0.210 HD
ENDBRANCH   8  22
TORSDOF 8
