REMARK  Name = ZINC36655942
REMARK  12 active torsions:
REMARK  status: ('A' for Active; 'I' for Inactive)
REMARK    1  A    between atoms: C_1  and  C_2
REMARK    2  A    between atoms: C_2  and  C_3
REMARK    3  A    between atoms: C_2  and  C_4
REMARK    4  A    between atoms: C_4  and  C_6
REMARK    5  A    between atoms: C_4  and  N_20
REMARK    6  A    between atoms: N_8  and  C_9
REMARK    7  A    between atoms: C_9  and  C_10
REMARK    8  A    between atoms: C_10  and  C_12
REMARK    9  A    between atoms: C_10  and  N_17
REMARK   10  A    between atoms: N_17  and  C_18
REMARK   11  A    between atoms: N_17  and  C_19
REMARK   12  A    between atoms: C_21  and  C_23
REMARK                            x       y       z     vdW  Elec       q    Type
REMARK                         _______ _______ _______ _____ _____    ______ ____
ROOT
ATOM      1  C   UNL     1       1.239  -0.584  -1.407  0.00  0.00    +0.161 C 
ENDROOT
BRANCH   1   2
ATOM      2  C   UNL     1       0.462  -0.086  -2.599  0.00  0.00    +0.234 C 
ATOM      3  O   UNL     1      -0.142  -0.870  -3.299  0.00  0.00    -0.274 OA
ATOM      4  N   UNL     1       0.439   1.230  -2.886  0.00  0.00    -0.315 N 
ATOM      5  H   UNL     1       0.865   1.865  -2.289  0.00  0.00    +0.149 HD
BRANCH   4   6
ATOM      6  C   UNL     1      -0.230   1.703  -4.101  0.00  0.00    +0.096 C 
BRANCH   6   7
ATOM      7  C   UNL     1      -0.023   3.213  -4.242  0.00  0.00    +0.016 C 
BRANCH   7   8
ATOM      8  C   UNL     1       1.441   3.501  -4.454  0.00  0.00    +0.093 A 
ATOM      9  C   UNL     1       2.029   3.762  -5.635  0.00  0.00    +0.043 A 
ATOM     10  C   UNL     1       3.402   3.972  -5.372  0.00  0.00    +0.041 A 
ATOM     11  C   UNL     1       3.571   3.827  -4.046  0.00  0.00    +0.195 A 
ATOM     12  O   UNL     1       2.379   3.548  -3.494  0.00  0.00    -0.469 OA
ENDBRANCH   7   8
BRANCH   7  13
ATOM     13  N   UNL     1      -0.483   3.887  -3.021  0.00  0.00    +0.384 N 
ATOM     14  C   UNL     1      -0.315   5.338  -3.169  0.00  0.00    -0.096 C 
ATOM     15  C   UNL     1      -1.902   3.578  -2.796  0.00  0.00    -0.096 C 
ATOM     16  H   UNL     1       0.060   3.564  -2.233  0.00  0.00    -0.082 HD
ENDBRANCH   7  13
ENDBRANCH   6   7
ENDBRANCH   4   6
ENDBRANCH   1   2
BRANCH   1  17
ATOM     17  N   UNL     1       1.517  -2.013  -1.568  0.00  0.00    -0.303 N 
ATOM     18  C   UNL     1       2.575  -2.568  -0.944  0.00  0.00    +0.220 C 
ATOM     19  O   UNL     1       3.297  -1.884  -0.249  0.00  0.00    -0.275 OA
ATOM     20  H   UNL     1       0.940  -2.560  -2.123  0.00  0.00    +0.149 HD
BRANCH  18  21
ATOM     21  C   UNL     1       2.861  -4.038  -1.109  0.00  0.00    +0.048 C 
ATOM     22  C   UNL     1       3.100  -4.348  -2.588  0.00  0.00    +0.019 C 
ATOM     23  C   UNL     1       3.391  -5.841  -2.756  0.00  0.00    -0.009 C 
ATOM     24  C   UNL     1       4.637  -6.212  -1.949  0.00  0.00    +0.007 C 
ATOM     25  C   UNL     1       4.398  -5.902  -0.470  0.00  0.00    -0.009 C 
ATOM     26  C   UNL     1       4.107  -4.409  -0.302  0.00  0.00    +0.019 C 
ATOM     27  C   UNL     1       3.203  -6.714   0.035  0.00  0.00    +0.007 C 
ATOM     28  C   UNL     1       1.957  -6.343  -0.772  0.00  0.00    -0.009 C 
ATOM     29  C   UNL     1       2.196  -6.653  -2.251  0.00  0.00    +0.007 C 
ATOM     30  C   UNL     1       1.667  -4.850  -0.604  0.00  0.00    +0.019 C 
ENDBRANCH  18  21
ENDBRANCH   1  17
BRANCH   1  32
ATOM     31  C   UNL     1      -0.864  -1.197  -0.204  0.00  0.00    +0.009 C 
ATOM     32  C   UNL     1       0.418  -0.364  -0.135  0.00  0.00    +0.012 C 
ATOM     33  C   UNL     1       1.239  -0.792   1.083  0.00  0.00    +0.009 C 
ENDBRANCH   1  32
TORSDOF 8
