REMARK  Name = ZINC00867049
REMARK  4 active torsions:
REMARK  status: ('A' for Active; 'I' for Inactive)
REMARK    1  A    between atoms: C_1  and  C_2
REMARK    2  A    between atoms: C_5  and  C_8
REMARK    3  A    between atoms: C_11  and  C_23
REMARK    4  A    between atoms: C_16  and  C_18
REMARK                            x       y       z     vdW  Elec       q    Type
REMARK                         _______ _______ _______ _____ _____    ______ ____
ROOT
ATOM      1  C   UNL     1       0.059  -4.275  -0.021  0.00  0.00    +0.104 C 
ATOM      2  C   UNL     1      -1.352  -4.810   0.243  0.00  0.00    +0.063 C 
ATOM      3  C   UNL     1      -1.881  -4.253   1.570  0.00  0.00    +0.215 C 
ATOM      4  N   UNL     1      -0.871  -4.465   2.610  0.00  0.00    -0.237 N 
ATOM      5  C   UNL     1       0.449  -4.706   2.348  0.00  0.00    +0.137 A 
ATOM      6  C   UNL     1       1.090  -4.856   3.524  0.00  0.00    +0.112 A 
ATOM      7  C   UNL     1       0.135  -4.701   4.554  0.00  0.00    +0.167 A 
ATOM      8  N   UNL     1      -1.040  -4.466   3.994  0.00  0.00    -0.163 NA
ATOM      9 CL   UNL     1       2.783  -5.181   3.734  0.00  0.00    -0.078 Cl
ATOM     10  N   UNL     1       0.959  -4.765   1.042  0.00  0.00    -0.321 N 
ATOM     11  H   UNL     1       1.845  -5.109   0.848  0.00  0.00    +0.148 HD
ENDROOT
BRANCH   1  16
ATOM     12  C   UNL     1      -0.018   1.503   0.010  0.00  0.00    +0.044 C 
ATOM     13  C   UNL     1       0.002  -0.004   0.002  0.00  0.00    -0.050 A 
ATOM     14  C   UNL     1       0.006  -0.689  -1.199  0.00  0.00    +0.004 A 
ATOM     15  C   UNL     1       0.025  -2.071  -1.206  0.00  0.00    +0.006 A 
ATOM     16  C   UNL     1       0.040  -2.768  -0.013  0.00  0.00    -0.027 A 
ATOM     17  C   UNL     1       0.037  -2.084   1.188  0.00  0.00    +0.006 A 
ATOM     18  C   UNL     1       0.023  -0.702   1.195  0.00  0.00    +0.004 A 
ENDBRANCH   1  16
BRANCH   7  19
ATOM     19  C   UNL     1       0.402  -4.787   6.004  0.00  0.00    +0.263 C 
ATOM     20  O   UNL     1       1.529  -5.010   6.402  0.00  0.00    -0.269 OA
ATOM     21  N   UNL     1      -0.603  -4.619   6.886  0.00  0.00    -0.324 N 
ATOM     22  H   UNL     1      -1.502  -4.441   6.568  0.00  0.00    +0.145 HD
ATOM     23  H   UNL     1      -0.427  -4.676   7.838  0.00  0.00    +0.145 HD
ENDBRANCH   7  19
BRANCH   3  24
ATOM     24  C   UNL     1      -3.173  -4.978   1.952  0.00  0.00    +0.412 C 
ATOM     25  F   UNL     1      -2.916  -6.346   2.091  0.00  0.00    -0.168 F 
ATOM     26  F   UNL     1      -3.654  -4.468   3.162  0.00  0.00    -0.168 F 
ATOM     27  F   UNL     1      -4.131  -4.783   0.950  0.00  0.00    -0.168 F 
ENDBRANCH   3  24
TORSDOF 3
