REMARK  Name = ZINC40486652
REMARK  8 active torsions:
REMARK  status: ('A' for Active; 'I' for Inactive)
REMARK    1  A    between atoms: CG1_1  and  CB_2
REMARK    2  A    between atoms: CB_2  and  CG2_3
REMARK    3  A    between atoms: CB_2  and  CA_4
REMARK    4  A    between atoms: CA_4  and  C_6
REMARK    5  A    between atoms: CA_4  and  N_20
REMARK    6  A    between atoms: N_8  and  C_9
REMARK    7  A    between atoms: C_9  and  C_11
REMARK    8  A    between atoms: C_9  and  C_17
REMARK                            x       y       z     vdW  Elec       q    Type
REMARK                         _______ _______ _______ _____ _____    ______ ____
ROOT
ATOM      1  C   VAL A   1      -1.413  -2.041   0.005  0.00  0.00    +0.199 C 
ATOM      2  O   VAL A   1      -1.597  -2.644  -1.031  0.00  0.00    -0.278 OA
ATOM      3  N   UNK A   2      -1.190  -2.718   1.148  0.00  0.00    -0.303 N 
ATOM      4  H   UNK A   2      -1.043  -2.235   1.977  0.00  0.00    +0.149 HD
ENDROOT
BRANCH   1   5
ATOM      5  CA  VAL A   1      -1.433  -0.534   0.013  0.00  0.00    +0.015 C 
BRANCH   5   6
ATOM      6  N   VAL A   1      -2.144  -0.047  -1.177  0.00  0.00    +0.386 N 
ATOM      7  H1  VAL A   1      -2.158   0.962  -1.172  0.00  0.00    -0.089 HD
ATOM      8  H2  VAL A   1      -1.671  -0.372  -2.007  0.00  0.00    -0.089 HD
ATOM      9  H3  VAL A   1      -3.090  -0.396  -1.170  0.00  0.00    -0.089 HD
ENDBRANCH   5   6
BRANCH   5  11
ATOM     10  CG1 VAL A   1      -0.019   1.526   0.010  0.00  0.00    +0.006 C 
ATOM     11  CB  VAL A   1       0.002  -0.004   0.002  0.00  0.00    -0.023 C 
ATOM     12  CG2 VAL A   1       0.742  -0.511   1.242  0.00  0.00    +0.006 C 
ENDBRANCH   5  11
ENDBRANCH   1   5
BRANCH   3  13
ATOM     13  C   UNK A   2      -1.170  -4.183   1.140  0.00  0.00    +0.189 C 
BRANCH  13  14
ATOM     14  C   UNK A   2      -1.523  -4.705   2.534  0.00  0.00    +0.020 C 
ATOM     15  C   UNK A   2      -0.501  -4.187   3.547  0.00  0.00    +0.006 C 
ATOM     16  C   UNK A   2      -0.854  -4.709   4.941  0.00  0.00    +0.000 C 
ATOM     17  C   UNK A   2      -0.833  -6.239   4.933  0.00  0.00    +0.000 C 
ATOM     18  C   UNK A   2      -1.856  -6.757   3.920  0.00  0.00    +0.000 C 
ATOM     19  C   UNK A   2      -1.503  -6.235   2.526  0.00  0.00    +0.006 C 
ENDBRANCH  13  14
BRANCH  13  20
ATOM     20  C   UNK A   2       0.205  -4.664   0.757  0.00  0.00    +0.376 C 
ATOM     21  O   UNK A   2       1.131  -3.874   0.691  0.00  0.00    -0.244 OA
ATOM     22  O   UNK A   2       0.392  -5.844   0.512  0.00  0.00    -0.244 OA
ENDBRANCH  13  20
ENDBRANCH   3  13
TORSDOF 6
