REMARK  Name = ZINC14140739
REMARK  3 active torsions:
REMARK  status: ('A' for Active; 'I' for Inactive)
REMARK    1  A    between atoms: C_8  and  C_24
REMARK    2  A    between atoms: N_10  and  S_12
REMARK    3  A    between atoms: S_12  and  C_15
REMARK                            x       y       z     vdW  Elec       q    Type
REMARK                         _______ _______ _______ _____ _____    ______ ____
ROOT
ATOM      1  C   UNL     1       1.190   1.335  -0.209  0.00  0.00    +0.000 A 
ATOM      2  C   UNL     1       0.068   0.705   0.296  0.00  0.00    +0.000 A 
ATOM      3  C   UNL     1      -1.059   1.444   0.588  0.00  0.00    +0.005 A 
ATOM      4  C   UNL     1      -1.072   2.818   0.387  0.00  0.00    -0.028 A 
ATOM      5  C   UNL     1       0.047   3.449  -0.109  0.00  0.00    -0.041 A 
ATOM      6  C   UNL     1       1.179   2.700  -0.408  0.00  0.00    +0.004 A 
ATOM      7  C   UNL     1       0.112   4.935  -0.340  0.00  0.00    +0.065 C 
ATOM      8  C   UNL     1      -1.290   5.534  -0.435  0.00  0.00    +0.170 C 
ATOM      9  N   UNL     1      -2.084   5.009   0.689  0.00  0.00    -0.160 NA
ATOM     10  C   UNL     1      -2.340   3.565   0.716  0.00  0.00    +0.145 C 
ENDROOT
BRANCH   8  11
ATOM     11  C   UNL     1      -1.211   7.036  -0.347  0.00  0.00    +0.230 C 
ATOM     12  O   UNL     1      -0.646   7.560   0.589  0.00  0.00    -0.274 OA
ATOM     13  N   UNL     1      -1.768   7.797  -1.310  0.00  0.00    -0.328 N 
ATOM     14  H   UNL     1      -2.219   7.378  -2.059  0.00  0.00    +0.145 HD
ATOM     15  H   UNL     1      -1.717   8.764  -1.254  0.00  0.00    +0.145 HD
ENDBRANCH   8  11
BRANCH   9  16
ATOM     16  S   UNL     1      -2.664   6.010   1.875  0.00  0.00    +0.062 S 
ATOM     17  O   UNL     1      -2.848   7.285   1.276  0.00  0.00    -0.153 OA
ATOM     18  O   UNL     1      -3.721   5.309   2.516  0.00  0.00    -0.153 OA
BRANCH  16  19
ATOM     19  C   UNL     1      -1.384   6.196   3.071  0.00  0.00    +0.106 A 
ATOM     20  C   UNL     1      -0.642   7.362   3.116  0.00  0.00    +0.029 A 
ATOM     21  C   UNL     1       0.360   7.505   4.055  0.00  0.00    +0.006 A 
ATOM     22  C   UNL     1       0.625   6.485   4.953  0.00  0.00    -0.044 A 
ATOM     23  C   UNL     1      -0.116   5.320   4.909  0.00  0.00    -0.042 A 
ATOM     24  C   UNL     1      -1.125   5.179   3.970  0.00  0.00    +0.032 A 
ATOM     25  C   UNL     1       0.362   4.367   5.984  0.00  0.00    +0.036 C 
ATOM     26  C   UNL     1       1.173   5.241   6.965  0.00  0.00    +0.009 C 
ATOM     27  C   UNL     1       1.652   6.396   6.061  0.00  0.00    +0.036 C 
ENDBRANCH  16  19
ENDBRANCH   9  16
TORSDOF 3
