REMARK  Name = ZINC40603636
REMARK  7 active torsions:
REMARK  status: ('A' for Active; 'I' for Inactive)
REMARK    1  A    between atoms: C_1  and  C_2
REMARK    2  A    between atoms: C_2  and  N_3
REMARK    3  A    between atoms: N_3  and  C_4
REMARK    4  A    between atoms: C_4  and  C_5
REMARK    5  A    between atoms: C_5  and  O_6
REMARK    6  A    between atoms: N_9  and  C_10
REMARK    7  A    between atoms: C_15  and  C_16
REMARK                            x       y       z     vdW  Elec       q    Type
REMARK                         _______ _______ _______ _____ _____    ______ ____
ROOT
ATOM      1  N   UNL     1       0.689  -0.465  -1.206  0.00  0.00    -0.283 N 
ATOM      2  C   UNL     1      -0.014  -0.707  -2.330  0.00  0.00    +0.307 C 
ATOM      3  O   UNL     1       0.552  -1.115  -3.325  0.00  0.00    -0.252 OA
ATOM      4  N   UNL     1      -1.345  -0.495  -2.351  0.00  0.00    -0.268 N 
ATOM      5  H   UNL     1      -1.810  -0.248  -1.536  0.00  0.00    +0.156 HD
ENDROOT
BRANCH   4   6
ATOM      6  C   UNL     1      -2.053  -0.631  -3.542  0.00  0.00    +0.050 A 
ATOM      7  C   UNL     1      -1.408  -0.461  -4.760  0.00  0.00    +0.039 A 
ATOM      8  C   UNL     1      -2.112  -0.597  -5.940  0.00  0.00    +0.020 A 
ATOM      9  C   UNL     1      -3.465  -0.902  -5.920  0.00  0.00    +0.016 A 
ATOM     10  C   UNL     1      -4.122  -1.074  -4.722  0.00  0.00    +0.018 A 
ATOM     11  C   UNL     1      -3.421  -0.947  -3.518  0.00  0.00    +0.084 A 
ATOM     12 BR   UNL     1      -1.226  -0.363  -7.594  0.00  0.00    -0.050 Br
BRANCH  11  13
ATOM     13  C   UNL     1      -4.115  -1.136  -2.235  0.00  0.00    +0.388 C 
ATOM     14  O   UNL     1      -5.283  -1.498  -2.219  0.00  0.00    -0.241 OA
ATOM     15  O   UNL     1      -3.523  -0.930  -1.184  0.00  0.00    -0.241 OA
ENDBRANCH  11  13
ENDBRANCH   4   6
BRANCH   1  17
ATOM     16  C   UNL     1      -0.009   1.557  -0.020  0.00  0.00    +0.024 C 
ATOM     17  C   UNL     1       0.006   0.027  -0.007  0.00  0.00    +0.106 C 
ENDBRANCH   1  17
BRANCH   1  18
ATOM     18  C   UNL     1       2.135  -0.695  -1.183  0.00  0.00    +0.137 C 
BRANCH  18  19
ATOM     19  C   UNL     1       2.416  -2.133  -0.744  0.00  0.00    +0.175 C 
BRANCH  19  20
ATOM     20  O   UNL     1       1.905  -3.039  -1.724  0.00  0.00    -0.393 OA
ATOM     21  H   UNL     1       2.048  -3.971  -1.511  0.00  0.00    +0.209 HD
ENDBRANCH  19  20
ENDBRANCH  18  19
ENDBRANCH   1  18
TORSDOF 6
