REMARK  Name = ZINC64157667
REMARK  8 active torsions:
REMARK  status: ('A' for Active; 'I' for Inactive)
REMARK    1  A    between atoms: C_1  and  C_2
REMARK    2  A    between atoms: C_5  and  N_8
REMARK    3  A    between atoms: C_12  and  C_29
REMARK    4  A    between atoms: C_12  and  C_30
REMARK    5  A    between atoms: C_14  and  N_20
REMARK    6  A    between atoms: N_20  and  C_21
REMARK    7  A    between atoms: C_21  and  C_22
REMARK    8  A    between atoms: C_26  and  C_28
REMARK                            x       y       z     vdW  Elec       q    Type
REMARK                         _______ _______ _______ _____ _____    ______ ____
ROOT
ATOM      1  N   UNL     1       0.003  -5.679  -0.158  0.00  0.00    -0.264 N 
ATOM      2  C   UNL     1       0.116  -6.006   1.251  0.00  0.00    +0.094 C 
ATOM      3  C   UNL     1      -0.406  -5.026   2.276  0.00  0.00    +0.030 C 
ATOM      4  C   UNL     1      -0.130  -5.633   3.663  0.00  0.00    -0.035 C 
ATOM      5  C   UNL     1      -0.766  -7.013   3.808  0.00  0.00    -0.009 C 
ATOM      6  C   UNL     1      -0.338  -7.959   2.675  0.00  0.00    -0.065 C 
ATOM      7  C   UNL     1      -0.755  -7.291   1.372  0.00  0.00    +0.012 C 
ATOM      8  C   UNL     1      -0.297  -7.996   0.087  0.00  0.00    +0.106 C 
ATOM      9  N   UNL     1      -0.171  -6.854  -0.863  0.00  0.00    -0.240 NA
ATOM     10  C   UNL     1       1.381  -5.756   3.863  0.00  0.00    +0.011 C 
ATOM     11  C   UNL     1      -0.701  -4.705   4.737  0.00  0.00    +0.011 C 
ATOM     12  H   UNL     1       0.590  -7.005  -1.508  0.00  0.00    +0.144 HD
ENDROOT
BRANCH   1  17
ATOM     13  C   UNL     1       0.213  -0.469  -2.387  0.00  0.00    +0.044 C 
ATOM     14  C   UNL     1       0.157  -1.853  -1.795  0.00  0.00    -0.050 A 
ATOM     15  C   UNL     1      -0.845  -2.727  -2.175  0.00  0.00    +0.005 A 
ATOM     16  C   UNL     1      -0.899  -3.996  -1.635  0.00  0.00    +0.025 A 
ATOM     17  C   UNL     1       0.055  -4.396  -0.708  0.00  0.00    +0.045 A 
ATOM     18  C   UNL     1       1.060  -3.516  -0.327  0.00  0.00    +0.025 A 
ATOM     19  C   UNL     1       1.112  -2.250  -0.876  0.00  0.00    +0.005 A 
ENDBRANCH   1  17
BRANCH   6  20
ATOM     20  N   UNL     1       1.117  -8.157   2.709  0.00  0.00    +0.385 N 
ATOM     21  H   UNL     1       1.402  -8.699   1.907  0.00  0.00    -0.085 HD
ATOM     22  H   UNL     1       1.579  -7.260   2.688  0.00  0.00    -0.085 HD
BRANCH  20  23
ATOM     23  C   UNL     1       1.486  -8.870   3.939  0.00  0.00    -0.024 C 
BRANCH  23  24
ATOM     24  C   UNL     1       2.979  -9.072   3.974  0.00  0.00    +0.045 A 
ATOM     25  N   UNL     1       3.877  -8.229   4.507  0.00  0.00    -0.243 NA
ATOM     26  C   UNL     1       5.074  -8.725   4.358  0.00  0.00    +0.196 A 
ATOM     27  N   UNL     1       4.976  -9.911   3.718  0.00  0.00    -0.348 N 
ATOM     28  C   UNL     1       3.646 -10.133   3.480  0.00  0.00    +0.034 A 
ATOM     29  H   UNL     1       5.709 -10.497   3.476  0.00  0.00    +0.166 HD
ATOM     30  C   UNL     1       3.044 -11.332   2.795  0.00  0.00    +0.065 C 
ENDBRANCH  23  24
ENDBRANCH  20  23
ENDBRANCH   6  20
TORSDOF 4
