REMARK  Name = ZINC01234458
REMARK  4 active torsions:
REMARK  status: ('A' for Active; 'I' for Inactive)
REMARK    1  A    between atoms: C_1  and  C_2
REMARK    2  A    between atoms: C_5  and  S_8
REMARK    3  A    between atoms: S_8  and  N_11
REMARK    4  A    between atoms: N_14  and  C_15
REMARK                            x       y       z     vdW  Elec       q    Type
REMARK                         _______ _______ _______ _____ _____    ______ ____
ROOT
ATOM      1  N   UNL     1       0.305  -2.512  -2.530  0.00  0.00    -0.169 N 
ATOM      2  C   UNL     1       1.359  -2.118  -3.272  0.00  0.00    +0.323 C 
ATOM      3  O   UNL     1       1.496  -0.945  -3.559  0.00  0.00    -0.251 OA
ATOM      4  N   UNL     1       2.262  -3.025  -3.694  0.00  0.00    -0.266 N 
ATOM      5  H   UNL     1       0.196  -3.448  -2.300  0.00  0.00    +0.178 HD
ATOM      6  H   UNL     1       2.194  -3.949  -3.405  0.00  0.00    +0.157 HD
ENDROOT
BRANCH   4   7
ATOM      7  C   UNL     1       3.299  -2.635  -4.551  0.00  0.00    +0.072 A 
ATOM      8  C   UNL     1       3.115  -2.670  -5.927  0.00  0.00    +0.064 A 
ATOM      9  C   UNL     1       4.139  -2.280  -6.770  0.00  0.00    +0.022 A 
ATOM     10  C   UNL     1       5.348  -1.864  -6.245  0.00  0.00    +0.003 A 
ATOM     11  C   UNL     1       5.537  -1.832  -4.875  0.00  0.00    +0.022 A 
ATOM     12  C   UNL     1       4.515  -2.217  -4.026  0.00  0.00    +0.064 A 
ATOM     13 CL   UNL     1       4.753  -2.178  -2.307  0.00  0.00    -0.082 Cl
ATOM     14 CL   UNL     1       1.599  -3.198  -6.588  0.00  0.00    -0.082 Cl
ENDBRANCH   4   7
BRANCH   1  15
ATOM     15  S   UNL     1      -0.805  -1.397  -2.011  0.00  0.00    +0.076 S 
ATOM     16  O   UNL     1      -0.067  -0.328  -1.435  0.00  0.00    -0.150 OA
ATOM     17  O   UNL     1      -1.795  -2.116  -1.288  0.00  0.00    -0.150 OA
BRANCH  15  22
ATOM     18  C   UNL     1      -3.528   0.829  -6.913  0.00  0.00    +0.044 C 
ATOM     19  C   UNL     1      -2.848   0.273  -5.689  0.00  0.00    -0.050 A 
ATOM     20  C   UNL     1      -3.366  -0.842  -5.057  0.00  0.00    +0.005 A 
ATOM     21  C   UNL     1      -2.742  -1.352  -3.934  0.00  0.00    +0.029 A 
ATOM     22  C   UNL     1      -1.600  -0.748  -3.443  0.00  0.00    +0.109 A 
ATOM     23  C   UNL     1      -1.082   0.367  -4.075  0.00  0.00    +0.029 A 
ATOM     24  C   UNL     1      -1.705   0.877  -5.199  0.00  0.00    +0.005 A 
ENDBRANCH  15  22
ENDBRANCH   1  15
TORSDOF 3
