REMARK  Name = ZINC63227162
REMARK  3 active torsions:
REMARK  status: ('A' for Active; 'I' for Inactive)
REMARK    1  A    between atoms: C_4  and  C_7
REMARK    2  A    between atoms: C_7  and  C_8
REMARK    3  A    between atoms: C_16  and  N_24
REMARK                            x       y       z     vdW  Elec       q    Type
REMARK                         _______ _______ _______ _____ _____    ______ ____
ROOT
ATOM      1  C   UNL     1       4.199  -0.960   1.391  0.00  0.00    -0.004 C 
ATOM      2  C   UNL     1       3.210  -1.922   2.053  0.00  0.00    +0.023 C 
ATOM      3  C   UNL     1       3.625  -2.153   3.509  0.00  0.00    +0.106 C 
ATOM      4  N   UNL     1       5.021  -2.610   3.536  0.00  0.00    -0.318 N 
ATOM      5  C   UNL     1       6.041  -1.804   2.851  0.00  0.00    +0.106 C 
ATOM      6  C   UNL     1       5.599  -1.577   1.402  0.00  0.00    +0.023 C 
ATOM      7  C   UNL     1       5.361  -3.748   4.179  0.00  0.00    +0.110 C 
ATOM      8  N   UNL     1       6.586  -4.231   4.107  0.00  0.00    -0.316 N 
ATOM      9  C   UNL     1       7.002  -5.284   4.820  0.00  0.00    +0.212 C 
ATOM     10  N   UNL     1       6.328  -5.732   5.881  0.00  0.00    -0.197 NA
ATOM     11  C   UNL     1       5.124  -5.235   6.091  0.00  0.00    +0.166 C 
ATOM     12  N   UNL     1       4.349  -5.133   7.136  0.00  0.00    -0.218 NA
ATOM     13  C   UNL     1       3.433  -4.172   6.964  0.00  0.00    +0.218 C 
ATOM     14  N   UNL     1       3.396  -3.710   5.742  0.00  0.00    -0.254 NA
ATOM     15  C   UNL     1       4.362  -4.499   5.000  0.00  0.00    +0.235 C 
ATOM     16  H   UNL     1       7.216  -3.801   3.508  0.00  0.00    +0.170 HD
ENDROOT
BRANCH   9  17
ATOM     17  N   UNL     1       8.155  -5.923   4.448  0.00  0.00    -0.234 NA
ATOM     18  H   UNL     1       8.471  -6.688   4.954  0.00  0.00    +0.173 HD
ENDBRANCH   9  17
BRANCH   1  19
ATOM     19  C   UNL     1       3.768  -0.699  -0.054  0.00  0.00    +0.038 C 
BRANCH  19  23
ATOM     20  C   UNL     1       0.013   1.338  -0.077  0.00  0.00    +0.000 A 
ATOM     21  C   UNL     1       1.192   2.061  -0.053  0.00  0.00    +0.000 A 
ATOM     22  C   UNL     1       2.407   1.401  -0.045  0.00  0.00    +0.003 A 
ATOM     23  C   UNL     1       2.443   0.019  -0.061  0.00  0.00    -0.047 A 
ATOM     24  C   UNL     1       1.265  -0.703  -0.084  0.00  0.00    +0.003 A 
ATOM     25  C   UNL     1       0.050  -0.044  -0.093  0.00  0.00    +0.000 A 
ENDBRANCH  19  23
ENDBRANCH   1  19
TORSDOF 3
