REMARK  Name = ZINC04537605
REMARK  9 active torsions:
REMARK  status: ('A' for Active; 'I' for Inactive)
REMARK    1  A    between atoms: C_1  and  C_2
REMARK    2  A    between atoms: C_2  and  C_4
REMARK    3  A    between atoms: C_2  and  S_16
REMARK    4  A    between atoms: N_6  and  C_7
REMARK    5  A    between atoms: C_10  and  C_13
REMARK    6  A    between atoms: C_13  and  C_15
REMARK    7  A    between atoms: S_16  and  C_17
REMARK    8  A    between atoms: C_20  and  C_23
REMARK    9  A    between atoms: N_21  and  N_22
REMARK                            x       y       z     vdW  Elec       q    Type
REMARK                         _______ _______ _______ _____ _____    ______ ____
ROOT
ATOM      1  C   UNL     1       3.471   7.500  -1.116  0.00  0.00    +0.029 C 
ATOM      2  C   UNL     1       2.628   7.912   0.092  0.00  0.00    +0.137 C 
ENDROOT
BRANCH   2   3
ATOM      3  C   UNL     1       2.434   9.406   0.083  0.00  0.00    +0.230 C 
ATOM      4  O   UNL     1       1.397   9.881  -0.328  0.00  0.00    -0.274 OA
ATOM      5  N   UNL     1       3.414  10.216   0.533  0.00  0.00    -0.285 N 
ATOM      6  H   UNL     1       4.212   9.836   0.932  0.00  0.00    +0.155 HD
BRANCH   5   7
ATOM      7  C   UNL     1       3.280  11.598   0.423  0.00  0.00    +0.033 A 
ATOM      8  C   UNL     1       3.817  12.427   1.405  0.00  0.00    +0.024 A 
ATOM      9  C   UNL     1       3.692  13.788   1.298  0.00  0.00    +0.013 A 
ATOM     10  C   UNL     1       3.015  14.344   0.206  0.00  0.00    +0.017 A 
ATOM     11  C   UNL     1       2.472  13.506  -0.776  0.00  0.00    +0.013 A 
ATOM     12  C   UNL     1       2.606  12.146  -0.665  0.00  0.00    +0.024 A 
BRANCH  10  13
ATOM     13  C   UNL     1       2.874  15.801   0.090  0.00  0.00    +0.160 C 
ATOM     14  O   UNL     1       2.287  16.280  -0.857  0.00  0.00    -0.292 OA
ATOM     15  C   UNL     1       3.459  16.701   1.148  0.00  0.00    +0.091 C 
ENDBRANCH  10  13
ENDBRANCH   5   7
ENDBRANCH   2   3
BRANCH   2  16
ATOM     16  S   UNL     1       1.016   7.094   0.011  0.00  0.00    -0.072 S 
BRANCH  16  17
ATOM     17  C   UNL     1       1.516   5.414   0.187  0.00  0.00    +0.209 A 
ATOM     18  N   UNL     1       2.747   4.978   0.332  0.00  0.00    -0.120 NA
ATOM     19  N   UNL     1       2.754   3.698   0.438  0.00  0.00    -0.123 NA
ATOM     20  C   UNL     1       1.526   3.234   0.358  0.00  0.00    +0.217 A 
ATOM     21  N   UNL     1       0.695   4.321   0.198  0.00  0.00    -0.221 N 
BRANCH  20  22
ATOM     22  C   UNL     1       1.117   1.823   0.431  0.00  0.00    +0.173 A 
ATOM     23  C   UNL     1       1.940   0.744   0.302  0.00  0.00    +0.053 A 
ATOM     24  C   UNL     1       1.131  -0.401   0.440  0.00  0.00    +0.042 A 
ATOM     25  C   UNL     1      -0.131   0.028   0.643  0.00  0.00    +0.196 A 
ATOM     26  O   UNL     1      -0.136   1.371   0.637  0.00  0.00    -0.460 OA
ENDBRANCH  20  22
BRANCH  21  27
ATOM     27  N   UNL     1      -0.666   4.309   0.076  0.00  0.00    -0.294 N 
ATOM     28  H   UNL     1      -1.110   4.379   0.980  0.00  0.00    +0.163 HD
ATOM     29  H   UNL     1      -0.980   5.044  -0.539  0.00  0.00    +0.163 HD
ENDBRANCH  21  27
ENDBRANCH  16  17
ENDBRANCH   2  16
TORSDOF 7
