REMARK  Name = ZINC05211167
REMARK  7 active torsions:
REMARK  status: ('A' for Active; 'I' for Inactive)
REMARK    1  A    between atoms: C_1  and  C_2
REMARK    2  A    between atoms: C_5  and  C_8
REMARK    3  A    between atoms: C_12  and  S_14
REMARK    4  A    between atoms: S_14  and  C_15
REMARK    5  A    between atoms: C_15  and  C_17
REMARK    6  A    between atoms: C_15  and  C_23
REMARK    7  A    between atoms: N_28  and  C_29
REMARK                            x       y       z     vdW  Elec       q    Type
REMARK                         _______ _______ _______ _____ _____    ______ ____
ROOT
ATOM      1  C   UNL     1       0.092  -6.965   3.437  0.00  0.00    +0.170 C 
ENDROOT
BRANCH   1   2
ATOM      2  C   UNL     1      -0.018  -8.059   4.468  0.00  0.00    +0.238 C 
ATOM      3  O   UNL     1       0.361  -9.180   4.205  0.00  0.00    -0.274 OA
ATOM      4  N   UNL     1      -0.537  -7.791   5.682  0.00  0.00    -0.239 N 
ATOM      5  C   UNL     1      -0.636  -8.769   6.604  0.00  0.00    +0.306 C 
ATOM      6  O   UNL     1      -0.256  -9.893   6.340  0.00  0.00    -0.252 OA
ATOM      7  N   UNL     1      -1.156  -8.501   7.818  0.00  0.00    -0.302 N 
ATOM      8  C   UNL     1      -1.262  -9.565   8.820  0.00  0.00    +0.129 C 
ATOM      9  H   UNL     1      -0.841  -6.894   5.893  0.00  0.00    +0.159 HD
ATOM     10  H   UNL     1      -1.459  -7.604   8.029  0.00  0.00    +0.150 HD
ENDBRANCH   1   2
BRANCH   1  11
ATOM     11  C   UNL     1       1.370  -6.196   3.655  0.00  0.00    -0.025 A 
ATOM     12  C   UNL     1       2.589  -6.845   3.578  0.00  0.00    +0.005 A 
ATOM     13  C   UNL     1       3.761  -6.140   3.778  0.00  0.00    +0.000 A 
ATOM     14  C   UNL     1       3.715  -4.786   4.054  0.00  0.00    +0.000 A 
ATOM     15  C   UNL     1       2.496  -4.137   4.130  0.00  0.00    +0.000 A 
ATOM     16  C   UNL     1       1.324  -4.841   3.926  0.00  0.00    +0.005 A 
ENDBRANCH   1  11
BRANCH   1  17
ATOM     17  S   UNL     1       0.102  -7.697   1.778  0.00  0.00    -0.069 S 
BRANCH  17  22
ATOM     18  C   UNL     1       0.058  -4.256  -0.021  0.00  0.00    +0.182 A 
ATOM     19  N   UNL     1       0.068  -5.014  -1.094  0.00  0.00    -0.152 NA
ATOM     20  H   UNL     1       0.096  -7.142  -1.209  0.00  0.00    +0.191 HD
ATOM     21  N   UNL     1       0.085  -6.347  -0.653  0.00  0.00    -0.253 N 
ATOM     22  C   UNL     1       0.085  -6.304   0.698  0.00  0.00    +0.186 A 
ATOM     23  N   UNL     1       0.074  -5.042   1.065  0.00  0.00    -0.201 NA
BRANCH  18  28
ATOM     24  C   UNL     1      -0.018   1.503   0.010  0.00  0.00    +0.044 C 
ATOM     25  C   UNL     1       0.002  -0.004   0.002  0.00  0.00    -0.050 A 
ATOM     26  C   UNL     1       0.006  -0.686  -1.201  0.00  0.00    +0.004 A 
ATOM     27  C   UNL     1       0.024  -2.067  -1.215  0.00  0.00    +0.012 A 
ATOM     28  C   UNL     1       0.039  -2.772  -0.013  0.00  0.00    +0.021 A 
ATOM     29  C   UNL     1       0.036  -2.080   1.196  0.00  0.00    +0.012 A 
ATOM     30  C   UNL     1       0.023  -0.700   1.198  0.00  0.00    +0.004 A 
ENDBRANCH  18  28
ENDBRANCH  17  22
ENDBRANCH   1  17
TORSDOF 5
