REMARK  Name = ZINC52094591
REMARK  6 active torsions:
REMARK  status: ('A' for Active; 'I' for Inactive)
REMARK    1  A    between atoms: C_1  and  C_2
REMARK    2  A    between atoms: C_2  and  N_3
REMARK    3  A    between atoms: N_3  and  C_4
REMARK    4  A    between atoms: C_4  and  C_6
REMARK    5  A    between atoms: C_4  and  C_19
REMARK    6  A    between atoms: C_20  and  C_24
REMARK                            x       y       z     vdW  Elec       q    Type
REMARK                         _______ _______ _______ _____ _____    ______ ____
ROOT
ATOM      1  C   UNL     1      -0.376  -1.865  -1.096  0.00  0.00    -0.041 A 
ATOM      2  C   UNL     1      -1.260  -0.883  -1.500  0.00  0.00    +0.031 A 
ATOM      3  C   UNL     1      -2.625  -1.096  -1.389  0.00  0.00    +0.067 A 
ATOM      4  C   UNL     1      -3.102  -2.301  -0.870  0.00  0.00    +0.068 A 
ATOM      5  C   UNL     1      -2.208  -3.281  -0.467  0.00  0.00    +0.043 A 
ATOM      6  C   UNL     1      -0.849  -3.063  -0.587  0.00  0.00    +0.022 A 
ATOM      7 BR   UNL     1       0.371  -4.403  -0.045  0.00  0.00    -0.050 Br
ATOM      8  N   UNL     1      -4.493  -2.223  -0.882  0.00  0.00    -0.306 N 
ATOM      9  H   UNL     1      -5.103  -2.914  -0.580  0.00  0.00    +0.170 HD
ATOM     10  C   UNL     1      -4.846  -1.025  -1.386  0.00  0.00    +0.325 A 
ATOM     11  O   UNL     1      -5.989  -0.636  -1.533  0.00  0.00    -0.247 OA
ATOM     12  N   UNL     1      -3.742  -0.322  -1.701  0.00  0.00    -0.306 N 
ATOM     13  H   UNL     1      -3.726   0.570  -2.080  0.00  0.00    +0.170 HD
ENDROOT
BRANCH   1  14
ATOM     14  C   UNL     1       1.108  -1.634  -1.217  0.00  0.00    -0.002 C 
BRANCH  14  15
ATOM     15  C   UNL     1       1.623  -2.312  -2.461  0.00  0.00    -0.017 A 
ATOM     16  C   UNL     1       1.499  -1.928  -3.755  0.00  0.00    -0.042 A 
ATOM     17  C   UNL     1       2.059  -2.714  -4.744  0.00  0.00    +0.011 A 
ATOM     18  C   UNL     1       2.715  -3.846  -4.391  0.00  0.00    +0.045 A 
ATOM     19  S   UNL     1       2.559  -3.824  -2.612  0.00  0.00    -0.103 S 
ATOM     20  C   UNL     1       0.762  -0.662  -4.110  0.00  0.00    +0.044 C 
ENDBRANCH  14  15
BRANCH  14  21
ATOM     21  N   UNL     1       1.374  -0.192  -1.299  0.00  0.00    +0.386 N 
ATOM     22  H   UNL     1       0.842   0.205  -2.058  0.00  0.00    -0.085 HD
ATOM     23  H   UNL     1       2.358  -0.040  -1.462  0.00  0.00    -0.085 HD
BRANCH  21  25
ATOM     24  C   UNL     1       1.259   1.953  -0.123  0.00  0.00    -0.017 C 
ATOM     25  C   UNL     1       0.982   0.451  -0.037  0.00  0.00    -0.085 C 
ENDBRANCH  21  25
ENDBRANCH  14  21
ENDBRANCH   1  14
TORSDOF 4
