REMARK  Name = ZINC19724147
REMARK  3 active torsions:
REMARK  status: ('A' for Active; 'I' for Inactive)
REMARK    1  A    between atoms: C_3  and  N_9
REMARK    2  A    between atoms: C_11  and  C_17
REMARK    3  A    between atoms: C_17  and  N_18
REMARK                            x       y       z     vdW  Elec       q    Type
REMARK                         _______ _______ _______ _____ _____    ______ ____
ROOT
ATOM      1  N   UNL     1      -1.298   2.924   0.994  0.00  0.00    -0.226 N 
ATOM      2  C   UNL     1      -0.743   1.587   1.258  0.00  0.00    +0.106 C 
ATOM      3  C   UNL     1      -0.013   1.086   0.008  0.00  0.00    -0.096 C 
ATOM      4  N   UNL     1      -0.740   1.581  -1.178  0.00  0.00    +0.481 NA
ATOM      5  S   UNL     1      -1.383   3.039  -0.671  0.00  0.00    -0.011 S 
ATOM      6  O   UNL     1      -0.478   4.060  -1.070  0.00  0.00    -0.177 OA
ATOM      7  O   UNL     1      -2.758   3.039  -1.028  0.00  0.00    -0.177 OA
ENDROOT
BRANCH   1  10
ATOM      8  C   UNL     1      -1.102   5.714   3.380  0.00  0.00    +0.022 A 
ATOM      9  C   UNL     1      -0.727   4.760   2.453  0.00  0.00    +0.027 A 
ATOM     10  C   UNL     1      -1.675   3.889   1.932  0.00  0.00    +0.067 A 
ATOM     11  C   UNL     1      -3.000   3.983   2.342  0.00  0.00    +0.065 A 
ATOM     12  C   UNL     1      -3.368   4.934   3.274  0.00  0.00    +0.042 A 
ATOM     13  C   UNL     1      -2.421   5.801   3.790  0.00  0.00    +0.042 A 
ATOM     14 CL   UNL     1      -2.887   7.001   4.955  0.00  0.00    -0.083 Cl
ATOM     15 CL   UNL     1      -4.190   2.900   1.690  0.00  0.00    -0.082 Cl
ENDBRANCH   1  10
BRANCH   3  16
ATOM     16  C   UNL     1       1.420   1.622  -0.003  0.00  0.00    -0.106 C 
BRANCH  16  17
ATOM     17  N   UNL     1       2.077   1.238  -1.259  0.00  0.00    +0.377 N 
ATOM     18  H   UNL     1       3.108   1.623  -1.267  0.00  0.00    -0.090 HD
ATOM     19  H   UNL     1       1.521   1.661  -2.108  0.00  0.00    -0.090 HD
ATOM     20  H   UNL     1       2.096   0.141  -1.343  0.00  0.00    -0.090 HD
ENDBRANCH  16  17
ENDBRANCH   3  16
TORSDOF 3
