REMARK  Name = ZINC40781274
REMARK  6 active torsions:
REMARK  status: ('A' for Active; 'I' for Inactive)
REMARK    1  A    between atoms: C_1  and  O_2
REMARK    2  A    between atoms: O_2  and  C_3
REMARK    3  A    between atoms: C_8  and  N_9
REMARK    4  A    between atoms: C_11  and  N_24
REMARK    5  A    between atoms: C_12  and  N_16
REMARK    6  A    between atoms: N_16  and  C_17
REMARK                            x       y       z     vdW  Elec       q    Type
REMARK                         _______ _______ _______ _____ _____    ______ ____
ROOT
ATOM      1  N   UNL     1       0.150  -2.781  -0.077  0.00  0.00    -0.295 N 
ATOM      2  C   UNL     1       0.094  -4.163  -0.214  0.00  0.00    +0.149 A 
ATOM      3  C   UNL     1      -0.571  -4.944   0.734  0.00  0.00    +0.106 A 
ATOM      4  C   UNL     1      -0.597  -6.327   0.548  0.00  0.00    +0.149 A 
ATOM      5  N   UNL     1       0.009  -6.845  -0.519  0.00  0.00    -0.219 NA
ATOM      6  C   UNL     1       0.625  -6.073  -1.390  0.00  0.00    +0.225 A 
ATOM      7  N   UNL     1       0.669  -4.763  -1.254  0.00  0.00    -0.219 NA
ATOM      8  H   UNL     1      -0.215  -2.357   0.716  0.00  0.00    +0.154 HD
ENDROOT
BRANCH   1  14
ATOM      9  C   UNL     1       0.220  -0.738  -1.372  0.00  0.00    +0.141 A 
ATOM     10  C   UNL     1       0.804   0.032  -2.364  0.00  0.00    +0.047 A 
ATOM     11  C   UNL     1       1.890  -0.455  -3.068  0.00  0.00    +0.004 A 
ATOM     12  C   UNL     1       2.397  -1.710  -2.785  0.00  0.00    +0.002 A 
ATOM     13  C   UNL     1       1.819  -2.484  -1.796  0.00  0.00    +0.027 A 
ATOM     14  C   UNL     1       0.733  -2.001  -1.082  0.00  0.00    +0.075 A 
BRANCH   9  16
ATOM     15  C   UNL     1      -1.320   1.042  -1.031  0.00  0.00    +0.277 C 
ATOM     16  O   UNL     1      -0.848  -0.260  -0.679  0.00  0.00    -0.493 OA
ENDBRANCH   9  16
ENDBRANCH   1  14
BRANCH   3  17
ATOM     17  N   UNL     1      -1.195  -4.354   1.844  0.00  0.00    -0.353 N 
ATOM     18  H   UNL     1      -1.169  -3.391   1.961  0.00  0.00    +0.143 HD
ATOM     19  H   UNL     1      -1.653  -4.908   2.495  0.00  0.00    +0.143 HD
ENDBRANCH   3  17
BRANCH   4  20
ATOM     20  N   UNL     1      -1.244  -7.150   1.462  0.00  0.00    -0.297 N 
ATOM     21  H   UNL     1      -1.758  -6.761   2.187  0.00  0.00    +0.154 HD
BRANCH  20  22
ATOM     22  C   UNL     1      -1.156  -8.540   1.336  0.00  0.00    +0.051 A 
ATOM     23  C   UNL     1      -0.076  -9.112   0.676  0.00  0.00    +0.025 A 
ATOM     24  C   UNL     1       0.009 -10.485   0.554  0.00  0.00    +0.002 A 
ATOM     25  C   UNL     1      -0.979 -11.291   1.088  0.00  0.00    +0.002 A 
ATOM     26  C   UNL     1      -2.057 -10.726   1.746  0.00  0.00    +0.022 A 
ATOM     27  C   UNL     1      -2.145  -9.353   1.877  0.00  0.00    +0.062 A 
ATOM     28 CL   UNL     1      -3.494  -8.644   2.709  0.00  0.00    -0.082 Cl
ENDBRANCH  20  22
ENDBRANCH   4  20
TORSDOF 5
