REMARK  Name = ZINC27792205
REMARK  3 active torsions:
REMARK  status: ('A' for Active; 'I' for Inactive)
REMARK    1  A    between atoms: C_6  and  N_7
REMARK    2  A    between atoms: C_11  and  C_14
REMARK    3  A    between atoms: C_14  and  C_15
REMARK                            x       y       z     vdW  Elec       q    Type
REMARK                         _______ _______ _______ _____ _____    ______ ____
ROOT
ATOM      1  N   UNL     1       1.256  -2.060  -0.021  0.00  0.00    -0.226 NA
ATOM      2  C   UNL     1       1.138  -0.748  -0.013  0.00  0.00    +0.161 C 
ATOM      3  N   UNL     1       0.002  -0.004   0.002  0.00  0.00    -0.264 N 
ATOM      4  C   UNL     1      -0.015   1.274   0.009  0.00  0.00    +0.232 C 
ATOM      5  C   UNL     1       1.343   1.962  -0.000  0.00  0.00    +0.149 C 
ATOM      6  S   UNL     1       2.436   0.483  -0.019  0.00  0.00    -0.077 S 
ATOM      7  O   UNL     1      -1.166   1.970   0.018  0.00  0.00    -0.274 OA
ATOM      8  H   UNL     1      -0.980  -0.500   0.009  0.00  0.00    +0.157 HD
ENDROOT
BRANCH   1  14
ATOM      9  C   UNL     1      -0.917  -2.560   0.856  0.00  0.00    +0.029 A 
ATOM     10  C   UNL     1      -2.044  -3.356   0.854  0.00  0.00    +0.022 A 
ATOM     11  C   UNL     1      -2.127  -4.442  -0.000  0.00  0.00    +0.041 A 
ATOM     12  C   UNL     1      -1.083  -4.735  -0.861  0.00  0.00    +0.022 A 
ATOM     13  C   UNL     1       0.048  -3.945  -0.873  0.00  0.00    +0.029 A 
ATOM     14  C   UNL     1       0.138  -2.847  -0.014  0.00  0.00    +0.067 A 
ATOM     15 CL   UNL     1      -3.546  -5.442   0.008  0.00  0.00    -0.084 Cl
ENDBRANCH   1  14
BRANCH   5  16
ATOM     16  C   UNL     1       1.531   2.809  -1.260  0.00  0.00    +0.119 C 
BRANCH  16  17
ATOM     17  C   UNL     1       2.831   3.565  -1.169  0.00  0.00    +0.212 C 
ATOM     18  O   UNL     1       3.539   3.438  -0.192  0.00  0.00    -0.276 OA
ATOM     19  N   UNL     1       3.208   4.382  -2.172  0.00  0.00    -0.329 N 
ATOM     20  H   UNL     1       4.158   4.933  -2.105  0.00  0.00    +0.145 HD
ATOM     21  H   UNL     1       2.567   4.497  -3.058  0.00  0.00    +0.145 HD
ENDBRANCH  16  17
ENDBRANCH   5  16
TORSDOF 3
