REMARK  Name = ZINC43565007
REMARK  5 active torsions:
REMARK  status: ('A' for Active; 'I' for Inactive)
REMARK    1  A    between atoms: C_1  and  O_2
REMARK    2  A    between atoms: O_2  and  C_3
REMARK    3  A    between atoms: C_8  and  C_9
REMARK    4  A    between atoms: C_9  and  C_11
REMARK    5  A    between atoms: C_9  and  N_23
REMARK                            x       y       z     vdW  Elec       q    Type
REMARK                         _______ _______ _______ _____ _____    ______ ____
ROOT
ATOM      1  C   UNL     1       0.051  -2.828   0.005  0.00  0.00    -0.010 C 
ENDROOT
BRANCH   1   2
ATOM      2  C   UNL     1      -1.435  -2.917   0.237  0.00  0.00    -0.055 A 
ATOM      3  C   UNL     1      -1.935  -3.814   1.165  0.00  0.00    +0.004 A 
ATOM      4  C   UNL     1      -3.296  -3.903   1.385  0.00  0.00    +0.028 A 
ATOM      5  C   UNL     1      -4.164  -3.090   0.673  0.00  0.00    +0.067 A 
ATOM      6  C   UNL     1      -3.660  -2.184  -0.263  0.00  0.00    +0.067 A 
ATOM      7  C   UNL     1      -2.292  -2.099  -0.472  0.00  0.00    +0.030 A 
ATOM      8  N   UNL     1      -4.754  -1.517  -0.808  0.00  0.00    -0.306 N 
ATOM      9  H   UNL     1      -4.717  -0.827  -1.488  0.00  0.00    +0.170 HD
ATOM     10  C   UNL     1      -5.873  -1.995  -0.231  0.00  0.00    +0.325 A 
ATOM     11  O   UNL     1      -7.004  -1.624  -0.482  0.00  0.00    -0.247 OA
ATOM     12  N   UNL     1      -5.550  -2.944   0.668  0.00  0.00    -0.306 N 
ATOM     13  H   UNL     1      -6.175  -3.442   1.217  0.00  0.00    +0.170 HD
ENDBRANCH   1   2
BRANCH   1  19
ATOM     14  C   UNL     1       0.626  -0.618   1.042  0.00  0.00    +0.123 A 
ATOM     15  C   UNL     1       1.202   0.139   2.051  0.00  0.00    +0.065 A 
ATOM     16  C   UNL     1       1.836  -0.489   3.107  0.00  0.00    +0.044 A 
ATOM     17  C   UNL     1       1.896  -1.871   3.157  0.00  0.00    +0.020 A 
ATOM     18  C   UNL     1       1.323  -2.626   2.152  0.00  0.00    +0.007 A 
ATOM     19  C   UNL     1       0.682  -2.003   1.097  0.00  0.00    -0.016 A 
ATOM     20 CL   UNL     1       2.558   0.457   4.372  0.00  0.00    -0.083 Cl
BRANCH  14  22
ATOM     21  C   UNL     1      -0.017   1.425   0.010  0.00  0.00    +0.277 C 
ATOM     22  O   UNL     1       0.002  -0.004   0.002  0.00  0.00    -0.495 OA
ENDBRANCH  14  22
ENDBRANCH   1  19
BRANCH   1  23
ATOM     23  N   UNL     1       0.630  -4.178   0.015  0.00  0.00    +0.385 N 
ATOM     24  H   UNL     1       1.625  -4.119  -0.140  0.00  0.00    -0.089 HD
ATOM     25  H   UNL     1       0.455  -4.613   0.909  0.00  0.00    -0.089 HD
ATOM     26  H   UNL     1       0.208  -4.731  -0.716  0.00  0.00    -0.089 HD
ENDBRANCH   1  23
TORSDOF 4
