REMARK  Name = ZINC09391682
REMARK  8 active torsions:
REMARK  status: ('A' for Active; 'I' for Inactive)
REMARK    1  A    between atoms: C_6  and  O_7
REMARK    2  A    between atoms: O_7  and  C_8
REMARK    3  A    between atoms: C_8  and  C_9
REMARK    4  A    between atoms: N_11  and  C_12
REMARK    5  A    between atoms: C_12  and  C_13
REMARK    6  A    between atoms: N_15  and  N_16
REMARK    7  A    between atoms: C_18  and  N_24
REMARK    8  A    between atoms: C_19  and  N_23
REMARK                            x       y       z     vdW  Elec       q    Type
REMARK                         _______ _______ _______ _____ _____    ______ ____
ROOT
ATOM      1  C   UNL     1       4.393   8.585   0.005  0.00  0.00    +0.246 C 
ATOM      2  O   UNL     1       5.418   7.937  -0.008  0.00  0.00    -0.273 OA
ATOM      3  N   UNL     1       4.447   9.932   0.011  0.00  0.00    -0.234 N 
ATOM      4  H   UNL     1       3.627  10.450   0.021  0.00  0.00    +0.173 HD
ENDROOT
BRANCH   3   5
ATOM      5  N   UNL     1       5.687  10.583   0.003  0.00  0.00    -0.246 N 
ATOM      6  C   UNL     1       5.743  11.968   0.009  0.00  0.00    +0.170 A 
ATOM      7  C   UNL     1       6.970  12.625   0.007  0.00  0.00    +0.206 A 
ATOM      8  C   UNL     1       6.972  14.017   0.008  0.00  0.00    +0.152 A 
ATOM      9  N   UNL     1       5.809  14.665   0.022  0.00  0.00    -0.219 NA
ATOM     10  C   UNL     1       4.668  14.006   0.029  0.00  0.00    +0.225 A 
ATOM     11  N   UNL     1       4.624  12.689   0.023  0.00  0.00    -0.217 NA
ATOM     12  H   UNL     1       6.507  10.065  -0.008  0.00  0.00    +0.172 HD
BRANCH   8  13
ATOM     13  N   UNL     1       8.168  14.718   0.000  0.00  0.00    -0.341 N 
ATOM     14  H   UNL     1       8.161  15.688   0.005  0.00  0.00    +0.144 HD
ATOM     15  H   UNL     1       9.011  14.239  -0.010  0.00  0.00    +0.144 HD
ENDBRANCH   8  13
BRANCH   7  16
ATOM     16  N   UNL     1       8.239  11.864  -0.002  0.00  0.00    +0.063 N 
ATOM     17  O   UNL     1       8.757  11.555  -1.061  0.00  0.00    -0.126 OA
ATOM     18  O   UNL     1       8.766  11.546   1.049  0.00  0.00    -0.126 OA
ENDBRANCH   7  16
ENDBRANCH   3   5
BRANCH   1  19
ATOM     19  C   UNL     1       3.058   7.885   0.014  0.00  0.00    +0.201 C 
BRANCH  19  22
ATOM     20  C   UNL     1       2.209   5.601   0.010  0.00  0.00    +0.251 C 
ATOM     21  O   UNL     1       1.083   6.051   0.023  0.00  0.00    -0.272 OA
ATOM     22  N   UNL     1       3.268   6.435   0.004  0.00  0.00    -0.304 N 
ATOM     23  H   UNL     1       4.169   6.075  -0.006  0.00  0.00    +0.149 HD
BRANCH  20  24
ATOM     24  C   UNL     1       2.425   4.109   0.001  0.00  0.00    +0.324 C 
BRANCH  24  25
ATOM     25  O   UNL     1       1.159   3.445   0.009  0.00  0.00    -0.483 OA
BRANCH  25  31
ATOM     26  C   UNL     1      -0.017   1.377   0.010  0.00  0.00    +0.047 A 
ATOM     27  C   UNL     1       0.002  -0.004   0.002  0.00  0.00    +0.023 A 
ATOM     28  C   UNL     1       1.209  -0.680  -0.013  0.00  0.00    +0.041 A 
ATOM     29  C   UNL     1       2.399   0.025  -0.020  0.00  0.00    +0.023 A 
ATOM     30  C   UNL     1       2.385   1.406  -0.013  0.00  0.00    +0.047 A 
ATOM     31  C   UNL     1       1.176   2.086   0.002  0.00  0.00    +0.121 A 
ATOM     32 CL   UNL     1       1.230  -2.416  -0.023  0.00  0.00    -0.084 Cl
ENDBRANCH  25  31
ENDBRANCH  24  25
ENDBRANCH  20  24
ENDBRANCH  19  22
ENDBRANCH   1  19
TORSDOF 8
