REMARK  Name = ZINC66632773
REMARK  5 active torsions:
REMARK  status: ('A' for Active; 'I' for Inactive)
REMARK    1  A    between atoms: C_4  and  C_7
REMARK    2  A    between atoms: C_19  and  C_21
REMARK    3  A    between atoms: N_23  and  N_24
REMARK    4  A    between atoms: N_27  and  C_28
REMARK    5  A    between atoms: C_28  and  C_29
REMARK                            x       y       z     vdW  Elec       q    Type
REMARK                         _______ _______ _______ _____ _____    ______ ____
ROOT
ATOM      1  C   UNL     1       3.696  -0.685  -0.037  0.00  0.00    +0.247 C 
ATOM      2  O   UNL     1       4.735  -0.064  -0.148  0.00  0.00    -0.270 OA
ATOM      3  N   UNL     1       3.720  -2.029   0.057  0.00  0.00    -0.283 N 
ATOM      4  C   UNL     1       4.905  -2.865   0.163  0.00  0.00    +0.080 C 
ATOM      5  C   UNL     1       6.170  -2.384  -0.515  0.00  0.00    +0.023 C 
ATOM      6  C   UNL     1       7.270  -3.419  -0.223  0.00  0.00    +0.002 C 
ATOM      7  C   UNL     1       6.865  -4.810  -0.700  0.00  0.00    +0.000 C 
ATOM      8  C   UNL     1       5.516  -5.240  -0.102  0.00  0.00    +0.005 C 
ATOM      9  C   UNL     1       4.494  -4.193  -0.530  0.00  0.00    +0.012 C 
ATOM     10  C   UNL     1       3.090  -4.387   0.064  0.00  0.00    +0.037 C 
ATOM     11  C   UNL     1       2.545  -2.932   0.079  0.00  0.00    +0.164 C 
ENDROOT
BRANCH   1  15
ATOM     12  C   UNL     1      -0.014   1.383   0.053  0.00  0.00    +0.000 A 
ATOM     13  C   UNL     1       0.165   0.255   0.835  0.00  0.00    +0.001 A 
ATOM     14  C   UNL     1       1.367  -0.421   0.810  0.00  0.00    +0.013 A 
ATOM     15  C   UNL     1       2.404   0.035  -0.006  0.00  0.00    +0.037 A 
ATOM     16  C   UNL     1       2.217   1.173  -0.791  0.00  0.00    +0.013 A 
ATOM     17  C   UNL     1       1.010   1.840  -0.757  0.00  0.00    +0.001 A 
ENDBRANCH   1  15
BRANCH  11  18
ATOM     18  C   UNL     1       1.691  -2.693  -1.139  0.00  0.00    +0.250 C 
ATOM     19  O   UNL     1       2.157  -2.126  -2.105  0.00  0.00    -0.272 OA
ATOM     20  N   UNL     1       0.410  -3.111  -1.157  0.00  0.00    -0.232 N 
ATOM     21  H   UNL     1       0.037  -3.564  -0.385  0.00  0.00    +0.173 HD
BRANCH  20  22
ATOM     22  N   UNL     1      -0.384  -2.889  -2.290  0.00  0.00    -0.218 N 
ATOM     23  C   UNL     1      -1.665  -3.306  -2.307  0.00  0.00    +0.316 C 
ATOM     24  O   UNL     1      -2.354  -3.113  -3.290  0.00  0.00    -0.251 OA
ATOM     25  N   UNL     1      -2.183  -3.937  -1.234  0.00  0.00    -0.298 N 
ATOM     26  H   UNL     1      -0.011  -2.434  -3.062  0.00  0.00    +0.174 HD
ATOM     27  H   UNL     1      -1.633  -4.090  -0.450  0.00  0.00    +0.150 HD
BRANCH  25  28
ATOM     28  C   UNL     1      -3.576  -4.390  -1.253  0.00  0.00    +0.109 C 
BRANCH  28  29
ATOM     29  C   UNL     1      -3.909  -5.070   0.077  0.00  0.00    +0.006 C 
ATOM     30  C   UNL     1      -4.270  -6.556   0.040  0.00  0.00    +0.005 C 
ATOM     31  C   UNL     1      -5.356  -5.511   0.301  0.00  0.00    +0.005 C 
ENDBRANCH  28  29
ENDBRANCH  25  28
ENDBRANCH  20  22
ENDBRANCH  11  18
TORSDOF 5
