REMARK  Name = ZINC66649656
REMARK  8 active torsions:
REMARK  status: ('A' for Active; 'I' for Inactive)
REMARK    1  A    between atoms: C_1  and  C_2
REMARK    2  A    between atoms: C_7  and  C_8
REMARK    3  A    between atoms: C_8  and  C_10
REMARK    4  A    between atoms: C_8  and  N_24
REMARK    5  A    between atoms: C_10  and  C_11
REMARK    6  A    between atoms: C_17  and  C_19
REMARK    7  A    between atoms: N_21  and  C_22
REMARK    8  A    between atoms: N_21  and  C_23
REMARK                            x       y       z     vdW  Elec       q    Type
REMARK                         _______ _______ _______ _____ _____    ______ ____
ROOT
ATOM      1  C   UNL     1       0.024   0.044   2.503  0.00  0.00    +0.114 C 
ENDROOT
BRANCH   1   8
ATOM      2  C   UNL     1      -2.230  -0.709   0.860  0.00  0.00    +0.044 C 
ATOM      3  C   UNL     1      -0.838  -1.133   0.469  0.00  0.00    -0.045 A 
ATOM      4  C   UNL     1      -0.639  -1.879  -0.678  0.00  0.00    +0.004 A 
ATOM      5  C   UNL     1       0.638  -2.268  -1.036  0.00  0.00    +0.000 A 
ATOM      6  C   UNL     1       1.716  -1.913  -0.247  0.00  0.00    +0.000 A 
ATOM      7  C   UNL     1       1.517  -1.167   0.900  0.00  0.00    +0.006 A 
ATOM      8  C   UNL     1       0.241  -0.774   1.255  0.00  0.00    -0.024 A 
ENDBRANCH   1   8
BRANCH   1   9
ATOM      9  N   UNL     1      -0.537  -0.808   3.554  0.00  0.00    -0.292 N 
ATOM     10  C   UNL     1       0.102  -1.937   3.920  0.00  0.00    +0.298 C 
ATOM     11  O   UNL     1       1.190  -2.201   3.444  0.00  0.00    -0.253 OA
ATOM     12  N   UNL     1      -0.464  -2.773   4.812  0.00  0.00    -0.313 N 
ATOM     13  H   UNL     1      -1.369  -0.560   3.987  0.00  0.00    +0.151 HD
ATOM     14  H   UNL     1      -1.331  -2.563   5.191  0.00  0.00    +0.146 HD
ATOM     15  H   UNL     1      -0.003  -3.586   5.075  0.00  0.00    +0.146 HD
ENDBRANCH   1   9
BRANCH   1  16
ATOM     16  C   UNL     1       1.361   0.620   2.973  0.00  0.00    +0.123 C 
BRANCH  16  17
ATOM     17  C   UNL     1       1.128   1.536   4.147  0.00  0.00    +0.219 C 
ATOM     18  O   UNL     1       0.004   1.711   4.566  0.00  0.00    -0.275 OA
ATOM     19  N   UNL     1       2.170   2.161   4.731  0.00  0.00    -0.280 N 
ATOM     20  C   UNL     1       3.556   1.981   4.248  0.00  0.00    +0.178 C 
ATOM     21  S   UNL     1       4.363   3.512   4.893  0.00  0.00    -0.139 S 
ATOM     22  C   UNL     1       3.296   3.693   6.392  0.00  0.00    +0.102 C 
ATOM     23  C   UNL     1       1.988   3.052   5.865  0.00  0.00    +0.173 C 
BRANCH  23  24
ATOM     24  C   UNL     1       1.040   4.152   5.462  0.00  0.00    +0.236 C 
ATOM     25  O   UNL     1       0.577   4.173   4.341  0.00  0.00    -0.274 OA
ATOM     26  N   UNL     1       0.709   5.114   6.346  0.00  0.00    -0.306 N 
ATOM     27  C   UNL     1      -0.212   6.183   5.954  0.00  0.00    +0.131 C 
ATOM     28  C   UNL     1       1.269   5.089   7.699  0.00  0.00    +0.131 C 
ENDBRANCH  23  24
ENDBRANCH  16  17
ENDBRANCH   1  16
TORSDOF 5
