REMARK  Name = ZINC16932800
REMARK  6 active torsions:
REMARK  status: ('A' for Active; 'I' for Inactive)
REMARK    1  A    between atoms: C_4  and  O_23
REMARK    2  A    between atoms: C_5  and  C_7
REMARK    3  A    between atoms: N_11  and  C_15
REMARK    4  A    between atoms: C_19  and  C_21
REMARK    5  A    between atoms: O_23  and  C_24
REMARK    6  A    between atoms: C_24  and  C_25
REMARK                            x       y       z     vdW  Elec       q    Type
REMARK                         _______ _______ _______ _____ _____    ______ ____
ROOT
ATOM      1  C   UNL     1      -1.008   2.289   1.178  0.00  0.00    +0.031 C 
ATOM      2  C   UNL     1      -1.161   3.562   0.731  0.00  0.00    +0.078 C 
ATOM      3  C   UNL     1      -2.298   4.488   0.899  0.00  0.00    +0.263 C 
ATOM      4  O   UNL     1      -3.299   4.166   1.513  0.00  0.00    -0.269 OA
ATOM      5  N   UNL     1      -2.174   5.685   0.351  0.00  0.00    -0.224 N 
ATOM      6  C   UNL     1      -1.063   6.037  -0.327  0.00  0.00    +0.125 C 
ATOM      7  S   UNL     1      -0.717   7.524  -1.101  0.00  0.00    -0.027 S 
ATOM      8  S   UNL     1      -0.038   4.580  -0.216  0.00  0.00    -0.061 S 
ENDROOT
BRANCH   1  13
ATOM      9  C   UNL     1       1.939   1.102  -0.810  0.00  0.00    +0.001 A 
ATOM     10  C   UNL     1       2.315  -0.022  -0.092  0.00  0.00    +0.004 A 
ATOM     11  C   UNL     1       1.615  -0.397   1.039  0.00  0.00    +0.046 A 
ATOM     12  C   UNL     1       0.530   0.351   1.465  0.00  0.00    +0.128 A 
ATOM     13  C   UNL     1       0.144   1.491   0.741  0.00  0.00    +0.018 A 
ATOM     14  C   UNL     1       0.863   1.859  -0.403  0.00  0.00    +0.011 A 
BRANCH  12  15
ATOM     15  O   UNL     1      -0.158  -0.017   2.575  0.00  0.00    -0.480 OA
BRANCH  15  16
ATOM     16  C   UNL     1       0.292  -1.188   3.259  0.00  0.00    +0.353 C 
BRANCH  16  17
ATOM     17  C   UNL     1      -0.586  -1.438   4.458  0.00  0.00    +0.393 C 
ATOM     18  O   UNL     1      -1.504  -0.691   4.702  0.00  0.00    -0.243 OA
ATOM     19  O   UNL     1      -0.349  -2.492   5.255  0.00  0.00    -0.243 OA
ENDBRANCH  16  17
ENDBRANCH  15  16
ENDBRANCH  12  15
ENDBRANCH   1  13
BRANCH   5  20
ATOM     20  C   UNL     1      -3.221   6.608   0.478  0.00  0.00    +0.043 A 
ATOM     21  C   UNL     1      -4.244   6.632  -0.464  0.00  0.00    +0.024 A 
ATOM     22  C   UNL     1      -5.282   7.537  -0.340  0.00  0.00    +0.003 A 
ATOM     23  C   UNL     1      -5.304   8.429   0.712  0.00  0.00    +0.015 A 
ATOM     24  C   UNL     1      -4.279   8.417   1.660  0.00  0.00    +0.065 A 
ATOM     25  C   UNL     1      -3.234   7.500   1.538  0.00  0.00    +0.039 A 
BRANCH  24  26
ATOM     26  C   UNL     1      -4.299   9.371   2.787  0.00  0.00    +0.387 C 
ATOM     27  O   UNL     1      -3.406   9.359   3.610  0.00  0.00    -0.241 OA
ATOM     28  O   UNL     1      -5.309  10.256   2.902  0.00  0.00    -0.241 OA
ENDBRANCH  24  26
ENDBRANCH   5  20
TORSDOF 6
