REMARK  Name = ZINC50305434
REMARK  5 active torsions:
REMARK  status: ('A' for Active; 'I' for Inactive)
REMARK    1  A    between atoms: C_1  and  C_2
REMARK    2  A    between atoms: C_3  and  N_21
REMARK    3  A    between atoms: C_4  and  C_8
REMARK    4  A    between atoms: N_10  and  C_11
REMARK    5  A    between atoms: C_16  and  C_17
REMARK                            x       y       z     vdW  Elec       q    Type
REMARK                         _______ _______ _______ _____ _____    ______ ____
ROOT
ATOM      1  C   UNL     1       0.038  -3.372  -1.392  0.00  0.00    +0.270 C 
ATOM      2  O   UNL     1       0.038  -3.312  -2.607  0.00  0.00    -0.268 OA
ATOM      3  N   UNL     1       0.060  -4.571  -0.776  0.00  0.00    -0.280 N 
ATOM      4  H   UNL     1       0.141  -4.619   0.189  0.00  0.00    +0.155 HD
ENDROOT
BRANCH   1   8
ATOM      5  C   UNL     1      -0.057   1.502   0.012  0.00  0.00    +0.067 C 
ATOM      6  C   UNL     1      -0.028  -0.005   0.003  0.00  0.00    +0.054 A 
ATOM      7  C   UNL     1      -0.011  -0.806  -1.095  0.00  0.00    +0.078 A 
ATOM      8  C   UNL     1       0.013  -2.133  -0.593  0.00  0.00    +0.168 A 
ATOM      9  N   UNL     1       0.010  -2.049   0.724  0.00  0.00    -0.167 NA
ATOM     10  N   UNL     1      -0.008  -0.818   1.091  0.00  0.00    -0.279 N 
ATOM     11  H   UNL     1      -0.010  -0.514   2.012  0.00  0.00    +0.189 HD
BRANCH   7  12
ATOM     12  N   UNL     1      -0.017  -0.406  -2.439  0.00  0.00    -0.355 N 
ATOM     13  H   UNL     1      -0.035   0.537  -2.664  0.00  0.00    +0.142 HD
ATOM     14  H   UNL     1      -0.003  -1.073  -3.143  0.00  0.00    +0.142 HD
ENDBRANCH   7  12
ENDBRANCH   1   8
BRANCH   3  15
ATOM     15  C   UNL     1      -0.033  -5.745  -1.529  0.00  0.00    +0.045 A 
ATOM     16  C   UNL     1      -0.646  -5.726  -2.776  0.00  0.00    +0.024 A 
ATOM     17  C   UNL     1      -0.736  -6.888  -3.517  0.00  0.00    +0.002 A 
ATOM     18  C   UNL     1      -0.218  -8.070  -3.019  0.00  0.00    +0.001 A 
ATOM     19  C   UNL     1       0.392  -8.092  -1.778  0.00  0.00    +0.014 A 
ATOM     20  C   UNL     1       0.491  -6.933  -1.035  0.00  0.00    +0.076 A 
BRANCH  20  21
ATOM     21  C   UNL     1       1.162  -6.957   0.314  0.00  0.00    +0.419 C 
ATOM     22  F   UNL     1       1.605  -8.254   0.592  0.00  0.00    -0.166 F 
ATOM     23  F   UNL     1       2.254  -6.082   0.308  0.00  0.00    -0.166 F 
ATOM     24  F   UNL     1       0.249  -6.556   1.296  0.00  0.00    -0.166 F 
ENDBRANCH  20  21
ENDBRANCH   3  15
TORSDOF 4
