REMARK  Name = ZINC40943067
REMARK  7 active torsions:
REMARK  status: ('A' for Active; 'I' for Inactive)
REMARK    1  A    between atoms: C_1  and  C_2
REMARK    2  A    between atoms: C_4  and  O_11
REMARK    3  A    between atoms: C_6  and  C_9
REMARK    4  A    between atoms: O_11  and  C_12
REMARK    5  A    between atoms: C_12  and  C_13
REMARK    6  A    between atoms: N_15  and  C_16
REMARK    7  A    between atoms: C_17  and  C_24
REMARK                            x       y       z     vdW  Elec       q    Type
REMARK                         _______ _______ _______ _____ _____    ______ ____
ROOT
ATOM      1  C   UNL     1       0.017  -2.877  -4.781  0.00  0.00    +0.255 C 
ATOM      2  O   UNL     1       0.034  -4.080  -4.628  0.00  0.00    -0.272 OA
ATOM      3  N   UNL     1       0.004  -2.357  -6.024  0.00  0.00    -0.277 N 
ATOM      4  H   UNL     1      -0.010  -1.394  -6.147  0.00  0.00    +0.155 HD
ENDROOT
BRANCH   3   5
ATOM      5  C   UNL     1       0.010  -3.196  -7.128  0.00  0.00    +0.084 A 
ATOM      6  C   UNL     1       0.004  -2.843  -8.464  0.00  0.00    +0.068 A 
ATOM      7  C   UNL     1       0.013  -3.929  -9.444  0.00  0.00    -0.023 A 
ATOM      8  C   UNL     1       0.025  -5.159  -8.899  0.00  0.00    -0.004 A 
ATOM      9  S   UNL     1       0.033  -4.873  -7.148  0.00  0.00    -0.077 S 
ATOM     10  C   UNL     1       0.029  -6.237  -9.949  0.00  0.00    +0.043 C 
ATOM     11  C   UNL     1      -0.414  -5.521 -11.245  0.00  0.00    +0.010 C 
ATOM     12  C   UNL     1       0.015  -4.067 -10.965  0.00  0.00    +0.037 C 
BRANCH   6  13
ATOM     13  C   UNL     1      -0.012  -1.438  -8.883  0.00  0.00    +0.244 C 
ATOM     14  O   UNL     1       1.036  -0.844  -9.058  0.00  0.00    -0.270 OA
ATOM     15  N   UNL     1      -1.186  -0.804  -9.072  0.00  0.00    -0.325 N 
ATOM     16  H   UNL     1      -2.021  -1.278  -8.932  0.00  0.00    +0.145 HD
ATOM     17  H   UNL     1      -1.196   0.125  -9.349  0.00  0.00    +0.145 HD
ENDBRANCH   6  13
ENDBRANCH   3   5
BRANCH   1  18
ATOM     18  C   UNL     1       0.011  -1.965  -3.582  0.00  0.00    +0.325 C 
BRANCH  18  19
ATOM     19  O   UNL     1       0.028  -2.749  -2.387  0.00  0.00    -0.482 OA
BRANCH  19  23
ATOM     20  C   UNL     1      -0.018   1.503   0.010  0.00  0.00    +0.045 C 
ATOM     21  C   UNL     1       0.002  -0.004   0.002  0.00  0.00    -0.028 A 
ATOM     22  C   UNL     1       0.006  -0.688  -1.199  0.00  0.00    +0.051 A 
ATOM     23  C   UNL     1       0.025  -2.074  -1.206  0.00  0.00    +0.136 A 
ATOM     24  C   UNL     1       0.040  -2.773  -0.007  0.00  0.00    +0.064 A 
ATOM     25  C   UNL     1       0.036  -2.085   1.192  0.00  0.00    -0.014 A 
ATOM     26  C   UNL     1       0.023  -0.702   1.196  0.00  0.00    +0.048 A 
ATOM     27 CL   UNL     1       0.025   0.160   2.704  0.00  0.00    -0.083 Cl
ATOM     28  C   UNL     1       0.052  -2.843   2.495  0.00  0.00    +0.046 C 
ATOM     29 BR   UNL     1       0.065  -4.664  -0.013  0.00  0.00    -0.046 Br
ENDBRANCH  19  23
ENDBRANCH  18  19
ENDBRANCH   1  18
TORSDOF 5
