REMARK  Name = ZINC67327852
REMARK  6 active torsions:
REMARK  status: ('A' for Active; 'I' for Inactive)
REMARK    1  A    between atoms: C_1  and  C_2
REMARK    2  A    between atoms: C_2  and  C_4
REMARK    3  A    between atoms: C_2  and  N_13
REMARK    4  A    between atoms: C_14  and  C_16
REMARK    5  A    between atoms: N_18  and  C_19
REMARK    6  A    between atoms: C_23  and  N_25
REMARK                            x       y       z     vdW  Elec       q    Type
REMARK                         _______ _______ _______ _____ _____    ______ ____
ROOT
ATOM      1  C   UNL     1       0.684  -1.104  -3.588  0.00  0.00    +0.303 C 
ATOM      2  O   UNL     1       1.871  -1.355  -3.545  0.00  0.00    -0.265 OA
ATOM      3  N   UNL     1       0.008  -1.241  -4.746  0.00  0.00    -0.278 N 
ATOM      4  H   UNL     1      -0.952  -1.104  -4.766  0.00  0.00    +0.155 HD
ENDROOT
BRANCH   3   5
ATOM      5  C   UNL     1       0.690  -1.581  -5.917  0.00  0.00    +0.036 A 
ATOM      6  C   UNL     1       1.774  -2.449  -5.864  0.00  0.00    +0.023 A 
ATOM      7  C   UNL     1       2.449  -2.785  -7.021  0.00  0.00    +0.004 A 
ATOM      8  C   UNL     1       2.049  -2.260  -8.236  0.00  0.00    +0.023 A 
ATOM      9  C   UNL     1       0.965  -1.392  -8.296  0.00  0.00    +0.031 A 
ATOM     10  C   UNL     1       0.282  -1.057  -7.136  0.00  0.00    +0.046 A 
BRANCH   9  11
ATOM     11  N   UNL     1       0.562  -0.862  -9.523  0.00  0.00    -0.330 N 
ATOM     12  C   UNL     1      -0.497   0.154  -9.588  0.00  0.00    +0.105 C 
ATOM     13  C   UNL     1       0.028   1.365 -10.366  0.00  0.00    +0.019 C 
ATOM     14  C   UNL     1       0.541   0.904 -11.732  0.00  0.00    +0.003 C 
ATOM     15  C   UNL     1       1.694  -0.084 -11.540  0.00  0.00    +0.019 C 
ATOM     16  C   UNL     1       1.192  -1.306 -10.774  0.00  0.00    +0.105 C 
ENDBRANCH   9  11
ENDBRANCH   3   5
BRANCH   1  18
ATOM     17  N   UNL     1       0.649  -0.508  -1.200  0.00  0.00    -0.301 N 
ATOM     18  C   UNL     1      -0.027  -0.645  -2.358  0.00  0.00    +0.300 C 
ATOM     19  O   UNL     1      -1.214  -0.395  -2.401  0.00  0.00    -0.265 OA
ATOM     20  H   UNL     1       1.597  -0.708  -1.166  0.00  0.00    +0.150 HD
BRANCH  17  22
ATOM     21  C   UNL     1      -0.100   1.472   0.026  0.00  0.00    +0.033 C 
ATOM     22  C   UNL     1      -0.049  -0.057   0.007  0.00  0.00    +0.101 C 
BRANCH  22  23
ATOM     23  C   UNL     1       0.686  -0.551   1.226  0.00  0.00    -0.024 A 
ATOM     24  C   UNL     1       2.069  -0.534   1.252  0.00  0.00    +0.009 A 
ATOM     25  C   UNL     1       2.748  -0.985   2.368  0.00  0.00    +0.050 A 
ATOM     26  C   UNL     1       2.044  -1.456   3.465  0.00  0.00    +0.166 A 
ATOM     27  C   UNL     1       0.651  -1.473   3.439  0.00  0.00    +0.167 A 
ATOM     28  C   UNL     1      -0.023  -1.014   2.319  0.00  0.00    +0.055 A 
ATOM     29  O   UNL     1       0.199  -1.976   4.624  0.00  0.00    -0.453 OA
ATOM     30  C   UNL     1       1.329  -2.646   5.214  0.00  0.00    +0.466 C 
ATOM     31  O   UNL     1       2.464  -1.948   4.667  0.00  0.00    -0.453 OA
ENDBRANCH  22  23
ENDBRANCH  17  22
ENDBRANCH   1  18
TORSDOF 5
