REMARK  Name = ZINC39685727
REMARK  12 active torsions:
REMARK  status: ('A' for Active; 'I' for Inactive)
REMARK    1  A    between atoms: C_1  and  C_2
REMARK    2  A    between atoms: C_2  and  C_3
REMARK    3  A    between atoms: C_2  and  C_4
REMARK    4  A    between atoms: C_4  and  C_6
REMARK    5  A    between atoms: C_4  and  N_13
REMARK    6  A    between atoms: N_8  and  C_9
REMARK    7  A    between atoms: C_9  and  C_10
REMARK    8  A    between atoms: C_9  and  C_11
REMARK    9  A    between atoms: C_9  and  C_12
REMARK   10  A    between atoms: C_14  and  C_16
REMARK   11  A    between atoms: C_27  and  C_29
REMARK   12  A    between atoms: C_34  and  C_35
REMARK                            x       y       z     vdW  Elec       q    Type
REMARK                         _______ _______ _______ _____ _____    ______ ____
ROOT
ATOM      1  C   UNL     1       3.118   1.921   1.763  0.00  0.00    +0.100 C 
ATOM      2  C   UNL     1       3.864   1.797   0.416  0.00  0.00    +0.121 C 
ATOM      3  N   UNL     1       3.873   3.172  -0.136  0.00  0.00    -0.296 N 
ATOM      4  C   UNL     1       4.111   4.040   1.042  0.00  0.00    +0.115 C 
ATOM      5  C   UNL     1       3.286   3.394   2.172  0.00  0.00    -0.004 C 
ATOM      6  C   UNL     1       1.922   4.071   2.281  0.00  0.00    -0.010 C 
ATOM      7  C   UNL     1       2.112   5.518   2.744  0.00  0.00    -0.082 C 
ATOM      8  N   UNL     1       2.793   5.532   4.044  0.00  0.00    +0.379 N 
ATOM      9  C   UNL     1       4.139   4.964   3.911  0.00  0.00    -0.082 C 
ATOM     10  C   UNL     1       4.036   3.493   3.497  0.00  0.00    -0.010 C 
ATOM     11  C   UNL     1       3.704   3.548  -1.419  0.00  0.00    +0.247 C 
ATOM     12  O   UNL     1       3.838   4.715  -1.733  0.00  0.00    -0.270 OA
ATOM     13  H   UNL     1       2.862   6.483   4.376  0.00  0.00    -0.086 HD
ATOM     14  H   UNL     1       2.262   4.986   4.706  0.00  0.00    -0.086 HD
ENDROOT
BRANCH  11  15
ATOM     15  C   UNL     1       3.353   2.543  -2.444  0.00  0.00    +0.049 A 
ATOM     16  C   UNL     1       3.898   1.259  -2.382  0.00  0.00    +0.013 A 
ATOM     17  C   UNL     1       3.567   0.325  -3.341  0.00  0.00    +0.001 A 
ATOM     18  C   UNL     1       2.697   0.659  -4.365  0.00  0.00    +0.001 A 
ATOM     19  C   UNL     1       2.153   1.929  -4.432  0.00  0.00    +0.013 A 
ATOM     20  C   UNL     1       2.472   2.871  -3.475  0.00  0.00    +0.067 A 
BRANCH  20  21
ATOM     21  C   UNL     1       1.875   4.253  -3.547  0.00  0.00    +0.418 C 
ATOM     22  F   UNL     1       1.030   4.338  -4.660  0.00  0.00    -0.166 F 
ATOM     23  F   UNL     1       1.140   4.504  -2.384  0.00  0.00    -0.166 F 
ATOM     24  F   UNL     1       2.899   5.198  -3.666  0.00  0.00    -0.166 F 
ENDBRANCH  20  21
ENDBRANCH  11  15
BRANCH   1  26
ATOM     25  N   UNL     1       0.949   1.103   2.626  0.00  0.00    -0.303 N 
ATOM     26  C   UNL     1       1.659   1.588   1.588  0.00  0.00    +0.219 C 
ATOM     27  O   UNL     1       1.123   1.756   0.513  0.00  0.00    -0.275 OA
ATOM     28  H   UNL     1       1.377   0.969   3.486  0.00  0.00    +0.149 HD
BRANCH  25  29
ATOM     29  C   UNL     1      -0.470   0.779   2.455  0.00  0.00    +0.161 C 
BRANCH  29  30
ATOM     30  C   UNL     1      -1.166   0.857   3.789  0.00  0.00    +0.234 C 
ATOM     31  O   UNL     1      -0.540   1.154   4.784  0.00  0.00    -0.274 OA
ATOM     32  N   UNL     1      -2.486   0.597   3.876  0.00  0.00    -0.309 N 
ATOM     33  H   UNL     1      -2.987   0.359   3.080  0.00  0.00    +0.149 HD
BRANCH  32  34
ATOM     34  C   UNL     1      -3.163   0.672   5.173  0.00  0.00    +0.026 C 
ATOM     35  C   UNL     1      -3.028   2.088   5.738  0.00  0.00    +0.031 C 
ATOM     36  C   UNL     1      -4.645   0.334   4.995  0.00  0.00    +0.031 C 
ATOM     37  C   UNL     1      -2.525  -0.326   6.141  0.00  0.00    +0.031 C 
ENDBRANCH  32  34
ENDBRANCH  29  30
BRANCH  29  39
ATOM     38  C   UNL     1       0.102  -0.715   0.536  0.00  0.00    +0.009 C 
ATOM     39  C   UNL     1      -0.605  -0.636   1.891  0.00  0.00    +0.012 C 
ATOM     40  C   UNL     1       0.033  -1.635   2.859  0.00  0.00    +0.009 C 
ENDBRANCH  29  39
ENDBRANCH  25  29
ENDBRANCH   1  26
TORSDOF 7
