REMARK  Name = ZINC04279275
REMARK  8 active torsions:
REMARK  status: ('A' for Active; 'I' for Inactive)
REMARK    1  A    between atoms: C_4  and  O_10
REMARK    2  A    between atoms: C_5  and  N_7
REMARK    3  A    between atoms: O_10  and  C_11
REMARK    4  A    between atoms: C_13  and  O_26
REMARK    5  A    between atoms: C_15  and  O_25
REMARK    6  A    between atoms: C_17  and  O_24
REMARK    7  A    between atoms: C_19  and  C_22
REMARK    8  A    between atoms: C_22  and  O_23
REMARK                            x       y       z     vdW  Elec       q    Type
REMARK                         _______ _______ _______ _____ _____    ______ ____
ROOT
ATOM      1  C   UNL     1      -0.255   5.446   0.050  0.00  0.00    +0.339 C 
ATOM      2  C   UNL     1       1.128   6.053  -0.198  0.00  0.00    +0.214 C 
ATOM      3  C   UNL     1       1.028   7.580  -0.122  0.00  0.00    +0.180 C 
ATOM      4  C   UNL     1       0.455   7.976   1.243  0.00  0.00    +0.177 C 
ATOM      5  C   UNL     1      -0.902   7.294   1.435  0.00  0.00    +0.179 C 
ATOM      6  O   UNL     1      -0.743   5.878   1.322  0.00  0.00    -0.331 OA
ENDROOT
BRANCH   4   7
ATOM      7  O   UNL     1       1.350   7.558   2.275  0.00  0.00    -0.386 OA
ATOM      8  H   UNL     1       2.233   7.948   2.213  0.00  0.00    +0.210 HD
ENDBRANCH   4   7
BRANCH   3   9
ATOM      9  O   UNL     1       2.327   8.153  -0.279  0.00  0.00    -0.386 OA
ATOM     10  H   UNL     1       2.753   7.937  -1.120  0.00  0.00    +0.210 HD
ENDBRANCH   3   9
BRANCH   2  11
ATOM     11  O   UNL     1       2.041   5.585   0.796  0.00  0.00    -0.383 OA
ATOM     12  H   UNL     1       2.150   4.624   0.809  0.00  0.00    +0.210 HD
ENDBRANCH   2  11
BRANCH   1  13
ATOM     13  O   UNL     1      -0.159   4.020   0.036  0.00  0.00    -0.459 OA
BRANCH  13  17
ATOM     14  C   UNL     1      -3.700   1.904   0.030  0.00  0.00    +0.002 A 
ATOM     15  C   UNL     1      -3.722   3.287   0.037  0.00  0.00    +0.004 A 
ATOM     16  C   UNL     1      -2.538   3.998   0.035  0.00  0.00    +0.048 A 
ATOM     17  C   UNL     1      -1.326   3.323   0.032  0.00  0.00    +0.154 A 
ATOM     18  C   UNL     1      -1.306   1.936   0.019  0.00  0.00    +0.168 A 
ATOM     19  C   UNL     1      -2.494   1.230   0.021  0.00  0.00    +0.036 A 
BRANCH  18  20
ATOM     20  N   UNL     1      -0.014   1.214   0.009  0.00  0.00    +0.060 N 
ATOM     21  O   UNL     1       0.002  -0.004   0.002  0.00  0.00    -0.126 OA
ATOM     22  O   UNL     1       1.032   1.837   0.002  0.00  0.00    -0.126 OA
ENDBRANCH  18  20
ENDBRANCH  13  17
ENDBRANCH   1  13
BRANCH   5  23
ATOM     23  C   UNL     1      -1.453   7.636   2.821  0.00  0.00    +0.190 C 
BRANCH  23  24
ATOM     24  O   UNL     1      -2.769   7.097   2.957  0.00  0.00    -0.392 OA
ATOM     25  H   UNL     1      -3.181   7.276   3.813  0.00  0.00    +0.210 HD
ENDBRANCH  23  24
ENDBRANCH   5  23
TORSDOF 8
