REMARK  Name = ZINC51583394
REMARK  2 active torsions:
REMARK  status: ('A' for Active; 'I' for Inactive)
REMARK    1  A    between atoms: C_6  and  N_7
REMARK    2  A    between atoms: C_14  and  C_17
REMARK                            x       y       z     vdW  Elec       q    Type
REMARK                         _______ _______ _______ _____ _____    ______ ____
ROOT
ATOM      1  N   UNL     1      -1.201  -0.722   0.017  0.00  0.00    -0.267 N 
ATOM      2  C   UNL     1      -2.375  -0.070   0.127  0.00  0.00    +0.307 C 
ATOM      3  O   UNL     1      -2.397   1.146   0.128  0.00  0.00    -0.252 OA
ATOM      4  N   UNL     1      -3.525  -0.764   0.236  0.00  0.00    -0.280 N 
ATOM      5  C   UNL     1      -3.515  -2.232   0.346  0.00  0.00    +0.137 C 
ATOM      6  C   UNL     1      -4.492  -2.800  -0.690  0.00  0.00    +0.180 C 
ATOM      7  O   UNL     1      -5.761  -2.161  -0.541  0.00  0.00    -0.364 OA
ATOM      8  C   UNL     1      -5.739  -0.752  -0.782  0.00  0.00    +0.221 C 
ATOM      9  C   UNL     1      -4.826  -0.078   0.255  0.00  0.00    +0.150 C 
ATOM     10  H   UNL     1      -1.189  -1.690  -0.052  0.00  0.00    +0.156 HD
ENDROOT
BRANCH   1  16
ATOM     11  C   UNL     1       0.033   1.309   0.451  0.00  0.00    +0.029 A 
ATOM     12  C   UNL     1       1.219   2.018   0.436  0.00  0.00    +0.043 A 
ATOM     13  C   UNL     1       2.378   1.421  -0.027  0.00  0.00    +0.161 A 
ATOM     14  C   UNL     1       2.353   0.109  -0.477  0.00  0.00    +0.195 A 
ATOM     15  C   UNL     1       1.166  -0.604  -0.464  0.00  0.00    +0.182 A 
ATOM     16  C   UNL     1       0.002  -0.003   0.001  0.00  0.00    +0.073 A 
ATOM     17  F   UNL     1       1.140  -1.881  -0.902  0.00  0.00    -0.200 F 
ATOM     18  F   UNL     1       3.485  -0.472  -0.929  0.00  0.00    -0.199 F 
ATOM     19  F   UNL     1       3.536   2.116  -0.041  0.00  0.00    -0.202 F 
ENDBRANCH   1  16
BRANCH   8  20
ATOM     20  C   UNL     1      -7.135  -0.197  -0.659  0.00  0.00    +0.241 C 
ATOM     21  O   UNL     1      -8.044  -0.917  -0.303  0.00  0.00    -0.273 OA
ATOM     22  N   UNL     1      -7.373   1.098  -0.944  0.00  0.00    -0.327 N 
ATOM     23  H   UNL     1      -6.646   1.674  -1.229  0.00  0.00    +0.145 HD
ATOM     24  H   UNL     1      -8.271   1.455  -0.865  0.00  0.00    +0.145 HD
ENDBRANCH   8  20
TORSDOF 2
