REMARK  Name = ZINC67431624
REMARK  4 active torsions:
REMARK  status: ('A' for Active; 'I' for Inactive)
REMARK    1  A    between atoms: C_1  and  C_2
REMARK    2  A    between atoms: C_7  and  N_8
REMARK    3  A    between atoms: C_9  and  C_11
REMARK    4  A    between atoms: N_13  and  C_14
REMARK                            x       y       z     vdW  Elec       q    Type
REMARK                         _______ _______ _______ _____ _____    ______ ____
ROOT
ATOM      1  C   UNL     1      -0.168   0.045   4.869  0.00  0.00    +0.300 C 
ATOM      2  O   UNL     1      -0.184   1.259   4.874  0.00  0.00    -0.265 OA
ATOM      3  N   UNL     1      -0.249  -0.634   6.030  0.00  0.00    -0.301 N 
ATOM      4  H   UNL     1      -0.236  -1.604   6.027  0.00  0.00    +0.150 HD
ENDROOT
BRANCH   3   5
ATOM      5  C   UNL     1      -0.358   0.092   7.298  0.00  0.00    +0.104 C 
ATOM      6  C   UNL     1      -1.012  -0.802   8.373  0.00  0.00    +0.032 C 
ATOM      7  C   UNL     1      -0.281  -0.362   9.659  0.00  0.00    +0.037 C 
ATOM      8  C   UNL     1       1.063   0.156   9.194  0.00  0.00    -0.041 A 
ATOM      9  C   UNL     1       1.019   0.419   7.836  0.00  0.00    -0.024 A 
ATOM     10  C   UNL     1       2.142   0.906   7.189  0.00  0.00    +0.007 A 
ATOM     11  C   UNL     1       3.308   1.133   7.894  0.00  0.00    +0.020 A 
ATOM     12  C   UNL     1       3.354   0.872   9.252  0.00  0.00    +0.041 A 
ATOM     13  C   UNL     1       2.231   0.381   9.902  0.00  0.00    +0.024 A 
ATOM     14 CL   UNL     1       4.817   1.154  10.142  0.00  0.00    -0.084 Cl
ENDBRANCH   3   5
BRANCH   1  16
ATOM     15  N   UNL     1       0.025  -0.015   2.416  0.00  0.00    -0.278 N 
ATOM     16  C   UNL     1      -0.057  -0.695   3.577  0.00  0.00    +0.303 C 
ATOM     17  O   UNL     1      -0.040  -1.909   3.572  0.00  0.00    -0.265 OA
ATOM     18  H   UNL     1       0.077   0.953   2.424  0.00  0.00    +0.155 HD
BRANCH  15  25
ATOM     19  C   UNL     1      -1.267   1.182   0.182  0.00  0.00    +0.046 C 
ATOM     20  C   UNL     1      -0.586  -0.159   0.085  0.00  0.00    -0.028 A 
ATOM     21  C   UNL     1      -0.571  -0.841  -1.116  0.00  0.00    +0.025 A 
ATOM     22  C   UNL     1       0.055  -2.072  -1.206  0.00  0.00    +0.041 A 
ATOM     23  C   UNL     1       0.667  -2.623  -0.094  0.00  0.00    +0.022 A 
ATOM     24  C   UNL     1       0.656  -1.945   1.109  0.00  0.00    +0.025 A 
ATOM     25  C   UNL     1       0.033  -0.706   1.201  0.00  0.00    +0.037 A 
ATOM     26 CL   UNL     1       0.071  -2.927  -2.716  0.00  0.00    -0.084 Cl
ENDBRANCH  15  25
ENDBRANCH   1  16
TORSDOF 3
