REMARK  Name = ZINC39279904
REMARK  4 active torsions:
REMARK  status: ('A' for Active; 'I' for Inactive)
REMARK    1  A    between atoms: C_1  and  C_2
REMARK    2  A    between atoms: N_16  and  N_17
REMARK    3  A    between atoms: C_18  and  C_19
REMARK    4  A    between atoms: C_24  and  O_25
REMARK                            x       y       z     vdW  Elec       q    Type
REMARK                         _______ _______ _______ _____ _____    ______ ____
ROOT
ATOM      1  C   UNL     1      -0.018   1.503   0.010  0.00  0.00    +0.046 C 
ATOM      2  C   UNL     1       0.002  -0.004   0.002  0.00  0.00    -0.027 A 
ATOM      3  C   UNL     1       0.006  -0.681  -1.168  0.00  0.00    +0.005 A 
ATOM      4  C   UNL     1       0.022  -2.082  -1.210  0.00  0.00    +0.001 A 
ATOM      5  C   UNL     1       0.065  -2.840  -0.090  0.00  0.00    +0.012 A 
ATOM      6  C   UNL     1       0.096  -2.236   1.187  0.00  0.00    +0.025 A 
ATOM      7  C   UNL     1       0.257  -2.710   2.463  0.00  0.00    +0.115 C 
ATOM      8  C   UNL     1      -0.070  -1.533   3.375  0.00  0.00    +0.253 C 
ATOM      9  N   UNL     1      -0.015  -0.359   2.515  0.00  0.00    -0.358 N 
ATOM     10  C   UNL     1       0.024  -0.753   1.264  0.00  0.00    +0.049 A 
ATOM     11  N   UNL     1       0.939  -1.550   4.436  0.00  0.00    -0.220 NA
ATOM     12  C   UNL     1       1.483  -2.699   4.754  0.00  0.00    +0.227 C 
ATOM     13  N   UNL     1       1.207  -3.864   4.119  0.00  0.00    -0.247 N 
ATOM     14  N   UNL     1       0.624  -3.890   2.966  0.00  0.00    -0.171 NA
ATOM     15  N   UNL     1       2.388  -2.724   5.795  0.00  0.00    -0.206 N 
ATOM     16  H   UNL     1       2.807  -3.560   6.053  0.00  0.00    +0.177 HD
ATOM     17  H   UNL     1       1.463  -4.700   4.539  0.00  0.00    +0.192 HD
ATOM     18  H   UNL     1      -0.003   0.563   2.817  0.00  0.00    +0.162 HD
ENDROOT
BRANCH  15  19
ATOM     19  N   UNL     1       2.703  -1.542   6.478  0.00  0.00    -0.187 NA
ATOM     20  C   UNL     1       3.555  -1.566   7.458  0.00  0.00    +0.142 C 
BRANCH  20  21
ATOM     21  C   UNL     1       3.886  -0.323   8.177  0.00  0.00    +0.037 A 
ATOM     22  C   UNL     1       4.806  -0.343   9.227  0.00  0.00    +0.027 A 
ATOM     23  C   UNL     1       5.112   0.825   9.896  0.00  0.00    +0.014 A 
ATOM     24  C   UNL     1       4.510   2.017   9.530  0.00  0.00    +0.018 A 
ATOM     25  C   UNL     1       3.597   2.049   8.492  0.00  0.00    +0.047 A 
ATOM     26  C   UNL     1       3.283   0.887   7.806  0.00  0.00    +0.126 A 
ATOM     27  I   UNL     1       6.492   0.794  11.472  0.00  0.00    -0.044 I 
BRANCH  26  28
ATOM     28  O   UNL     1       2.390   0.919   6.783  0.00  0.00    -0.506 OA
ATOM     29  H   UNL     1       1.474   0.775   7.056  0.00  0.00    +0.292 HD
ENDBRANCH  26  28
ENDBRANCH  20  21
ENDBRANCH  15  19
TORSDOF 3
