REMARK  Name = ZINC47836190
REMARK  5 active torsions:
REMARK  status: ('A' for Active; 'I' for Inactive)
REMARK    1  A    between atoms: C_6  and  C_7
REMARK    2  A    between atoms: C_7  and  N_8
REMARK    3  A    between atoms: C_9  and  C_11
REMARK    4  A    between atoms: C_11  and  C_12
REMARK    5  A    between atoms: C_12  and  N_13
REMARK                            x       y       z     vdW  Elec       q    Type
REMARK                         _______ _______ _______ _____ _____    ______ ____
ROOT
ATOM      1  N   UNL     1      -1.726  -1.017  -1.368  0.00  0.00    -0.311 N 
ATOM      2  C   UNL     1      -2.867  -1.694  -1.606  0.00  0.00    +0.215 C 
ATOM      3  O   UNL     1      -3.535  -2.102  -0.680  0.00  0.00    -0.276 OA
ATOM      4  H   UNL     1      -1.192  -0.691  -2.108  0.00  0.00    +0.149 HD
ENDROOT
BRANCH   1   5
ATOM      5  C   UNL     1      -1.293  -0.775   0.011  0.00  0.00    +0.139 C 
BRANCH   5  11
ATOM      6  C   UNL     1      -0.017   1.378   0.010  0.00  0.00    +0.006 A 
ATOM      7  C   UNL     1       1.171   2.086   0.002  0.00  0.00    +0.020 A 
ATOM      8  C   UNL     1       2.378   1.410  -0.013  0.00  0.00    +0.041 A 
ATOM      9  C   UNL     1       2.396   0.027  -0.021  0.00  0.00    +0.020 A 
ATOM     10  C   UNL     1       1.208  -0.679  -0.013  0.00  0.00    +0.006 A 
ATOM     11  C   UNL     1       0.002  -0.004   0.002  0.00  0.00    -0.030 A 
ATOM     12 CL   UNL     1       3.870   2.298  -0.023  0.00  0.00    -0.084 Cl
ENDBRANCH   5  11
ENDBRANCH   1   5
BRANCH   2  13
ATOM     13  C   UNL     1      -3.313  -1.943  -3.024  0.00  0.00    +0.114 C 
BRANCH  13  14
ATOM     14  C   UNL     1      -4.627  -2.726  -3.015  0.00  0.00    +0.115 C 
BRANCH  14  15
ATOM     15  N   UNL     1      -5.061  -2.968  -4.394  0.00  0.00    -0.299 N 
ATOM     16  C   UNL     1      -6.202  -3.645  -4.632  0.00  0.00    +0.297 C 
ATOM     17  O   UNL     1      -6.871  -4.054  -3.704  0.00  0.00    -0.253 OA
ATOM     18  N   UNL     1      -6.600  -3.868  -5.900  0.00  0.00    -0.313 N 
ATOM     19  H   UNL     1      -4.526  -2.642  -5.135  0.00  0.00    +0.150 HD
ATOM     20  H   UNL     1      -6.066  -3.541  -6.641  0.00  0.00    +0.146 HD
ATOM     21  H   UNL     1      -7.421  -4.355  -6.072  0.00  0.00    +0.146 HD
ENDBRANCH  14  15
ENDBRANCH  13  14
ENDBRANCH   2  13
TORSDOF 5
