REMARK  Name = ZINC20528370
REMARK  7 active torsions:
REMARK  status: ('A' for Active; 'I' for Inactive)
REMARK    1  A    between atoms: C_3  and  C_8
REMARK    2  A    between atoms: C_8  and  S_9
REMARK    3  A    between atoms: S_9  and  C_10
REMARK    4  A    between atoms: N_14  and  N_15
REMARK    5  A    between atoms: N_16  and  N_17
REMARK    6  A    between atoms: C_18  and  C_19
REMARK    7  A    between atoms: C_22  and  O_25
REMARK                            x       y       z     vdW  Elec       q    Type
REMARK                         _______ _______ _______ _____ _____    ______ ____
ROOT
ATOM      1  C   UNL     1      -3.882   5.806   0.051  0.00  0.00    +0.210 A 
ATOM      2  N   UNL     1      -4.523   4.661   0.048  0.00  0.00    -0.119 NA
ATOM      3  N   UNL     1      -3.571   3.632   0.033  0.00  0.00    -0.109 NA
ATOM      4  C   UNL     1      -2.381   4.182   0.036  0.00  0.00    +0.254 A 
ATOM      5  N   UNL     1      -2.542   5.540   0.044  0.00  0.00    -0.211 N 
ATOM      6  N   UNL     1      -1.170   3.505   0.027  0.00  0.00    -0.204 N 
ATOM      7  H   UNL     1      -0.225   4.068   0.025  0.00  0.00    +0.177 HD
ENDROOT
BRANCH   5   8
ATOM      8  N   UNL     1      -1.540   6.467   0.044  0.00  0.00    -0.294 N 
ATOM      9  H   UNL     1      -0.489   6.142   0.038  0.00  0.00    +0.163 HD
ATOM     10  H   UNL     1      -1.783   7.540   0.051  0.00  0.00    +0.163 HD
ENDBRANCH   5   8
BRANCH   6  11
ATOM     11  N   UNL     1      -1.151   2.104   0.019  0.00  0.00    -0.188 NA
ATOM     12  C   UNL     1      -0.018   1.470   0.010  0.00  0.00    +0.138 C 
BRANCH  12  13
ATOM     13  C   UNL     1       0.002  -0.004   0.002  0.00  0.00    -0.005 A 
ATOM     14  C   UNL     1      -1.197  -0.721   0.015  0.00  0.00    +0.013 A 
ATOM     15  C   UNL     1      -1.173  -2.099   0.002  0.00  0.00    +0.046 A 
ATOM     16  C   UNL     1       0.040  -2.775  -0.013  0.00  0.00    +0.117 A 
ATOM     17  C   UNL     1       1.234  -2.067  -0.021  0.00  0.00    +0.046 A 
ATOM     18  C   UNL     1       1.220  -0.688  -0.013  0.00  0.00    +0.013 A 
BRANCH  16  19
ATOM     19  O   UNL     1       0.058  -4.134  -0.020  0.00  0.00    -0.507 OA
ATOM     20  H   UNL     1       1.018  -4.671  -0.032  0.00  0.00    +0.292 HD
ENDBRANCH  16  19
ENDBRANCH  12  13
ENDBRANCH   6  11
BRANCH   1  21
ATOM     21  S   UNL     1      -4.620   7.405   0.064  0.00  0.00    -0.080 S 
BRANCH  21  22
ATOM     22  C   UNL     1      -6.402   7.066   0.069  0.00  0.00    +0.112 C 
BRANCH  22  25
ATOM     23  C   UNL     1      -8.212  10.166  -1.103  0.00  0.00    +0.001 A 
ATOM     24  C   UNL     1      -7.515   8.972  -1.112  0.00  0.00    +0.004 A 
ATOM     25  C   UNL     1      -7.162   8.368   0.080  0.00  0.00    -0.036 A 
ATOM     26  C   UNL     1      -7.509   8.956   1.282  0.00  0.00    +0.019 A 
ATOM     27  C   UNL     1      -8.202  10.153   1.291  0.00  0.00    +0.018 A 
ATOM     28  C   UNL     1      -8.556  10.756   0.098  0.00  0.00    +0.015 A 
ATOM     29 BR   UNL     1      -8.673  10.960   2.935  0.00  0.00    -0.050 Br
ENDBRANCH  22  25
ENDBRANCH  21  22
ENDBRANCH   1  21
TORSDOF 7
