REMARK  Name = ZINC32283722
REMARK  4 active torsions:
REMARK  status: ('A' for Active; 'I' for Inactive)
REMARK    1  A    between atoms: C_1  and  C_2
REMARK    2  A    between atoms: C_2  and  C_4
REMARK    3  A    between atoms: C_2  and  N_15
REMARK    4  A    between atoms: C_16  and  C_18
REMARK                            x       y       z     vdW  Elec       q    Type
REMARK                         _______ _______ _______ _____ _____    ______ ____
ROOT
ATOM      1  N   UNL     1      -1.763   8.040   0.062  0.00  0.00    -0.304 N 
ATOM      2  C   UNL     1      -2.440   6.875   0.062  0.00  0.00    +0.261 C 
ATOM      3  O   UNL     1      -3.656   6.878   0.073  0.00  0.00    -0.269 OA
ATOM      4  H   UNL     1      -0.663   8.037   0.052  0.00  0.00    +0.150 HD
ENDROOT
BRANCH   2   5
ATOM      5  C   UNL     1      -1.709   5.599   0.048  0.00  0.00    +0.103 A 
ATOM      6  C   UNL     1      -2.277   4.365   0.046  0.00  0.00    +0.041 A 
ATOM      7  C   UNL     1      -1.233   3.409   0.031  0.00  0.00    +0.003 A 
ATOM      8  C   UNL     1      -1.212   2.008   0.019  0.00  0.00    +0.048 A 
ATOM      9  C   UNL     1      -0.016   1.347   0.009  0.00  0.00    +0.124 A 
ATOM     10  C   UNL     1       1.183   2.053   0.002  0.00  0.00    +0.040 A 
ATOM     11  C   UNL     1       1.186   3.429   0.009  0.00  0.00    +0.029 A 
ATOM     12  C   UNL     1      -0.020   4.125   0.024  0.00  0.00    +0.047 A 
ATOM     13  N   UNL     1      -0.334   5.464   0.034  0.00  0.00    -0.351 N 
ATOM     14  H   UNL     1       0.306   6.359   0.034  0.00  0.00    +0.166 HD
ATOM     15  F   UNL     1       0.002  -0.004   0.002  0.00  0.00    -0.205 F 
ENDBRANCH   2   5
BRANCH   1  17
ATOM     16  C   UNL     1      -2.841   9.683   1.518  0.00  0.00    +0.033 C 
ATOM     17  C   UNL     1      -2.491   9.311   0.076  0.00  0.00    +0.101 C 
BRANCH  17  18
ATOM     18  C   UNL     1      -1.630  10.390  -0.527  0.00  0.00    -0.024 A 
ATOM     19  C   UNL     1      -0.277  10.430  -0.244  0.00  0.00    +0.009 A 
ATOM     20  C   UNL     1       0.521  11.418  -0.794  0.00  0.00    +0.050 A 
ATOM     21  C   UNL     1      -0.042  12.369  -1.629  0.00  0.00    +0.162 A 
ATOM     22  C   UNL     1      -1.399  12.329  -1.912  0.00  0.00    +0.162 A 
ATOM     23  C   UNL     1      -2.194  11.335  -1.365  0.00  0.00    +0.055 A 
ATOM     24  O   UNL     1      -1.944  13.271  -2.736  0.00  0.00    -0.488 OA
ATOM     25  C   UNL     1      -1.549  13.204  -4.108  0.00  0.00    +0.232 C 
ATOM     26  C   UNL     1      -0.234  13.936  -4.325  0.00  0.00    +0.082 C 
ATOM     27  C   UNL     1       0.923  13.277  -3.591  0.00  0.00    +0.232 C 
ATOM     28  O   UNL     1       0.733  13.349  -2.177  0.00  0.00    -0.488 OA
ENDBRANCH  17  18
ENDBRANCH   1  17
TORSDOF 3
