REMARK  Name = ZINC02463767
REMARK  8 active torsions:
REMARK  status: ('A' for Active; 'I' for Inactive)
REMARK    1  A    between atoms: C_1  and  N_2
REMARK    2  A    between atoms: N_7  and  C_10
REMARK    3  A    between atoms: N_11  and  C_14
REMARK    4  A    between atoms: C_14  and  C_15
REMARK    5  A    between atoms: C_15  and  C_17
REMARK    6  A    between atoms: C_15  and  O_26
REMARK    7  A    between atoms: C_17  and  N_18
REMARK    8  A    between atoms: N_18  and  C_19
REMARK                            x       y       z     vdW  Elec       q    Type
REMARK                         _______ _______ _______ _____ _____    ______ ____
ROOT
ATOM      1  C   UNL     1      -2.918  -3.920  -0.006  0.00  0.00    +0.156 C 
ENDROOT
BRANCH   1  12
ATOM      2  C   UNL     1      -0.018   1.461   0.010  0.00  0.00    +0.155 C 
ATOM      3  N   UNL     1       0.002  -0.004   0.002  0.00  0.00    -0.280 N 
ATOM      4  C   UNL     1      -1.189  -0.712   0.004  0.00  0.00    +0.168 A 
ATOM      5  C   UNL     1      -1.144  -2.100  -0.004  0.00  0.00    +0.152 A 
ATOM      6  C   UNL     1       0.111  -2.748  -0.013  0.00  0.00    +0.282 A 
ATOM      7  O   UNL     1       0.176  -3.964  -0.021  0.00  0.00    -0.265 OA
ATOM      8  N   UNL     1       1.236  -2.003  -0.015  0.00  0.00    -0.262 N 
ATOM      9  C   UNL     1       1.178  -0.660  -0.013  0.00  0.00    +0.333 A 
ATOM     10  O   UNL     1       2.213  -0.022  -0.020  0.00  0.00    -0.246 OA
ATOM     11  C   UNL     1       2.541  -2.668  -0.025  0.00  0.00    +0.157 C 
ATOM     12  N   UNL     1      -2.456  -2.530   0.000  0.00  0.00    -0.322 N 
ATOM     13  C   UNL     1      -3.231  -1.427   0.010  0.00  0.00    +0.202 A 
ATOM     14  N   UNL     1      -2.477  -0.358   0.012  0.00  0.00    -0.218 NA
ENDBRANCH   1  12
BRANCH   1  15
ATOM     15  C   UNL     1      -2.952  -4.452   1.428  0.00  0.00    +0.151 C 
BRANCH  15  16
ATOM     16  O   UNL     1      -1.623  -4.498   1.951  0.00  0.00    -0.388 OA
ATOM     17  H   UNL     1      -1.023  -5.066   1.450  0.00  0.00    +0.210 HD
ENDBRANCH  15  16
BRANCH  15  18
ATOM     18  C   UNL     1      -3.552  -5.860   1.435  0.00  0.00    +0.134 C 
BRANCH  18  19
ATOM     19  N   UNL     1      -3.696  -6.322   2.818  0.00  0.00    -0.341 N 
ATOM     20  H   UNL     1      -3.423  -5.749   3.552  0.00  0.00    +0.146 HD
BRANCH  19  21
ATOM     21  C   UNL     1      -4.225  -7.588   3.080  0.00  0.00    +0.027 A 
ATOM     22  C   UNL     1      -4.611  -8.412   2.030  0.00  0.00    +0.024 A 
ATOM     23  C   UNL     1      -5.134  -9.663   2.291  0.00  0.00    +0.017 A 
ATOM     24  C   UNL     1      -5.274 -10.096   3.598  0.00  0.00    +0.018 A 
ATOM     25  C   UNL     1      -4.891  -9.278   4.646  0.00  0.00    +0.017 A 
ATOM     26  C   UNL     1      -4.362  -8.028   4.390  0.00  0.00    +0.024 A 
ATOM     27 BR   UNL     1      -5.992 -11.809   3.952  0.00  0.00    -0.050 Br
ENDBRANCH  19  21
ENDBRANCH  18  19
ENDBRANCH  15  18
ENDBRANCH   1  15
TORSDOF 6
