REMARK  Name = ZINC08720143
REMARK  8 active torsions:
REMARK  status: ('A' for Active; 'I' for Inactive)
REMARK    1  A    between atoms: C_1  and  C_2
REMARK    2  A    between atoms: C_2  and  C_4
REMARK    3  A    between atoms: C_2  and  S_17
REMARK    4  A    between atoms: N_6  and  C_7
REMARK    5  A    between atoms: C_10  and  S_13
REMARK    6  A    between atoms: S_13  and  N_16
REMARK    7  A    between atoms: S_17  and  C_18
REMARK    8  A    between atoms: C_21  and  C_24
REMARK                            x       y       z     vdW  Elec       q    Type
REMARK                         _______ _______ _______ _____ _____    ______ ____
ROOT
ATOM      1  C   UNL     1       3.556  -1.780  -1.335  0.00  0.00    +0.029 C 
ATOM      2  C   UNL     1       4.103  -1.187  -0.035  0.00  0.00    +0.137 C 
ENDROOT
BRANCH   2   3
ATOM      3  C   UNL     1       5.579  -1.475   0.065  0.00  0.00    +0.230 C 
ATOM      4  O   UNL     1       6.386  -0.617  -0.226  0.00  0.00    -0.274 OA
ATOM      5  N   UNL     1       6.003  -2.686   0.479  0.00  0.00    -0.285 N 
ATOM      6  H   UNL     1       5.361  -3.349   0.775  0.00  0.00    +0.155 HD
BRANCH   5   7
ATOM      7  C   UNL     1       7.370  -2.986   0.480  0.00  0.00    +0.034 A 
ATOM      8  C   UNL     1       7.800  -4.273   0.188  0.00  0.00    +0.025 A 
ATOM      9  C   UNL     1       9.150  -4.565   0.185  0.00  0.00    +0.030 A 
ATOM     10  C   UNL     1      10.072  -3.579   0.483  0.00  0.00    +0.105 A 
ATOM     11  C   UNL     1       9.647  -2.297   0.780  0.00  0.00    +0.030 A 
ATOM     12  C   UNL     1       8.299  -1.998   0.779  0.00  0.00    +0.025 A 
BRANCH  10  13
ATOM     13  S   UNL     1      11.793  -3.957   0.484  0.00  0.00    +0.056 S 
ATOM     14  O   UNL     1      11.961  -5.088  -0.358  0.00  0.00    -0.153 OA
ATOM     15  O   UNL     1      12.478  -2.732   0.260  0.00  0.00    -0.153 OA
BRANCH  13  16
ATOM     16  N   UNL     1      12.186  -4.445   2.017  0.00  0.00    -0.204 NA
ATOM     17  H   UNL     1      12.905  -5.082   2.154  0.00  0.00    +0.144 HD
ATOM     18  H   UNL     1      11.698  -4.094   2.778  0.00  0.00    +0.144 HD
ENDBRANCH  13  16
ENDBRANCH  10  13
ENDBRANCH   5   7
ENDBRANCH   2   3
BRANCH   2  19
ATOM     19  S   UNL     1       3.836   0.603  -0.029  0.00  0.00    -0.075 S 
BRANCH  19  20
ATOM     20  C   UNL     1       2.075   0.650  -0.002  0.00  0.00    +0.167 A 
ATOM     21  N   UNL     1       1.311   1.776   0.013  0.00  0.00    -0.333 N 
ATOM     22  H   UNL     1       1.641   2.720   0.009  0.00  0.00    +0.168 HD
ATOM     23  C   UNL     1      -0.011   1.365   0.033  0.00  0.00    +0.067 A 
ATOM     24  C   UNL     1       0.005   0.006   0.030  0.00  0.00    +0.139 A 
ATOM     25  N   UNL     1       1.281  -0.398   0.009  0.00  0.00    -0.230 NA
BRANCH  23  26
ATOM     26  C   UNL     1      -1.206   2.234   0.048  0.00  0.00    -0.000 A 
ATOM     27  C   UNL     1      -1.063   3.623   0.054  0.00  0.00    +0.011 A 
ATOM     28  C   UNL     1      -2.182   4.429   0.062  0.00  0.00    +0.016 A 
ATOM     29  C   UNL     1      -3.446   3.863   0.076  0.00  0.00    +0.018 A 
ATOM     30  C   UNL     1      -3.595   2.487   0.075  0.00  0.00    +0.016 A 
ATOM     31  C   UNL     1      -2.483   1.670   0.061  0.00  0.00    +0.011 A 
ATOM     32 BR   UNL     1      -4.975   4.976   0.097  0.00  0.00    -0.050 Br
ENDBRANCH  23  26
ENDBRANCH  19  20
ENDBRANCH   2  19
TORSDOF 7
