REMARK  Name = ZINC44750347
REMARK  5 active torsions:
REMARK  status: ('A' for Active; 'I' for Inactive)
REMARK    1  A    between atoms: C_1  and  C_2
REMARK    2  A    between atoms: C_4  and  N_20
REMARK    3  A    between atoms: C_7  and  C_8
REMARK    4  A    between atoms: C_10  and  C_13
REMARK    5  A    between atoms: C_13  and  C_14
REMARK                            x       y       z     vdW  Elec       q    Type
REMARK                         _______ _______ _______ _____ _____    ______ ____
ROOT
ATOM      1  C   UNL     1       0.172   0.154   2.405  0.00  0.00    +0.259 A 
ATOM      2  N   UNL     1       0.376  -0.317   3.616  0.00  0.00    -0.192 NA
ATOM      3  C   UNL     1       0.388   0.685   4.498  0.00  0.00    +0.175 A 
ATOM      4  N   UNL     1       0.193   1.810   3.870  0.00  0.00    -0.061 NA
ATOM      5  O   UNL     1       0.054   1.490   2.493  0.00  0.00    -0.333 OA
ENDROOT
BRANCH   1  12
ATOM      6  C   UNL     1      -1.974   0.639   0.530  0.00  0.00    +0.044 C 
ATOM      7  C   UNL     1      -0.938  -0.419   0.252  0.00  0.00    -0.036 A 
ATOM      8  C   UNL     1      -1.005  -1.161  -0.906  0.00  0.00    +0.026 A 
ATOM      9  C   UNL     1      -0.049  -2.139  -1.164  0.00  0.00    +0.025 A 
ATOM     10  C   UNL     1       0.977  -2.369  -0.253  0.00  0.00    +0.023 A 
ATOM     11  C   UNL     1       1.050  -1.631   0.907  0.00  0.00    +0.015 A 
ATOM     12  C   UNL     1       0.094  -0.644   1.166  0.00  0.00    +0.042 A 
BRANCH   9  13
ATOM     13  N   UNL     1      -0.119  -2.888  -2.336  0.00  0.00    -0.358 N 
ATOM     14  H   UNL     1      -0.834  -2.728  -2.971  0.00  0.00    +0.142 HD
ATOM     15  H   UNL     1       0.547  -3.569  -2.516  0.00  0.00    +0.142 HD
ENDBRANCH   9  13
ENDBRANCH   1  12
BRANCH   3  16
ATOM     16  C   UNL     1       0.593   0.538   5.984  0.00  0.00    +0.111 C 
BRANCH  16  17
ATOM     17  C   UNL     1       2.086   0.633   6.304  0.00  0.00    +0.126 C 
ATOM     18  C   UNL     1       2.312   0.576   7.836  0.00  0.00    +0.034 C 
ATOM     19  C   UNL     1       3.769   0.042   7.899  0.00  0.00    +0.031 C 
ATOM     20  C   UNL     1       3.826  -0.901   6.678  0.00  0.00    +0.160 C 
ATOM     21  O   UNL     1       2.782  -0.507   5.777  0.00  0.00    -0.376 OA
ENDBRANCH  16  17
ENDBRANCH   3  16
TORSDOF 4
