REMARK  Name = ZINC35415709
REMARK  4 active torsions:
REMARK  status: ('A' for Active; 'I' for Inactive)
REMARK    1  A    between atoms: C_1  and  C_2
REMARK    2  A    between atoms: N_6  and  O_7
REMARK    3  A    between atoms: C_19  and  C_27
REMARK    4  A    between atoms: C_24  and  O_26
REMARK                            x       y       z     vdW  Elec       q    Type
REMARK                         _______ _______ _______ _____ _____    ______ ____
ROOT
ATOM      1  C   UNL     1      -0.019   1.526   0.010  0.00  0.00    +0.012 C 
ATOM      2  C   UNL     1       0.002  -0.004   0.002  0.00  0.00    -0.025 C 
ATOM      3  C   UNL     1      -1.434  -0.534   0.000  0.00  0.00    +0.013 C 
ATOM      4  C   UNL     1      -2.188   0.021   1.212  0.00  0.00    +0.055 C 
ATOM      5  C   UNL     1      -1.405  -0.325   2.459  0.00  0.00    +0.058 C 
ATOM      6  N   UNL     1      -1.970  -0.904   3.450  0.00  0.00    -0.097 NA
ATOM      7  C   UNL     1       0.062   0.034   2.502  0.00  0.00    +0.058 C 
ATOM      8  C   UNL     1       0.742  -0.511   1.241  0.00  0.00    +0.001 C 
ATOM      9  C   UNL     1       2.191  -0.019   1.217  0.00  0.00    +0.005 C 
ATOM     10  C   UNL     1       2.889  -0.524  -0.046  0.00  0.00    +0.004 C 
ATOM     11  C   UNL     1       2.151   0.010  -1.276  0.00  0.00    -0.004 C 
ATOM     12  C   UNL     1       0.712  -0.498  -1.262  0.00  0.00    -0.001 C 
ATOM     13  C   UNL     1       0.735  -2.031  -1.260  0.00  0.00    +0.005 C 
ATOM     14  C   UNL     1       1.381  -2.505  -2.562  0.00  0.00    +0.010 C 
ATOM     15  C   UNL     1       2.789  -1.974  -2.701  0.00  0.00    -0.003 C 
ATOM     16  C   UNL     1       2.865  -0.460  -2.545  0.00  0.00    +0.001 C 
ATOM     17  C   UNL     1       4.390  -0.270  -2.294  0.00  0.00    +0.007 C 
ATOM     18  C   UNL     1       4.764  -1.453  -1.375  0.00  0.00    +0.032 C 
ATOM     19  C   UNL     1       3.740  -2.536  -1.637  0.00  0.00    +0.121 C 
ATOM     20  C   UNL     1       3.324  -2.340  -4.087  0.00  0.00    +0.014 C 
ENDROOT
BRANCH   6  21
ATOM     21  O   UNL     1      -3.347  -1.230   3.389  0.00  0.00    -0.409 OA
ATOM     22  H   UNL     1      -3.683  -1.665   4.185  0.00  0.00    +0.328 HD
ENDBRANCH   6  21
BRANCH  19  23
ATOM     23  O   UNL     1       4.388  -3.712  -2.126  0.00  0.00    -0.391 OA
ATOM     24  H   UNL     1       5.003  -4.113  -1.497  0.00  0.00    +0.210 HD
ENDBRANCH  19  23
TORSDOF 2
