REMARK  Name = ZINC20295371
REMARK  7 active torsions:
REMARK  status: ('A' for Active; 'I' for Inactive)
REMARK    1  A    between atoms: C_1  and  C_2
REMARK    2  A    between atoms: C_6  and  C_8
REMARK    3  A    between atoms: C_8  and  C_10
REMARK    4  A    between atoms: C_8  and  N_11
REMARK    5  A    between atoms: C_12  and  C_14
REMARK    6  A    between atoms: C_17  and  O_21
REMARK    7  A    between atoms: O_21  and  C_22
REMARK                            x       y       z     vdW  Elec       q    Type
REMARK                         _______ _______ _______ _____ _____    ______ ____
ROOT
ATOM      1  N   UNL     1      -0.912  -4.242   1.143  0.00  0.00    -0.302 N 
ATOM      2  C   UNL     1      -1.445  -5.120   2.015  0.00  0.00    +0.250 C 
ATOM      3  O   UNL     1      -1.126  -5.083   3.188  0.00  0.00    -0.270 OA
ATOM      4  H   UNL     1      -1.167  -4.272   0.208  0.00  0.00    +0.150 HD
ENDROOT
BRANCH   2   5
ATOM      5  C   UNL     1      -2.416  -6.125   1.548  0.00  0.00    +0.107 A 
ATOM      6  C   UNL     1      -1.973  -7.379   1.108  0.00  0.00    +0.142 A 
ATOM      7  C   UNL     1      -2.886  -8.316   0.671  0.00  0.00    +0.085 A 
ATOM      8  C   UNL     1      -4.243  -8.018   0.667  0.00  0.00    +0.126 A 
ATOM      9  C   UNL     1      -4.689  -6.776   1.103  0.00  0.00    +0.085 A 
ATOM     10  C   UNL     1      -3.785  -5.833   1.548  0.00  0.00    +0.142 A 
ATOM     11  F   UNL     1      -4.221  -4.628   1.976  0.00  0.00    -0.204 F 
ATOM     12  F   UNL     1      -0.653  -7.670   1.110  0.00  0.00    -0.204 F 
BRANCH   8  13
ATOM     13  O   UNL     1      -5.137  -8.944   0.236  0.00  0.00    -0.495 OA
ATOM     14  C   UNL     1      -6.517  -8.572   0.258  0.00  0.00    +0.277 C 
ENDBRANCH   8  13
ENDBRANCH   2   5
BRANCH   1  15
ATOM     15  C   UNL     1       0.053  -3.243   1.608  0.00  0.00    +0.140 C 
ATOM     16  C   UNL     1       1.455  -3.856   1.622  0.00  0.00    +0.036 C 
BRANCH  15  22
ATOM     17  C   UNL     1      -0.018   1.503   0.010  0.00  0.00    +0.087 C 
ATOM     18  C   UNL     1       0.002  -0.004   0.002  0.00  0.00    +0.122 A 
ATOM     19  N   UNL     1       0.008  -0.787  -1.090  0.00  0.00    -0.263 N 
ATOM     20  H   UNL     1       0.001  -0.495  -2.015  0.00  0.00    +0.190 HD
ATOM     21  N   UNL     1       0.029  -2.113  -0.626  0.00  0.00    -0.156 NA
ATOM     22  C   UNL     1       0.034  -2.056   0.679  0.00  0.00    +0.171 A 
ATOM     23  N   UNL     1       0.023  -0.778   1.057  0.00  0.00    -0.215 NA
ENDBRANCH  15  22
ENDBRANCH   1  15
TORSDOF 4
