REMARK  Name = ZINC13463997
REMARK  5 active torsions:
REMARK  status: ('A' for Active; 'I' for Inactive)
REMARK    1  A    between atoms: C_4  and  S_8
REMARK    2  A    between atoms: S_8  and  N_11
REMARK    3  A    between atoms: N_11  and  C_12
REMARK    4  A    between atoms: C_15  and  O_20
REMARK    5  A    between atoms: C_17  and  C_18
REMARK                            x       y       z     vdW  Elec       q    Type
REMARK                         _______ _______ _______ _____ _____    ______ ____
ROOT
ATOM      1  N   UNL     1       2.396   1.108  -0.015  0.00  0.00    -0.215 N 
ATOM      2  H   UNL     1       3.163   1.480   0.447  0.00  0.00    +0.174 HD
ENDROOT
BRANCH   1   3
ATOM      3  C   UNL     1       1.203   1.820  -0.068  0.00  0.00    +0.062 A 
ATOM      4  C   UNL     1       0.072   1.334   0.576  0.00  0.00    +0.029 A 
ATOM      5  C   UNL     1      -1.113   2.038   0.519  0.00  0.00    +0.047 A 
ATOM      6  C   UNL     1      -1.183   3.243  -0.172  0.00  0.00    +0.118 A 
ATOM      7  C   UNL     1      -0.068   3.740  -0.818  0.00  0.00    +0.062 A 
ATOM      8  C   UNL     1       1.137   3.033  -0.771  0.00  0.00    +0.089 A 
BRANCH   8   9
ATOM      9  C   UNL     1       2.330   3.557  -1.458  0.00  0.00    +0.388 C 
ATOM     10  O   UNL     1       3.376   2.939  -1.415  0.00  0.00    -0.241 OA
ATOM     11  O   UNL     1       2.263   4.721  -2.132  0.00  0.00    -0.241 OA
ENDBRANCH   8   9
BRANCH   6  12
ATOM     12  O   UNL     1      -2.356   3.931  -0.217  0.00  0.00    -0.507 OA
ATOM     13  H   UNL     1      -2.924   3.692  -0.962  0.00  0.00    +0.292 HD
ENDBRANCH   6  12
ENDBRANCH   1   3
BRANCH   1  14
ATOM     14  S   UNL     1       2.507  -0.376  -0.742  0.00  0.00    +0.075 S 
ATOM     15  O   UNL     1       3.830  -0.842  -0.514  0.00  0.00    -0.150 OA
ATOM     16  O   UNL     1       1.360  -1.112  -0.339  0.00  0.00    -0.150 OA
BRANCH  14  20
ATOM     17  C   UNL     1       2.118   0.286  -5.205  0.00  0.00    +0.003 A 
ATOM     18  C   UNL     1       3.302  -0.195  -4.676  0.00  0.00    +0.002 A 
ATOM     19  C   UNL     1       3.422  -0.392  -3.313  0.00  0.00    +0.032 A 
ATOM     20  C   UNL     1       2.355  -0.118  -2.478  0.00  0.00    +0.143 A 
ATOM     21  C   UNL     1       1.170   0.363  -3.006  0.00  0.00    +0.150 A 
ATOM     22  C   UNL     1       1.052   0.565  -4.371  0.00  0.00    +0.040 A 
ATOM     23  F   UNL     1       0.128   0.636  -2.190  0.00  0.00    -0.203 F 
ENDBRANCH  14  20
ENDBRANCH   1  14
TORSDOF 5
