REMARK  Name = ZINC66733455
REMARK  9 active torsions:
REMARK  status: ('A' for Active; 'I' for Inactive)
REMARK    1  A    between atoms: C_1  and  C_2
REMARK    2  A    between atoms: C_2  and  N_3
REMARK    3  A    between atoms: C_4  and  C_29
REMARK    4  A    between atoms: C_5  and  C_9
REMARK    5  A    between atoms: C_6  and  C_8
REMARK    6  A    between atoms: C_9  and  N_10
REMARK    7  A    between atoms: C_11  and  C_13
REMARK    8  A    between atoms: N_21  and  C_22
REMARK    9  A    between atoms: C_26  and  C_28
REMARK                            x       y       z     vdW  Elec       q    Type
REMARK                         _______ _______ _______ _____ _____    ______ ____
ROOT
ATOM      1  C   UNL     1       0.911   0.132  -8.064  0.00  0.00    +0.078 C 
ATOM      2  C   UNL     1      -0.482   0.682  -7.750  0.00  0.00    +0.032 C 
ATOM      3  C   UNL     1      -0.573   2.134  -8.230  0.00  0.00    +0.110 C 
ATOM      4  N   UNL     1      -0.209   2.187  -9.652  0.00  0.00    -0.285 N 
ATOM      5  C   UNL     1       1.071   1.604 -10.076  0.00  0.00    +0.110 C 
ATOM      6  C   UNL     1       1.143   0.157  -9.576  0.00  0.00    +0.032 C 
ATOM      7  C   UNL     1      -1.035   2.758 -10.552  0.00  0.00    +0.306 C 
ATOM      8  O   UNL     1      -2.132   3.151 -10.206  0.00  0.00    -0.252 OA
ATOM      9  N   UNL     1      -0.644   2.894 -11.834  0.00  0.00    -0.269 N 
ATOM     10  H   UNL     1       0.199   2.513 -12.127  0.00  0.00    +0.156 HD
ENDROOT
BRANCH   9  11
ATOM     11  C   UNL     1      -1.453   3.586 -12.743  0.00  0.00    +0.035 A 
ATOM     12  C   UNL     1      -2.217   4.663 -12.314  0.00  0.00    +0.023 A 
ATOM     13  C   UNL     1      -3.014   5.343 -13.213  0.00  0.00    +0.002 A 
ATOM     14  C   UNL     1      -3.052   4.953 -14.540  0.00  0.00    +0.003 A 
ATOM     15  C   UNL     1      -2.292   3.881 -14.969  0.00  0.00    -0.049 A 
ATOM     16  C   UNL     1      -1.488   3.200 -14.076  0.00  0.00    +0.026 A 
ATOM     17  C   UNL     1      -2.337   3.459 -16.415  0.00  0.00    +0.044 C 
ENDBRANCH   9  11
BRANCH   1  19
ATOM     18  N   UNL     1       0.846  -1.552  -6.253  0.00  0.00    -0.311 N 
ATOM     19  C   UNL     1       1.016  -1.285  -7.563  0.00  0.00    +0.216 C 
ATOM     20  O   UNL     1       1.253  -2.187  -8.339  0.00  0.00    -0.276 OA
ATOM     21  H   UNL     1       0.657  -0.831  -5.632  0.00  0.00    +0.149 HD
BRANCH  18  22
ATOM     22  C   UNL     1       0.948  -2.930  -5.766  0.00  0.00    +0.143 C 
BRANCH  22  25
ATOM     23  N   UNL     1      -0.253  -3.074  -2.326  0.00  0.00    -0.268 N 
ATOM     24  C   UNL     1      -0.474  -3.106  -3.657  0.00  0.00    +0.041 A 
ATOM     25  C   UNL     1       0.719  -2.955  -4.277  0.00  0.00    +0.013 A 
ATOM     26  C   UNL     1       1.703  -2.826  -3.291  0.00  0.00    +0.065 A 
ATOM     27  N   UNL     1       1.121  -2.892  -2.121  0.00  0.00    -0.176 NA
ATOM     28  C   UNL     1       3.178  -2.638  -3.534  0.00  0.00    +0.068 C 
ATOM     29  C   UNL     1      -1.810  -3.279  -4.332  0.00  0.00    +0.065 C 
BRANCH  23  31
ATOM     30  C   UNL     1      -1.813  -1.817  -0.924  0.00  0.00    +0.029 C 
ATOM     31  C   UNL     1      -1.271  -3.202  -1.280  0.00  0.00    +0.140 C 
ENDBRANCH  23  31
ENDBRANCH  22  25
ENDBRANCH  18  22
ENDBRANCH   1  19
TORSDOF 5
