REMARK  Name = ZINC39500455
REMARK  7 active torsions:
REMARK  status: ('A' for Active; 'I' for Inactive)
REMARK    1  A    between atoms: C_1  and  C_2
REMARK    2  A    between atoms: C_4  and  C_8
REMARK    3  A    between atoms: C_8  and  C_9
REMARK    4  A    between atoms: C_9  and  N_10
REMARK    5  A    between atoms: C_11  and  C_13
REMARK    6  A    between atoms: N_16  and  C_19
REMARK    7  A    between atoms: N_22  and  C_25
REMARK                            x       y       z     vdW  Elec       q    Type
REMARK                         _______ _______ _______ _____ _____    ______ ____
ROOT
ATOM      1  C   UNL     1      -1.425  -7.056  -3.797  0.00  0.00    +0.071 C 
ATOM      2  C   UNL     1      -0.787  -6.423  -5.037  0.00  0.00    -0.006 C 
ATOM      3  C   UNL     1      -1.230  -7.195  -6.282  0.00  0.00    -0.078 C 
ATOM      4  N   UNL     1      -0.804  -8.595  -6.171  0.00  0.00    +0.382 N 
ATOM      5  C   UNL     1      -1.468  -9.229  -5.026  0.00  0.00    -0.078 C 
ATOM      6  C   UNL     1      -1.034  -8.536  -3.732  0.00  0.00    -0.006 C 
ATOM      7  H   UNL     1       0.196  -8.632  -6.042  0.00  0.00    -0.081 HD
ENDROOT
BRANCH   4   8
ATOM      8  C   UNL     1      -1.163  -9.313  -7.402  0.00  0.00    -0.066 C 
ATOM      9  C   UNL     1      -0.458  -8.664  -8.597  0.00  0.00    +0.000 C 
ATOM     10  C   UNL     1      -0.787  -9.453  -9.866  0.00  0.00    +0.088 C 
ATOM     11  N   UNL     1      -0.343 -10.843  -9.709  0.00  0.00    -0.252 NA
ATOM     12  C   UNL     1      -1.040 -11.502  -8.597  0.00  0.00    +0.088 C 
ATOM     13  C   UNL     1      -0.719 -10.774  -7.289  0.00  0.00    +0.000 C 
BRANCH  11  14
ATOM     14  C   UNL     1      -0.516 -11.596 -10.959  0.00  0.00    +0.340 C 
ATOM     15  N   UNL     1      -0.088 -12.989 -10.774  0.00  0.00    -0.294 N 
ATOM     16  C   UNL     1      -1.217 -13.783 -11.021  0.00  0.00    +0.073 A 
ATOM     17  C   UNL     1      -1.387 -15.161 -10.990  0.00  0.00    +0.027 A 
ATOM     18  C   UNL     1      -2.621 -15.712 -11.277  0.00  0.00    +0.002 A 
ATOM     19  C   UNL     1      -3.688 -14.892 -11.595  0.00  0.00    +0.004 A 
ATOM     20  C   UNL     1      -3.525 -13.520 -11.628  0.00  0.00    +0.048 A 
ATOM     21  C   UNL     1      -2.289 -12.956 -11.341  0.00  0.00    +0.145 A 
ATOM     22  O   UNL     1      -1.901 -11.651 -11.312  0.00  0.00    -0.456 OA
ATOM     23  H   UNL     1       0.799 -13.298 -10.529  0.00  0.00    +0.151 HD
ENDBRANCH  11  14
ENDBRANCH   4   8
BRANCH   1  25
ATOM     24  N   UNL     1      -1.163  -5.032  -2.399  0.00  0.00    -0.315 N 
ATOM     25  C   UNL     1      -0.931  -6.350  -2.560  0.00  0.00    +0.216 C 
ATOM     26  O   UNL     1      -0.326  -6.968  -1.710  0.00  0.00    -0.276 OA
ATOM     27  H   UNL     1      -1.647  -4.538  -3.079  0.00  0.00    +0.149 HD
BRANCH  24  28
ATOM     28  C   UNL     1      -0.683  -4.346  -1.197  0.00  0.00    +0.108 C 
BRANCH  28  29
ATOM     29  C   UNL     1      -1.075  -2.869  -1.262  0.00  0.00    +0.069 C 
BRANCH  29  33
ATOM     30  C   UNL     1      -0.018   1.503   0.010  0.00  0.00    +0.067 C 
ATOM     31  C   UNL     1       0.002  -0.004   0.002  0.00  0.00    +0.053 C 
ATOM     32  N   UNL     1      -1.044  -0.760   0.003  0.00  0.00    -0.261 NA
ATOM     33  C   UNL     1      -0.574  -2.152  -0.007  0.00  0.00    +0.222 C 
ATOM     34  N   UNL     1       0.893  -2.083  -0.013  0.00  0.00    -0.263 NA
ATOM     35  C   UNL     1       1.217  -0.834  -0.015  0.00  0.00    +0.130 C 
ENDBRANCH  29  33
ENDBRANCH  28  29
ENDBRANCH  24  28
ENDBRANCH   1  25
TORSDOF 6
