REMARK  Name = ZINC37425376
REMARK  6 active torsions:
REMARK  status: ('A' for Active; 'I' for Inactive)
REMARK    1  A    between atoms: C_1  and  C_2
REMARK    2  A    between atoms: C_3  and  C_18
REMARK    3  A    between atoms: C_4  and  S_8
REMARK    4  A    between atoms: C_5  and  C_7
REMARK    5  A    between atoms: S_8  and  N_11
REMARK    6  A    between atoms: N_11  and  C_12
REMARK                            x       y       z     vdW  Elec       q    Type
REMARK                         _______ _______ _______ _____ _____    ______ ____
ROOT
ATOM      1  C   UNL     1      -0.018   1.503   0.010  0.00  0.00    +0.087 C 
ATOM      2  C   UNL     1       0.002  -0.004   0.002  0.00  0.00    +0.118 A 
ATOM      3  C   UNL     1      -1.095  -0.819   0.003  0.00  0.00    +0.131 A 
ATOM      4  C   UNL     1      -0.567  -2.192  -0.007  0.00  0.00    +0.165 A 
ATOM      5  C   UNL     1       0.769  -2.073  -0.013  0.00  0.00    +0.130 A 
ATOM      6  O   UNL     1       1.095  -0.771  -0.013  0.00  0.00    -0.462 OA
ATOM      7  C   UNL     1       1.748  -3.219  -0.023  0.00  0.00    +0.088 C 
ENDROOT
BRANCH   4   8
ATOM      8  S   UNL     1      -1.499  -3.687  -0.011  0.00  0.00    +0.098 S 
ATOM      9  O   UNL     1      -0.654  -4.694   0.530  0.00  0.00    -0.148 OA
ATOM     10  O   UNL     1      -2.768  -3.377   0.547  0.00  0.00    -0.148 OA
BRANCH   8  11
ATOM     11  N   UNL     1      -1.765  -4.094  -1.594  0.00  0.00    -0.070 NA
BRANCH  11  12
ATOM     12  C   UNL     1      -2.482  -5.240  -1.904  0.00  0.00    +0.202 A 
ATOM     13  N   UNL     1      -3.025  -6.112  -1.082  0.00  0.00    -0.229 NA
ATOM     14  C   UNL     1      -3.683  -7.163  -1.540  0.00  0.00    +0.136 A 
ATOM     15  C   UNL     1      -3.769  -7.298  -2.886  0.00  0.00    +0.076 A 
ATOM     16  S   UNL     1      -2.873  -5.849  -3.423  0.00  0.00    -0.042 S 
ATOM     17 BR   UNL     1      -4.612  -8.644  -3.912  0.00  0.00    -0.041 Br
ENDBRANCH  11  12
ENDBRANCH   8  11
ENDBRANCH   4   8
BRANCH   3  18
ATOM     18  C   UNL     1      -2.506  -0.409   0.012  0.00  0.00    +0.392 C 
ATOM     19  O   UNL     1      -2.799   0.779   0.020  0.00  0.00    -0.240 OA
ATOM     20  O   UNL     1      -3.389  -1.257   0.012  0.00  0.00    -0.240 OA
ENDBRANCH   3  18
TORSDOF 4
