REMARK  Name = ZINC38519847
REMARK  4 active torsions:
REMARK  status: ('A' for Active; 'I' for Inactive)
REMARK    1  A    between atoms: C_1  and  N_2
REMARK    2  A    between atoms: C_8  and  C_10
REMARK    3  A    between atoms: C_10  and  C_15
REMARK    4  A    between atoms: C_22  and  C_28
REMARK                            x       y       z     vdW  Elec       q    Type
REMARK                         _______ _______ _______ _____ _____    ______ ____
ROOT
ATOM      1  C   UNL     1      -0.080   1.409  -0.068  0.00  0.00    +0.174 C 
ATOM      2  N   UNL     1      -0.068  -0.056  -0.056  0.00  0.00    -0.251 N 
ATOM      3  C   UNL     1      -0.094  -0.858  -1.137  0.00  0.00    +0.129 A 
ATOM      4  C   UNL     1      -0.057  -2.154  -0.696  0.00  0.00    +0.045 A 
ATOM      5  C   UNL     1      -0.020  -2.132   0.696  0.00  0.00    +0.153 A 
ATOM      6  N   UNL     1      -0.021  -0.874   1.085  0.00  0.00    -0.154 NA
ATOM      7  N   UNL     1       0.017  -3.253   1.536  0.00  0.00    -0.268 N 
ATOM      8  C   UNL     1       0.050  -3.092   2.873  0.00  0.00    +0.229 C 
ATOM      9  O   UNL     1       0.143  -1.980   3.348  0.00  0.00    -0.274 OA
ATOM     10  C   UNL     1      -0.050  -3.329  -1.640  0.00  0.00    +0.100 C 
ATOM     11  C   UNL     1      -0.783  -2.919  -2.922  0.00  0.00    +0.112 C 
ATOM     12  C   UNL     1      -0.367  -1.547  -3.372  0.00  0.00    +0.219 C 
ATOM     13  O   UNL     1      -0.236  -1.332  -4.558  0.00  0.00    -0.275 OA
ATOM     14  N   UNL     1      -0.135  -0.546  -2.496  0.00  0.00    -0.270 N 
ATOM     15  H   UNL     1       0.018  -4.145   1.154  0.00  0.00    +0.156 HD
ATOM     16  H   UNL     1       0.001   0.364  -2.804  0.00  0.00    +0.156 HD
ENDROOT
BRANCH   8  17
ATOM     17  C   UNL     1      -0.028  -4.293   3.779  0.00  0.00    +0.072 C 
ATOM     18  C   UNL     1      -1.308  -5.095   3.482  0.00  0.00    +0.021 C 
ATOM     19  C   UNL     1      -2.136  -5.101   4.784  0.00  0.00    +0.001 C 
ATOM     20  C   UNL     1      -1.642  -3.851   5.554  0.00  0.00    +0.001 C 
ATOM     21  C   UNL     1      -0.123  -3.841   5.251  0.00  0.00    +0.021 C 
BRANCH  17  22
ATOM     22  C   UNL     1       1.185  -5.166   3.585  0.00  0.00    -0.032 A 
ATOM     23  C   UNL     1       2.219  -4.740   2.773  0.00  0.00    +0.006 A 
ATOM     24  C   UNL     1       3.333  -5.539   2.594  0.00  0.00    +0.020 A 
ATOM     25  C   UNL     1       3.411  -6.767   3.228  0.00  0.00    +0.041 A 
ATOM     26  C   UNL     1       2.376  -7.192   4.041  0.00  0.00    +0.020 A 
ATOM     27  C   UNL     1       1.266  -6.389   4.223  0.00  0.00    +0.006 A 
ATOM     28 CL   UNL     1       4.809  -7.772   3.004  0.00  0.00    -0.084 Cl
ENDBRANCH  17  22
ENDBRANCH   8  17
BRANCH  10  29
ATOM     29  C   UNL     1      -0.756  -4.498  -1.002  0.00  0.00    +0.113 A 
ATOM     30  C   UNL     1      -0.209  -5.699  -0.741  0.00  0.00    +0.045 A 
ATOM     31  C   UNL     1      -1.220  -6.487  -0.144  0.00  0.00    +0.041 A 
ATOM     32  C   UNL     1      -2.323  -5.721  -0.077  0.00  0.00    +0.195 A 
ATOM     33  O   UNL     1      -2.035  -4.515  -0.593  0.00  0.00    -0.467 OA
ENDBRANCH  10  29
TORSDOF 3
