REMARK  Name = ZINC52646028
REMARK  10 active torsions:
REMARK  status: ('A' for Active; 'I' for Inactive)
REMARK    1  A    between atoms: C_1  and  C_2
REMARK    2  A    between atoms: C_2  and  C_4
REMARK    3  A    between atoms: C_2  and  N_14
REMARK    4  A    between atoms: C_7  and  S_10
REMARK    5  A    between atoms: S_10  and  N_13
REMARK    6  A    between atoms: C_15  and  C_17
REMARK    7  A    between atoms: N_19  and  C_20
REMARK    8  A    between atoms: N_19  and  C_21
REMARK    9  A    between atoms: C_26  and  O_27
REMARK   10  A    between atoms: O_27  and  C_28
REMARK                            x       y       z     vdW  Elec       q    Type
REMARK                         _______ _______ _______ _____ _____    ______ ____
ROOT
ATOM      1  N   UNL     1       0.685  -0.486  -1.201  0.00  0.00    -0.301 N 
ATOM      2  C   UNL     1       0.005  -0.611  -2.358  0.00  0.00    +0.300 C 
ATOM      3  O   UNL     1      -1.175  -0.332  -2.401  0.00  0.00    -0.265 OA
ATOM      4  H   UNL     1       1.629  -0.709  -1.166  0.00  0.00    +0.150 HD
ENDROOT
BRANCH   2   5
ATOM      5  C   UNL     1       0.705  -1.091  -3.587  0.00  0.00    +0.306 C 
ATOM      6  O   UNL     1       1.904  -1.279  -3.568  0.00  0.00    -0.265 OA
ATOM      7  N   UNL     1       0.004  -1.318  -4.716  0.00  0.00    -0.264 N 
ATOM      8  C   UNL     1       0.669  -1.893  -5.887  0.00  0.00    +0.139 C 
BRANCH   7   9
ATOM      9  C   UNL     1      -1.357  -1.003  -4.769  0.00  0.00    +0.078 A 
ATOM     10  C   UNL     1      -1.765   0.256  -5.190  0.00  0.00    +0.027 A 
ATOM     11  C   UNL     1      -3.111   0.564  -5.242  0.00  0.00    +0.002 A 
ATOM     12  C   UNL     1      -4.054  -0.378  -4.875  0.00  0.00    +0.004 A 
ATOM     13  C   UNL     1      -3.657  -1.634  -4.455  0.00  0.00    +0.047 A 
ATOM     14  C   UNL     1      -2.309  -1.953  -4.405  0.00  0.00    +0.141 A 
BRANCH  14  15
ATOM     15  O   UNL     1      -1.917  -3.190  -3.997  0.00  0.00    -0.493 OA
ATOM     16  C   UNL     1      -2.948  -4.112  -3.640  0.00  0.00    +0.277 C 
ENDBRANCH  14  15
ENDBRANCH   7   9
ENDBRANCH   2   5
BRANCH   1  18
ATOM     17  C   UNL     1      -0.014   1.516   0.018  0.00  0.00    +0.033 C 
ATOM     18  C   UNL     1      -0.001  -0.014   0.005  0.00  0.00    +0.101 C 
BRANCH  18  19
ATOM     19  C   UNL     1       0.723  -0.521   1.226  0.00  0.00    -0.027 A 
ATOM     20  C   UNL     1       2.105  -0.538   1.252  0.00  0.00    +0.007 A 
ATOM     21  C   UNL     1       2.769  -1.003   2.372  0.00  0.00    +0.029 A 
ATOM     22  C   UNL     1       2.051  -1.450   3.465  0.00  0.00    +0.105 A 
ATOM     23  C   UNL     1       0.669  -1.432   3.439  0.00  0.00    +0.029 A 
ATOM     24  C   UNL     1       0.005  -0.963   2.321  0.00  0.00    +0.007 A 
BRANCH  22  25
ATOM     25  S   UNL     1       2.898  -2.044   4.892  0.00  0.00    +0.056 S 
ATOM     26  O   UNL     1       1.998  -2.913   5.566  0.00  0.00    -0.153 OA
ATOM     27  O   UNL     1       4.182  -2.467   4.456  0.00  0.00    -0.153 OA
BRANCH  25  28
ATOM     28  N   UNL     1       3.141  -0.746   5.892  0.00  0.00    -0.204 NA
ATOM     29  H   UNL     1       2.828   0.134   5.630  0.00  0.00    +0.144 HD
ATOM     30  H   UNL     1       3.596  -0.866   6.740  0.00  0.00    +0.144 HD
ENDBRANCH  25  28
ENDBRANCH  22  25
ENDBRANCH  18  19
ENDBRANCH   1  18
TORSDOF 7
