REMARK  Name = ZINC44467456
REMARK  7 active torsions:
REMARK  status: ('A' for Active; 'I' for Inactive)
REMARK    1  A    between atoms: C_4  and  S_7
REMARK    2  A    between atoms: S_7  and  N_10
REMARK    3  A    between atoms: C_12  and  C_19
REMARK    4  A    between atoms: C_19  and  CA_20
REMARK    5  A    between atoms: CA_20  and  C_22
REMARK    6  A    between atoms: CA_20  and  N_24
REMARK    7  A    between atoms: C_22  and  O_23
REMARK                            x       y       z     vdW  Elec       q    Type
REMARK                         _______ _______ _______ _____ _____    ______ ____
ROOT
ATOM      1  N   UNL     1       4.378  -1.079   1.536  0.00  0.00    -0.218 N 
ATOM      2  C   UNL     1       4.492  -2.302   2.138  0.00  0.00    +0.116 A 
ATOM      3  C   UNL     1       4.869  -2.149   3.417  0.00  0.00    -0.022 A 
ATOM      4  C   UNL     1       5.008  -0.710   3.653  0.00  0.00    +0.005 A 
ATOM      5  C   UNL     1       4.693  -0.084   2.434  0.00  0.00    +0.072 A 
ATOM      6  C   UNL     1       4.743   1.304   2.348  0.00  0.00    +0.028 A 
ATOM      7  C   UNL     1       5.104   2.045   3.451  0.00  0.00    +0.002 A 
ATOM      8  C   UNL     1       5.418   1.422   4.651  0.00  0.00    +0.001 A 
ATOM      9  C   UNL     1       5.366   0.061   4.761  0.00  0.00    +0.010 A 
ENDROOT
BRANCH   1  10
ATOM     10  S   UNL     1       3.934  -0.832  -0.041  0.00  0.00    +0.084 S 
ATOM     11  O   UNL     1       3.674  -2.114  -0.595  0.00  0.00    -0.148 OA
ATOM     12  O   UNL     1       4.890   0.060  -0.597  0.00  0.00    -0.148 OA
BRANCH  10  16
ATOM     13  C   UNL     1      -0.017   1.378   0.010  0.00  0.00    +0.000 A 
ATOM     14  C   UNL     1       1.171   2.086   0.002  0.00  0.00    +0.002 A 
ATOM     15  C   UNL     1       2.377   1.411  -0.013  0.00  0.00    +0.029 A 
ATOM     16  C   UNL     1       2.396   0.029  -0.020  0.00  0.00    +0.111 A 
ATOM     17  C   UNL     1       1.208  -0.679  -0.012  0.00  0.00    +0.029 A 
ATOM     18  C   UNL     1       0.002  -0.004   0.002  0.00  0.00    +0.002 A 
ENDBRANCH  10  16
ENDBRANCH   1  10
BRANCH   3  19
ATOM     19  C   UNL     1       5.105  -3.249   4.420  0.00  0.00    +0.023 C 
BRANCH  19  20
ATOM     20  CA  UNL     1       3.835  -3.468   5.244  0.00  0.00    -0.045 C 
BRANCH  20  21
ATOM     21  N   UNL     1       3.557  -2.267   6.043  0.00  0.00    +0.382 N 
ATOM     22  H1  UNL     1       4.333  -2.088   6.662  0.00  0.00    -0.090 HD
ATOM     23  H2  UNL     1       3.427  -1.477   5.429  0.00  0.00    -0.090 HD
ATOM     24  H3  UNL     1       2.720  -2.411   6.587  0.00  0.00    -0.090 HD
ENDBRANCH  20  21
BRANCH  20  25
ATOM     25  C   UNL     1       4.031  -4.666   6.176  0.00  0.00    +0.140 C 
BRANCH  25  26
ATOM     26  O   UNL     1       2.808  -4.942   6.861  0.00  0.00    -0.397 OA
ATOM     27  H   UNL     1       2.860  -5.692   7.470  0.00  0.00    +0.209 HD
ENDBRANCH  25  26
ENDBRANCH  20  25
ENDBRANCH  19  20
ENDBRANCH   3  19
TORSDOF 7
