REMARK  Name = ZINC42791385
REMARK  5 active torsions:
REMARK  status: ('A' for Active; 'I' for Inactive)
REMARK    1  A    between atoms: C_1  and  C_2
REMARK    2  A    between atoms: C_2  and  C_3
REMARK    3  A    between atoms: C_2  and  S_16
REMARK    4  A    between atoms: C_3  and  N_5
REMARK    5  A    between atoms: S_16  and  C_17
REMARK                            x       y       z     vdW  Elec       q    Type
REMARK                         _______ _______ _______ _____ _____    ______ ____
ROOT
ATOM      1  N   UNL     1       2.060  -0.518   1.244  0.00  0.00    -0.146 NA
ATOM      2  C   UNL     1       2.704  -0.865   2.355  0.00  0.00    +0.198 A 
ATOM      3  N   UNL     1       2.119  -1.318   3.495  0.00  0.00    -0.326 N 
ATOM      4  H   UNL     1       1.167  -1.443   3.634  0.00  0.00    +0.169 HD
ATOM      5  C   UNL     1       3.120  -1.573   4.427  0.00  0.00    +0.065 A 
ATOM      6  C   UNL     1       3.101  -2.042   5.733  0.00  0.00    +0.028 A 
ATOM      7  C   UNL     1       4.285  -2.196   6.426  0.00  0.00    +0.002 A 
ATOM      8  C   UNL     1       5.492  -1.886   5.823  0.00  0.00    +0.002 A 
ATOM      9  C   UNL     1       5.522  -1.418   4.524  0.00  0.00    +0.028 A 
ATOM     10  C   UNL     1       4.338  -1.259   3.819  0.00  0.00    +0.065 A 
ATOM     11  N   UNL     1       4.051  -0.826   2.529  0.00  0.00    -0.326 N 
ATOM     12  H   UNL     1       4.702  -0.542   1.867  0.00  0.00    +0.169 HD
ENDROOT
BRANCH   1  13
ATOM     13  C   UNL     1       0.731  -0.490   1.227  0.00  0.00    +0.252 C 
ATOM     14  O   UNL     1       0.103  -0.871   2.196  0.00  0.00    -0.272 OA
BRANCH  13  16
ATOM     15  C   UNL     1      -0.002   1.545   0.014  0.00  0.00    +0.029 C 
ATOM     16  C   UNL     1       0.004   0.015   0.008  0.00  0.00    +0.131 C 
BRANCH  16  17
ATOM     17  S   UNL     1      -1.704  -0.596   0.027  0.00  0.00    -0.152 S 
ATOM     18  C   UNL     1      -2.388  -0.037  -1.558  0.00  0.00    +0.085 C 
ENDBRANCH  16  17
ENDBRANCH  13  16
ENDBRANCH   1  13
TORSDOF 3
