REMARK  Name = ZINC36937222
REMARK  4 active torsions:
REMARK  status: ('A' for Active; 'I' for Inactive)
REMARK    1  A    between atoms: C_1  and  C_2
REMARK    2  A    between atoms: C_3  and  C_8
REMARK    3  A    between atoms: C_6  and  N_7
REMARK    4  A    between atoms: C_13  and  C_14
REMARK                            x       y       z     vdW  Elec       q    Type
REMARK                         _______ _______ _______ _____ _____    ______ ____
ROOT
ATOM      1  C   UNL     1      -0.163  -0.514  -2.592  0.00  0.00    +0.016 A 
ATOM      2  C   UNL     1      -0.084   0.825  -2.966  0.00  0.00    +0.011 A 
ATOM      3  C   UNL     1      -0.178   1.174  -4.298  0.00  0.00    +0.001 A 
ATOM      4  C   UNL     1      -0.349   0.196  -5.261  0.00  0.00    +0.001 A 
ATOM      5  C   UNL     1      -0.428  -1.136  -4.896  0.00  0.00    +0.013 A 
ATOM      6  C   UNL     1      -0.330  -1.496  -3.567  0.00  0.00    +0.064 A 
ENDROOT
BRANCH   1   9
ATOM      7  C   UNL     1      -1.815   0.776  -0.214  0.00  0.00    +0.051 C 
ATOM      8  C   UNL     1      -0.794  -0.326  -0.098  0.00  0.00    +0.038 A 
ATOM      9  C   UNL     1      -0.062  -0.895  -1.161  0.00  0.00    +0.119 A 
ATOM     10  N   UNL     1       0.723  -1.821  -0.662  0.00  0.00    -0.076 NA
ATOM     11  O   UNL     1       0.512  -1.867   0.738  0.00  0.00    -0.339 OA
ATOM     12  C   UNL     1      -0.412  -0.942   1.050  0.00  0.00    +0.219 A 
BRANCH  12  13
ATOM     13  N   UNL     1      -0.892  -0.668   2.318  0.00  0.00    -0.327 N 
ATOM     14  H   UNL     1      -1.564   0.020   2.444  0.00  0.00    +0.145 HD
ATOM     15  H   UNL     1      -0.556  -1.165   3.081  0.00  0.00    +0.145 HD
ENDBRANCH  12  13
ENDBRANCH   1   9
BRANCH   6  16
ATOM     16  C   UNL     1      -0.410  -2.947  -3.170  0.00  0.00    +0.418 C 
ATOM     17  F   UNL     1      -0.577  -3.735  -4.314  0.00  0.00    -0.166 F 
ATOM     18  F   UNL     1       0.771  -3.318  -2.518  0.00  0.00    -0.166 F 
ATOM     19  F   UNL     1      -1.497  -3.137  -2.310  0.00  0.00    -0.166 F 
ENDBRANCH   6  16
TORSDOF 3
