REMARK  Name = ZINC04503790
REMARK  4 active torsions:
REMARK  status: ('A' for Active; 'I' for Inactive)
REMARK    1  A    between atoms: C_1  and  C_2
REMARK    2  A    between atoms: C_7  and  C_8
REMARK    3  A    between atoms: C_10  and  C_27
REMARK    4  A    between atoms: C_11  and  N_26
REMARK                            x       y       z     vdW  Elec       q    Type
REMARK                         _______ _______ _______ _____ _____    ______ ____
ROOT
ATOM      1  C   UNL     1       0.228   0.045   2.496  0.00  0.00    +0.098 C 
ATOM      2  C   UNL     1       1.594  -0.210   3.062  0.00  0.00    +0.077 C 
ATOM      3  C   UNL     1       1.778  -1.079   4.088  0.00  0.00    +0.109 C 
ATOM      4  N   UNL     1       0.701  -1.739   4.636  0.00  0.00    -0.228 N 
ATOM      5  C   UNL     1      -0.572  -1.262   4.457  0.00  0.00    +0.027 C 
ATOM      6  C   UNL     1      -0.849  -0.408   3.450  0.00  0.00    +0.025 C 
ATOM      7  C   UNL     1      -2.152   0.083   3.257  0.00  0.00    +0.162 C 
ATOM      8  O   UNL     1      -2.368   0.863   2.350  0.00  0.00    -0.292 OA
ATOM      9  C   UNL     1      -3.285  -0.338   4.153  0.00  0.00    +0.080 C 
ATOM     10  C   UNL     1      -2.995  -1.741   4.696  0.00  0.00    +0.014 C 
ATOM     11  C   UNL     1      -1.647  -1.712   5.415  0.00  0.00    +0.052 C 
ATOM     12  C   UNL     1       0.906  -2.906   5.380  0.00  0.00    +0.246 A 
ATOM     13  N   UNL     1       2.095  -3.407   5.729  0.00  0.00    -0.202 NA
ATOM     14  C   UNL     1       1.927  -4.505   6.420  0.00  0.00    +0.217 A 
ATOM     15  N   UNL     1       0.607  -4.734   6.531  0.00  0.00    -0.264 N 
ATOM     16  H   UNL     1       0.183  -5.476   6.990  0.00  0.00    +0.190 HD
ATOM     17  N   UNL     1      -0.037  -3.684   5.856  0.00  0.00    -0.136 NA
ENDROOT
BRANCH   1  24
ATOM     18  C   UNL     1      -0.033   1.497   0.013  0.00  0.00    +0.044 C 
ATOM     19  C   UNL     1      -0.041  -0.010   0.008  0.00  0.00    -0.046 A 
ATOM     20  C   UNL     1      -0.167  -0.697  -1.185  0.00  0.00    +0.003 A 
ATOM     21  C   UNL     1      -0.175  -2.079  -1.188  0.00  0.00    +0.000 A 
ATOM     22  C   UNL     1      -0.055  -2.774   0.001  0.00  0.00    +0.000 A 
ATOM     23  C   UNL     1       0.072  -2.087   1.193  0.00  0.00    +0.005 A 
ATOM     24  C   UNL     1       0.084  -0.705   1.197  0.00  0.00    -0.032 A 
ENDBRANCH   1  24
BRANCH   3  25
ATOM     25  N   UNL     1       3.041  -1.301   4.581  0.00  0.00    -0.345 N 
ATOM     26  H   UNL     1       3.801  -0.837   4.196  0.00  0.00    +0.144 HD
ATOM     27  H   UNL     1       3.174  -1.922   5.315  0.00  0.00    +0.144 HD
ENDBRANCH   3  25
BRANCH   2  28
ATOM     28  C   UNL     1       2.723   0.476   2.509  0.00  0.00    +0.099 C 
ATOM     29  N   UNL     1       3.619   1.020   2.071  0.00  0.00    -0.191 NA
ENDBRANCH   2  28
TORSDOF 3
