REMARK  Name = ZINC43407676
REMARK  4 active torsions:
REMARK  status: ('A' for Active; 'I' for Inactive)
REMARK    1  A    between atoms: C_1  and  C_2
REMARK    2  A    between atoms: C_2  and  C_3
REMARK    3  A    between atoms: C_11  and  C_19
REMARK    4  A    between atoms: N_20  and  O_21
REMARK                            x       y       z     vdW  Elec       q    Type
REMARK                         _______ _______ _______ _____ _____    ______ ____
ROOT
ATOM      1  C   UNL     1      -3.075   0.300   0.333  0.00  0.00    +0.100 C 
ATOM      2  C   UNL     1      -2.583  -0.408  -0.935  0.00  0.00    +0.182 C 
ATOM      3  O   UNL     1      -2.537  -1.817  -0.700  0.00  0.00    -0.376 OA
ATOM      4  C   UNL     1      -1.623  -2.210   0.326  0.00  0.00    +0.179 C 
ATOM      5  C   UNL     1      -2.064  -1.595   1.659  0.00  0.00    +0.135 C 
ATOM      6  N   UNL     1      -2.247  -0.147   1.465  0.00  0.00    -0.309 N 
ATOM      7  C   UNL     1      -1.656   0.768   2.322  0.00  0.00    +0.110 A 
ATOM      8  C   UNL     1      -2.306   1.127   3.513  0.00  0.00    +0.056 A 
ATOM      9  C   UNL     1      -1.688   2.051   4.359  0.00  0.00    +0.020 A 
ATOM     10  C   UNL     1      -0.460   2.574   3.986  0.00  0.00    -0.027 A 
ATOM     11  C   UNL     1       0.121   2.174   2.797  0.00  0.00    +0.021 A 
ATOM     12  N   UNL     1      -0.483   1.292   2.015  0.00  0.00    -0.346 N 
ATOM     13  C   UNL     1       1.449   2.881   2.618  0.00  0.00    +0.054 C 
ATOM     14  C   UNL     1       1.408   4.074   3.597  0.00  0.00    +0.011 C 
ATOM     15  C   UNL     1       0.433   3.575   4.685  0.00  0.00    +0.037 C 
ATOM     16  H   UNL     1      -0.052   1.025   1.188  0.00  0.00    +0.167 HD
ENDROOT
BRANCH   8  17
ATOM     17  C   UNL     1      -3.616   0.540   3.865  0.00  0.00    +0.166 C 
ATOM     18  N   UNL     1      -4.230  -0.235   3.019  0.00  0.00    -0.071 NA
ATOM     19  N   UNL     1      -4.190   0.816   5.095  0.00  0.00    -0.340 N 
ATOM     20  H   UNL     1      -3.733   1.394   5.726  0.00  0.00    +0.144 HD
ATOM     21  H   UNL     1      -5.050   0.431   5.326  0.00  0.00    +0.144 HD
BRANCH  18  22
ATOM     22  O   UNL     1      -5.532  -0.711   3.311  0.00  0.00    -0.408 OA
ATOM     23  H   UNL     1      -5.906  -1.279   2.623  0.00  0.00    +0.328 HD
ENDBRANCH  18  22
ENDBRANCH   8  17
BRANCH   1  25
ATOM     24  C   UNL     1      -3.904   2.293  -0.924  0.00  0.00    +0.006 C 
ATOM     25  C   UNL     1      -2.940   1.814   0.163  0.00  0.00    +0.021 C 
ENDBRANCH   1  25
TORSDOF 3
