REMARK  Name = ZINC65748539
REMARK  10 active torsions:
REMARK  status: ('A' for Active; 'I' for Inactive)
REMARK    1  A    between atoms: C_1  and  C_2
REMARK    2  A    between atoms: C_2  and  C_3
REMARK    3  A    between atoms: C_3  and  C_4
REMARK    4  A    between atoms: N_12  and  C_13
REMARK    5  A    between atoms: C_15  and  O_30
REMARK    6  A    between atoms: C_17  and  O_29
REMARK    7  A    between atoms: C_19  and  O_28
REMARK    8  A    between atoms: C_21  and  C_24
REMARK    9  A    between atoms: C_24  and  O_26
REMARK   10  A    between atoms: O_26  and  C_27
REMARK                            x       y       z     vdW  Elec       q    Type
REMARK                         _______ _______ _______ _____ _____    ______ ____
ROOT
ATOM      1  C   UNL     1      -1.181  -2.052   2.066  0.00  0.00    +0.253 C 
ATOM      2  C   UNL     1      -2.453  -2.261   1.239  0.00  0.00    +0.195 C 
ATOM      3  C   UNL     1      -3.574  -1.389   1.812  0.00  0.00    +0.179 C 
ATOM      4  C   UNL     1      -3.117   0.073   1.814  0.00  0.00    +0.185 C 
ATOM      5  C   UNL     1      -1.820   0.193   2.619  0.00  0.00    +0.260 C 
ATOM      6  O   UNL     1      -0.829  -0.667   2.053  0.00  0.00    -0.337 OA
ENDROOT
BRANCH   1  15
ATOM      7  C   UNL     1       0.395  -3.924   2.168  0.00  0.00    +0.029 A 
ATOM      8  C   UNL     1       1.399  -4.654   1.635  0.00  0.00    +0.091 A 
ATOM      9  C   UNL     1       1.935  -4.274   0.381  0.00  0.00    +0.252 A 
ATOM     10  O   UNL     1       2.839  -4.917  -0.121  0.00  0.00    -0.268 OA
ATOM     11  N   UNL     1       1.433  -3.195  -0.254  0.00  0.00    -0.303 N 
ATOM     12  H   UNL     1       1.795  -2.929  -1.113  0.00  0.00    +0.171 HD
ATOM     13  C   UNL     1       0.432  -2.486   0.301  0.00  0.00    +0.163 A 
ATOM     14  S   UNL     1      -0.190  -1.120  -0.521  0.00  0.00    -0.013 S 
ATOM     15  N   UNL     1      -0.089  -2.840   1.490  0.00  0.00    -0.296 N 
BRANCH   7  16
ATOM     16  C   UNL     1      -0.193  -4.307   3.502  0.00  0.00    +0.053 C 
BRANCH  16  18
ATOM     17  C   UNL     1      -0.054  -3.937   5.969  0.00  0.00    +0.004 C 
ATOM     18  C   UNL     1       0.455  -3.467   4.605  0.00  0.00    +0.003 C 
ENDBRANCH  16  18
ENDBRANCH   7  16
ENDBRANCH   1  15
BRANCH   5  19
ATOM     19  C   UNL     1      -1.332   1.618   2.577  0.00  0.00    +0.339 C 
ATOM     20  O   UNL     1      -0.288   1.883   2.030  0.00  0.00    -0.248 OA
BRANCH  19  21
ATOM     21  O   UNL     1      -2.058   2.592   3.148  0.00  0.00    -0.466 OA
ATOM     22  C   UNL     1      -1.535   3.920   3.071  0.00  0.00    +0.280 C 
ENDBRANCH  19  21
ENDBRANCH   5  19
BRANCH   4  23
ATOM     23  O   UNL     1      -2.889   0.505   0.471  0.00  0.00    -0.386 OA
ATOM     24  H   UNL     1      -2.597   1.424   0.398  0.00  0.00    +0.210 HD
ENDBRANCH   4  23
BRANCH   3  25
ATOM     25  O   UNL     1      -4.745  -1.524   1.003  0.00  0.00    -0.386 OA
ATOM     26  H   UNL     1      -5.496  -0.997   1.308  0.00  0.00    +0.210 HD
ENDBRANCH   3  25
BRANCH   2  27
ATOM     27  O   UNL     1      -2.839  -3.636   1.298  0.00  0.00    -0.385 OA
ATOM     28  H   UNL     1      -3.639  -3.841   0.795  0.00  0.00    +0.210 HD
ENDBRANCH   2  27
TORSDOF 8
