REMARK  Name = ZINC48687302
REMARK  4 active torsions:
REMARK  status: ('A' for Active; 'I' for Inactive)
REMARK    1  A    between atoms: C_1  and  C_2
REMARK    2  A    between atoms: C_2  and  C_4
REMARK    3  A    between atoms: C_6  and  C_10
REMARK    4  A    between atoms: C_16  and  C_18
REMARK                            x       y       z     vdW  Elec       q    Type
REMARK                         _______ _______ _______ _____ _____    ______ ____
ROOT
ATOM      1  C   UNL     1      -3.345  -3.764   0.021  0.00  0.00    +0.263 C 
ATOM      2  O   UNL     1      -2.639  -4.754  -0.015  0.00  0.00    -0.268 OA
ATOM      3  N   UNL     1      -4.682  -3.894   0.132  0.00  0.00    -0.288 N 
ATOM      4  C   UNL     1      -5.655  -2.786   0.147  0.00  0.00    +0.109 C 
ATOM      5  C   UNL     1      -6.891  -3.353   0.888  0.00  0.00    +0.021 C 
ATOM      6  C   UNL     1      -6.912  -4.820   0.382  0.00  0.00    +0.030 C 
ATOM      7  C   UNL     1      -5.413  -5.164   0.253  0.00  0.00    +0.123 C 
ENDROOT
BRANCH   1  10
ATOM      8  C   UNL     1      -1.272  -0.747  -0.117  0.00  0.00    +0.035 A 
ATOM      9  C   UNL     1      -1.408  -2.152  -0.011  0.00  0.00    +0.043 A 
ATOM     10  C   UNL     1      -2.741  -2.428  -0.056  0.00  0.00    +0.103 A 
ATOM     11  N   UNL     1      -3.427  -1.240  -0.186  0.00  0.00    -0.356 N 
ATOM     12  H   UNL     1      -4.392  -1.151  -0.242  0.00  0.00    +0.165 HD
ATOM     13  C   UNL     1      -2.552  -0.224  -0.218  0.00  0.00    +0.094 A 
BRANCH   8  15
ATOM     14  C   UNL     1      -0.044   1.513  -0.231  0.00  0.00    +0.091 C 
ATOM     15  C   UNL     1      -0.018   0.011  -0.115  0.00  0.00    +0.162 C 
ATOM     16  O   UNL     1       1.043  -0.571  -0.020  0.00  0.00    -0.292 OA
ENDBRANCH   8  15
ENDBRANCH   1  10
BRANCH   7  17
ATOM     17  C   UNL     1      -5.182  -6.007  -0.976  0.00  0.00    +0.037 A 
ATOM     18  C   UNL     1      -5.032  -5.545  -2.234  0.00  0.00    +0.024 A 
ATOM     19  C   UNL     1      -4.839  -6.661  -3.072  0.00  0.00    +0.019 A 
ATOM     20  C   UNL     1      -4.878  -7.762  -2.294  0.00  0.00    +0.083 A 
ATOM     21  N   UNL     1      -5.083  -7.366  -1.005  0.00  0.00    -0.363 N 
ATOM     22  H   UNL     1      -5.149  -7.955  -0.237  0.00  0.00    +0.165 HD
ENDBRANCH   7  17
TORSDOF 3
