REMARK  Name = ZINC64871494
REMARK  1 active torsions:
REMARK  status: ('A' for Active; 'I' for Inactive)
REMARK    1  A    between atoms: C_1  and  N_13
REMARK                            x       y       z     vdW  Elec       q    Type
REMARK                         _______ _______ _______ _____ _____    ______ ____
ROOT
ATOM      1  C   UNL     1      -0.017   1.397   0.010  0.00  0.00    +0.056 A 
ATOM      2  C   UNL     1       1.135   2.120   0.003  0.00  0.00    +0.068 A 
ATOM      3  C   UNL     1       2.392   1.457  -0.013  0.00  0.00    +0.117 A 
ATOM      4  C   UNL     1       2.409  -0.001  -0.021  0.00  0.00    +0.116 A 
ATOM      5  C   UNL     1       1.167  -0.694  -0.013  0.00  0.00    +0.062 A 
ATOM      6  C   UNL     1       0.002  -0.004   0.002  0.00  0.00    +0.056 A 
ATOM      7 BR   UNL     1      -1.634  -0.952   0.013  0.00  0.00    -0.047 Br
ATOM      8 BR   UNL     1       1.143  -2.585  -0.023  0.00  0.00    -0.047 Br
ATOM      9  N   UNL     1       3.642  -0.511  -0.036  0.00  0.00    -0.190 NA
ATOM     10  S   UNL     1       4.636   0.754  -0.039  0.00  0.00    +0.117 S 
ATOM     11  N   UNL     1       3.613   1.996  -0.022  0.00  0.00    -0.190 NA
ATOM     12 BR   UNL     1       1.064   4.010   0.013  0.00  0.00    -0.046 Br
ENDROOT
BRANCH   1  13
ATOM     13  N   UNL     1      -1.245   2.065   0.031  0.00  0.00    -0.356 N 
ATOM     14  H   UNL     1      -2.072   1.559   0.040  0.00  0.00    +0.142 HD
ATOM     15  H   UNL     1      -1.269   3.035   0.036  0.00  0.00    +0.142 HD
ENDBRANCH   1  13
TORSDOF 1
