REMARK  Name = ZINC39544394
REMARK  8 active torsions:
REMARK  status: ('A' for Active; 'I' for Inactive)
REMARK    1  A    between atoms: C_1  and  C_2
REMARK    2  A    between atoms: C_2  and  C_3
REMARK    3  A    between atoms: C_3  and  C_4
REMARK    4  A    between atoms: C_3  and  C_5
REMARK    5  A    between atoms: C_3  and  C_6
REMARK    6  A    between atoms: N_14  and  C_18
REMARK    7  A    between atoms: C_18  and  C_19
REMARK    8  A    between atoms: N_21  and  C_22
REMARK                            x       y       z     vdW  Elec       q    Type
REMARK                         _______ _______ _______ _____ _____    ______ ____
ROOT
ATOM      1  C   UNL     1       0.763  -2.041   1.233  0.00  0.00    -0.005 C 
ATOM      2  C   UNL     1      -0.673  -2.570   1.243  0.00  0.00    +0.006 C 
ATOM      3  C   UNL     1      -0.651  -4.101   1.222  0.00  0.00    +0.035 C 
ATOM      4  C   UNL     1       0.108  -4.618   2.440  0.00  0.00    +0.113 C 
ATOM      5  C   UNL     1       1.534  -4.078   2.457  0.00  0.00    +0.035 C 
ATOM      6  C   UNL     1       1.503  -2.547   2.473  0.00  0.00    +0.006 C 
ATOM      7  C   UNL     1      -0.615  -4.240   3.712  0.00  0.00    +0.247 C 
ATOM      8  O   UNL     1      -0.855  -3.123   4.116  0.00  0.00    -0.273 OA
ATOM      9  N   UNL     1      -0.937  -5.409   4.304  0.00  0.00    -0.215 N 
ATOM     10  C   UNL     1      -0.519  -6.458   3.584  0.00  0.00    +0.310 C 
ATOM     11  O   UNL     1      -0.693  -7.615   3.912  0.00  0.00    -0.252 OA
ATOM     12  N   UNL     1       0.114  -6.086   2.455  0.00  0.00    -0.285 N 
ATOM     13  H   UNL     1       0.499  -6.673   1.785  0.00  0.00    +0.151 HD
ENDROOT
BRANCH   1  14
ATOM     14  C   UNL     1       0.742  -0.511   1.242  0.00  0.00    -0.032 C 
ATOM     15  C   UNL     1       2.178   0.019   1.231  0.00  0.00    +0.011 C 
ATOM     16  C   UNL     1       0.026  -0.018   2.500  0.00  0.00    +0.011 C 
BRANCH  14  18
ATOM     17  C   UNL     1      -0.019   1.526   0.010  0.00  0.00    +0.004 C 
ATOM     18  C   UNL     1       0.002  -0.004   0.002  0.00  0.00    +0.003 C 
ENDBRANCH  14  18
ENDBRANCH   1  14
BRANCH   9  19
ATOM     19  C   UNL     1      -1.655  -5.518   5.577  0.00  0.00    +0.213 C 
BRANCH  19  20
ATOM     20  C   UNL     1      -3.138  -5.567   5.315  0.00  0.00    +0.231 C 
ATOM     21  O   UNL     1      -3.555  -5.517   4.177  0.00  0.00    -0.274 OA
ATOM     22  N   UNL     1      -4.001  -5.667   6.345  0.00  0.00    -0.317 N 
ATOM     23  C   UNL     1      -5.443  -5.715   6.090  0.00  0.00    +0.128 C 
ATOM     24  H   UNL     1      -3.667  -5.707   7.255  0.00  0.00    +0.148 HD
ENDBRANCH  19  20
ENDBRANCH   9  19
TORSDOF 4
