REMARK  Name = ZINC44608300
REMARK  5 active torsions:
REMARK  status: ('A' for Active; 'I' for Inactive)
REMARK    1  A    between atoms: C_1  and  C_2
REMARK    2  A    between atoms: C_1  and  O_17
REMARK    3  A    between atoms: C_4  and  O_16
REMARK    4  A    between atoms: C_6  and  O_15
REMARK    5  A    between atoms: C_10  and  O_13
REMARK                            x       y       z     vdW  Elec       q    Type
REMARK                         _______ _______ _______ _____ _____    ______ ____
ROOT
ATOM      1  C   UNL     1       0.002  -0.004   0.002  0.00  0.00    +0.178 C 
ATOM      2  C   UNL     1      -1.430  -0.533  -0.112  0.00  0.00    +0.175 C 
ATOM      3  C   UNL     1      -1.406  -2.064  -0.059  0.00  0.00    +0.168 C 
ATOM      4  C   UNL     1      -0.724  -2.509   1.238  0.00  0.00    +0.167 C 
ATOM      5  C   UNL     1       0.681  -1.903   1.300  0.00  0.00    +0.268 C 
ATOM      6  O   UNL     1       0.589  -0.479   1.215  0.00  0.00    -0.342 OA
ATOM      7 CL   UNL     1      -0.608  -4.308   1.272  0.00  0.00    -0.114 Cl
ENDROOT
BRANCH   5   8
ATOM      8  O   UNL     1       1.461  -2.396   0.209  0.00  0.00    -0.366 OA
ATOM      9  H   UNL     1       2.365  -2.053   0.186  0.00  0.00    +0.213 HD
ENDBRANCH   5   8
BRANCH   3  10
ATOM     10  O   UNL     1      -2.744  -2.565  -0.094  0.00  0.00    -0.388 OA
ATOM     11  H   UNL     1      -2.804  -3.529  -0.064  0.00  0.00    +0.210 HD
ENDBRANCH   3  10
BRANCH   2  12
ATOM     12  O   UNL     1      -2.213  -0.029   0.971  0.00  0.00    -0.387 OA
ATOM     13  H   UNL     1      -3.134  -0.325   0.962  0.00  0.00    +0.210 HD
ENDBRANCH   2  12
BRANCH   1  14
ATOM     14  C   UNL     1      -0.019   1.526   0.010  0.00  0.00    +0.190 C 
BRANCH  14  15
ATOM     15  O   UNL     1       1.322   2.020   0.000  0.00  0.00    -0.392 OA
ATOM     16  H   UNL     1       1.385   2.985   0.005  0.00  0.00    +0.210 HD
ENDBRANCH  14  15
ENDBRANCH   1  14
TORSDOF 5
