REMARK  Name = ZINC66245543
REMARK  7 active torsions:
REMARK  status: ('A' for Active; 'I' for Inactive)
REMARK    1  A    between atoms: C_1  and  C_2
REMARK    2  A    between atoms: C_4  and  C_10
REMARK    3  A    between atoms: C_6  and  C_9
REMARK    4  A    between atoms: C_7  and  O_8
REMARK    5  A    between atoms: C_10  and  N_11
REMARK    6  A    between atoms: N_13  and  C_14
REMARK    7  A    between atoms: C_14  and  C_15
REMARK                            x       y       z     vdW  Elec       q    Type
REMARK                         _______ _______ _______ _____ _____    ______ ____
ROOT
ATOM      1  N   UNL     1       1.410  -3.038  -2.948  0.00  0.00    -0.354 N 
ATOM      2  C   UNL     1       1.664  -3.703  -4.125  0.00  0.00    +0.169 C 
ATOM      3  N   UNL     1       2.894  -3.901  -4.508  0.00  0.00    -0.355 N 
ATOM      4  N   UNL     1       0.622  -4.158  -4.896  0.00  0.00    -0.371 N 
ATOM      5  H   UNL     1       2.146  -2.717  -2.404  0.00  0.00    +0.163 HD
ATOM      6  H   UNL     1      -0.294  -4.011  -4.610  0.00  0.00    +0.159 HD
ATOM      7  H   UNL     1       0.801  -4.627  -5.726  0.00  0.00    +0.159 HD
ATOM      8  H   UNL     1       3.630  -3.579  -3.964  0.00  0.00    +0.162 HD
ENDROOT
BRANCH   1   9
ATOM      9  C   UNL     1       0.028  -2.816  -2.516  0.00  0.00    +0.151 C 
BRANCH   9  13
ATOM     10  C   UNL     1      -0.018   1.503   0.010  0.00  0.00    +0.047 C 
ATOM     11  C   UNL     1       0.002  -0.004   0.002  0.00  0.00    -0.008 A 
ATOM     12  C   UNL     1       0.006  -0.689  -1.198  0.00  0.00    +0.012 A 
ATOM     13  C   UNL     1       0.024  -2.071  -1.206  0.00  0.00    -0.028 A 
ATOM     14  C   UNL     1       0.040  -2.772  -0.014  0.00  0.00    +0.012 A 
ATOM     15  C   UNL     1       0.036  -2.092   1.188  0.00  0.00    -0.008 A 
ATOM     16  C   UNL     1       0.023  -0.705   1.199  0.00  0.00    +0.123 A 
ATOM     17  C   UNL     1       0.052  -2.856   2.487  0.00  0.00    +0.047 C 
BRANCH  16  18
ATOM     18  O   UNL     1       0.025  -0.033   2.381  0.00  0.00    -0.506 OA
ATOM     19  H   UNL     1      -0.857   0.149   2.731  0.00  0.00    +0.292 HD
ENDBRANCH  16  18
ENDBRANCH   9  13
ENDBRANCH   1   9
BRANCH   3  20
ATOM     20  C   UNL     1       3.165  -4.608  -5.762  0.00  0.00    +0.147 C 
BRANCH  20  21
ATOM     21  C   UNL     1       4.677  -4.705  -5.977  0.00  0.00    +0.137 C 
ATOM     22  C   UNL     1       4.971  -5.342  -7.352  0.00  0.00    +0.035 C 
ATOM     23  C   UNL     1       6.191  -6.251  -7.040  0.00  0.00    +0.031 C 
ATOM     24  C   UNL     1       5.863  -6.697  -5.593  0.00  0.00    +0.160 C 
ATOM     25  O   UNL     1       5.257  -5.549  -4.974  0.00  0.00    -0.375 OA
ENDBRANCH  20  21
ENDBRANCH   3  20
TORSDOF 5
