REMARK  Name = ZINC13282089
REMARK  2 active torsions:
REMARK  status: ('A' for Active; 'I' for Inactive)
REMARK    1  A    between atoms: C_10  and  C_16
REMARK    2  A    between atoms: C_19  and  C_21
REMARK                            x       y       z     vdW  Elec       q    Type
REMARK                         _______ _______ _______ _____ _____    ______ ____
ROOT
ATOM      1  C   UNL     1      -0.017   1.373   0.010  0.00  0.00    +0.002 A 
ATOM      2  C   UNL     1       1.170   2.091   0.002  0.00  0.00    +0.002 A 
ATOM      3  C   UNL     1       2.384   1.436  -0.014  0.00  0.00    +0.028 A 
ATOM      4  C   UNL     1       2.425   0.050  -0.021  0.00  0.00    +0.072 A 
ATOM      5  C   UNL     1       1.223  -0.684  -0.013  0.00  0.00    +0.091 A 
ATOM      6  C   UNL     1       0.002  -0.004   0.002  0.00  0.00    +0.030 A 
ATOM      7  N   UNL     1       1.550  -2.004  -0.022  0.00  0.00    -0.212 NA
ATOM      8  C   UNL     1       2.851  -2.135  -0.024  0.00  0.00    +0.213 A 
ATOM      9  N   UNL     1       3.434  -0.883  -0.039  0.00  0.00    -0.284 N 
ATOM     10  C   UNL     1       4.890  -0.705  -0.078  0.00  0.00    +0.245 C 
ATOM     11  N   UNL     1       5.481  -1.943   0.460  0.00  0.00    -0.292 N 
ATOM     12  C   UNL     1       4.902  -3.152   0.182  0.00  0.00    +0.160 C 
ATOM     13  N   UNL     1       3.601  -3.262  -0.027  0.00  0.00    -0.302 N 
ATOM     14  N   UNL     1       5.686  -4.272   0.118  0.00  0.00    -0.332 N 
ATOM     15  H   UNL     1       6.279  -1.902   1.010  0.00  0.00    +0.151 HD
ATOM     16  H   UNL     1       6.642  -4.203   0.270  0.00  0.00    +0.145 HD
ATOM     17  H   UNL     1       5.287  -5.134  -0.078  0.00  0.00    +0.145 HD
ATOM     18  H   UNL     1       3.193  -4.129  -0.179  0.00  0.00    +0.171 HD
ENDROOT
BRANCH  10  19
ATOM     19  C   UNL     1       5.346  -0.488  -1.498  0.00  0.00    +0.147 A 
ATOM     20  C   UNL     1       5.641   0.703  -2.056  0.00  0.00    +0.049 A 
ATOM     21  C   UNL     1       6.021   0.451  -3.389  0.00  0.00    +0.050 A 
ATOM     22  C   UNL     1       5.935  -0.893  -3.574  0.00  0.00    +0.135 A 
ATOM     23  O   UNL     1       5.530  -1.450  -2.417  0.00  0.00    -0.456 OA
BRANCH  22  24
ATOM     24  C   UNL     1       6.240  -1.617  -4.826  0.00  0.00    +0.017 A 
ATOM     25  C   UNL     1       6.664  -0.916  -5.956  0.00  0.00    +0.012 A 
ATOM     26  C   UNL     1       6.947  -1.598  -7.121  0.00  0.00    +0.016 A 
ATOM     27  C   UNL     1       6.810  -2.975  -7.171  0.00  0.00    +0.018 A 
ATOM     28  C   UNL     1       6.390  -3.676  -6.054  0.00  0.00    +0.016 A 
ATOM     29  C   UNL     1       6.110  -3.006  -4.881  0.00  0.00    +0.012 A 
ATOM     30 BR   UNL     1       7.199  -3.902  -8.773  0.00  0.00    -0.050 Br
ENDBRANCH  22  24
ENDBRANCH  10  19
TORSDOF 2
