REMARK  Name = ZINC40312231
REMARK  3 active torsions:
REMARK  status: ('A' for Active; 'I' for Inactive)
REMARK    1  A    between atoms: C_11  and  C_13
REMARK    2  A    between atoms: C_15  and  N_20
REMARK    3  A    between atoms: C_17  and  N_19
REMARK                            x       y       z     vdW  Elec       q    Type
REMARK                         _______ _______ _______ _____ _____    ______ ____
ROOT
ATOM      1  C   UNL     1       0.552   1.320  -0.193  0.00  0.00    +0.002 A 
ATOM      2  C   UNL     1       1.459   2.025   0.577  0.00  0.00    +0.001 A 
ATOM      3  C   UNL     1       2.296   1.353   1.445  0.00  0.00    +0.016 A 
ATOM      4  C   UNL     1       2.229  -0.032   1.550  0.00  0.00    +0.029 A 
ATOM      5  C   UNL     1       1.312  -0.745   0.783  0.00  0.00    +0.050 A 
ATOM      6  C   UNL     1       0.477  -0.055  -0.093  0.00  0.00    +0.024 A 
ATOM      7  N   UNL     1       1.181  -2.133   0.860  0.00  0.00    -0.266 N 
ATOM      8  C   UNL     1       2.219  -3.001   1.408  0.00  0.00    +0.125 C 
ATOM      9  C   UNL     1       2.577  -2.513   2.820  0.00  0.00    +0.094 C 
ATOM     10  S   UNL     1       3.320  -0.861   2.661  0.00  0.00    -0.122 S 
ATOM     11  C   UNL     1       0.043  -2.697   0.409  0.00  0.00    +0.251 C 
ATOM     12  O   UNL     1      -0.887  -1.996   0.063  0.00  0.00    -0.270 OA
ENDROOT
BRANCH  11  13
ATOM     13  C   UNL     1      -0.072  -4.169   0.334  0.00  0.00    +0.041 A 
ATOM     14  C   UNL     1       1.024  -4.938  -0.055  0.00  0.00    +0.036 A 
ATOM     15  C   UNL     1       0.912  -6.319  -0.124  0.00  0.00    +0.027 A 
ATOM     16  C   UNL     1      -0.291  -6.936   0.194  0.00  0.00    +0.045 A 
ATOM     17  C   UNL     1      -1.385  -6.174   0.582  0.00  0.00    +0.027 A 
ATOM     18  C   UNL     1      -1.278  -4.793   0.659  0.00  0.00    +0.036 A 
BRANCH  17  19
ATOM     19  N   UNL     1      -2.593  -6.799   0.900  0.00  0.00    -0.358 N 
ATOM     20  H   UNL     1      -2.667  -7.764   0.850  0.00  0.00    +0.142 HD
ATOM     21  H   UNL     1      -3.357  -6.267   1.171  0.00  0.00    +0.142 HD
ENDBRANCH  17  19
BRANCH  15  22
ATOM     22  N   UNL     1       2.010  -7.090  -0.514  0.00  0.00    -0.358 N 
ATOM     23  H   UNL     1       2.870  -6.667  -0.665  0.00  0.00    +0.142 HD
ATOM     24  H   UNL     1       1.913  -8.047  -0.633  0.00  0.00    +0.142 HD
ENDBRANCH  15  22
ENDBRANCH  11  13
TORSDOF 3
