REMARK  Name = ZINC39994415
REMARK  7 active torsions:
REMARK  status: ('A' for Active; 'I' for Inactive)
REMARK    1  A    between atoms: C_1  and  C_2
REMARK    2  A    between atoms: C_2  and  O_3
REMARK    3  A    between atoms: O_3  and  C_4
REMARK    4  A    between atoms: C_7  and  N_10
REMARK    5  A    between atoms: C_11  and  N_26
REMARK    6  A    between atoms: C_12  and  C_16
REMARK    7  A    between atoms: N_18  and  C_19
REMARK                            x       y       z     vdW  Elec       q    Type
REMARK                         _______ _______ _______ _____ _____    ______ ____
ROOT
ATOM      1  N   UNL     1      -1.966  -5.930  -0.056  0.00  0.00    -0.285 N 
ATOM      2  C   UNL     1      -3.194  -6.483   0.058  0.00  0.00    +0.121 A 
ATOM      3  C   UNL     1      -3.248  -7.856   0.046  0.00  0.00    +0.115 A 
ATOM      4  S   UNL     1      -1.524  -8.279  -0.128  0.00  0.00    -0.055 S 
ATOM      5  C   UNL     1      -0.885  -6.725  -0.177  0.00  0.00    +0.132 A 
ATOM      6  S   UNL     1       0.755  -6.261  -0.340  0.00  0.00    -0.024 S 
ENDROOT
BRANCH   1  10
ATOM      7  C   UNL     1      -1.529  -1.782  -0.049  0.00  0.00    +0.121 A 
ATOM      8  C   UNL     1      -1.033  -2.529  -1.107  0.00  0.00    +0.047 A 
ATOM      9  C   UNL     1      -1.178  -3.903  -1.110  0.00  0.00    +0.030 A 
ATOM     10  C   UNL     1      -1.819  -4.535  -0.053  0.00  0.00    +0.050 A 
ATOM     11  C   UNL     1      -2.314  -3.786   1.006  0.00  0.00    +0.030 A 
ATOM     12  C   UNL     1      -2.164  -2.413   1.010  0.00  0.00    +0.047 A 
BRANCH   7  13
ATOM     13  O   UNL     1      -1.387  -0.429  -0.048  0.00  0.00    -0.492 OA
BRANCH  13  15
ATOM     14  C   UNL     1      -0.658   1.673  -0.991  0.00  0.00    +0.048 C 
ATOM     15  C   UNL     1      -0.722   0.155  -1.170  0.00  0.00    +0.225 C 
ENDBRANCH  13  15
ENDBRANCH   7  13
ENDBRANCH   1  10
BRANCH   3  16
ATOM     16  C   UNL     1      -4.370  -8.706   0.146  0.00  0.00    +0.258 C 
ATOM     17  O   UNL     1      -5.486  -8.231   0.261  0.00  0.00    -0.269 OA
ATOM     18  N   UNL     1      -4.207 -10.044   0.113  0.00  0.00    -0.280 N 
ATOM     19  H   UNL     1      -3.315 -10.424   0.106  0.00  0.00    +0.155 HD
BRANCH  18  20
ATOM     20  C   UNL     1      -5.325 -10.884   0.090  0.00  0.00    +0.052 A 
ATOM     21  C   UNL     1      -6.536 -10.418  -0.405  0.00  0.00    +0.025 A 
ATOM     22  C   UNL     1      -7.638 -11.250  -0.427  0.00  0.00    +0.002 A 
ATOM     23  C   UNL     1      -7.538 -12.547   0.044  0.00  0.00    +0.002 A 
ATOM     24  C   UNL     1      -6.334 -13.015   0.538  0.00  0.00    +0.022 A 
ATOM     25  C   UNL     1      -5.225 -12.189   0.556  0.00  0.00    +0.062 A 
ATOM     26 CL   UNL     1      -3.712 -12.780   1.170  0.00  0.00    -0.082 Cl
ENDBRANCH  18  20
ENDBRANCH   3  16
BRANCH   2  27
ATOM     27  N   UNL     1      -4.330  -5.713   0.179  0.00  0.00    -0.343 N 
ATOM     28  H   UNL     1      -4.270  -4.747   0.111  0.00  0.00    +0.144 HD
ATOM     29  H   UNL     1      -5.189  -6.136   0.334  0.00  0.00    +0.144 HD
ENDBRANCH   2  27
TORSDOF 6
