REMARK  Name = ZINC09167573
REMARK  11 active torsions:
REMARK  status: ('A' for Active; 'I' for Inactive)
REMARK    1  A    between atoms: C_1  and  C_2
REMARK    2  A    between atoms: C_2  and  CA_3
REMARK    3  A    between atoms: CA_3  and  C_5
REMARK    4  A    between atoms: CA_3  and  N_75
REMARK    5  A    between atoms: C_5  and  O_6
REMARK    6  A    between atoms: C_7  and  C_8
REMARK    7  A    between atoms: C_11  and  O_38
REMARK    8  A    between atoms: C_14  and  O_37
REMARK    9  A    between atoms: C_23  and  C_36
REMARK   10  A    between atoms: C_24  and  O_35
REMARK   11  A    between atoms: C_27  and  C_29
REMARK                            x       y       z     vdW  Elec       q    Type
REMARK                         _______ _______ _______ _____ _____    ______ ____
ROOT
ATOM      1  C   UNL     1       2.879   0.085   0.709  0.00  0.00    +0.036 C 
ATOM      2  C   UNL     1       3.812  -0.377   1.832  0.00  0.00    +0.018 C 
ATOM      3  C   UNL     1       3.770  -1.895   1.979  0.00  0.00    +0.032 C 
ATOM      4  C   UNL     1       2.344  -2.377   2.239  0.00  0.00    +0.117 C 
ATOM      5  C   UNL     1       1.418  -1.915   1.111  0.00  0.00    +0.067 C 
ATOM      6  C   UNL     1       1.457  -0.390   1.025  0.00  0.00    +0.079 C 
ATOM      7  C   UNL     1       0.458   0.116  -0.011  0.00  0.00    +0.036 C 
ATOM      8  C   UNL     1       0.480   1.651  -0.059  0.00  0.00    +0.009 C 
ATOM      9  C   UNL     1       1.900   2.092  -0.409  0.00  0.00    +0.025 C 
ATOM     10  C   UNL     1       2.854   1.621   0.681  0.00  0.00    +0.009 C 
ATOM     11  C   UNL     1       4.237   2.225   0.562  0.00  0.00    +0.005 C 
ATOM     12  C   UNL     1       4.231   3.758   0.456  0.00  0.00    +0.010 C 
ATOM     13  C   UNL     1       2.833   4.306   0.383  0.00  0.00    +0.004 C 
ATOM     14  C   UNL     1       2.030   3.558  -0.699  0.00  0.00    +0.075 C 
ATOM     15  C   UNL     1       0.736   4.383  -0.752  0.00  0.00    +0.036 C 
ATOM     16  C   UNL     1       1.262   5.843  -0.678  0.00  0.00    +0.011 C 
ATOM     17  C   UNL     1       2.672   5.776  -0.038  0.00  0.00    +0.027 C 
ATOM     18  C   UNL     1       2.157   4.232   1.764  0.00  0.00    +0.014 C 
ENDROOT
BRANCH  17  19
ATOM     19  C   UNL     1       3.732   6.234  -1.006  0.00  0.00    -0.022 C 
ATOM     20  C   UNL     1       3.588   6.402  -2.318  0.00  0.00    +0.094 C 
ATOM     21  C   UNL     1       4.855   6.859  -2.895  0.00  0.00    +0.332 C 
ATOM     22  O   UNL     1       5.039   7.099  -4.072  0.00  0.00    -0.246 OA
ATOM     23  O   UNL     1       5.786   6.972  -1.929  0.00  0.00    -0.457 OA
ATOM     24  C   UNL     1       5.160   6.597  -0.670  0.00  0.00    +0.264 C 
ENDBRANCH  17  19
BRANCH   1  25
ATOM     25  C   UNL     1       3.363  -0.463  -0.601  0.00  0.00    +0.060 C 
ATOM     26  N   UNL     1       2.541  -1.240  -1.270  0.00  0.00    -0.388 N 
ATOM     27  H   UNL     1       1.610  -1.450  -0.890  0.00  0.00    +0.159 HD
BRANCH  26  28
ATOM     28  CA  UNL     1       2.963  -1.823  -2.589  0.00  0.00    +0.104 C 
BRANCH  28  30
ATOM     29  C   UNL     1       2.123   0.160  -3.857  0.00  0.00    +0.006 C 
ATOM     30  C   UNL     1       1.979  -1.351  -3.661  0.00  0.00    +0.023 C 
ENDBRANCH  28  30
BRANCH  28  31
ATOM     31  C   UNL     1       2.908  -3.348  -2.482  0.00  0.00    +0.180 C 
BRANCH  31  32
ATOM     32  O   UNL     1       1.561  -3.760  -2.239  0.00  0.00    -0.393 OA
ATOM     33  H   UNL     1       1.450  -4.717  -2.159  0.00  0.00    +0.209 HD
ENDBRANCH  31  32
ENDBRANCH  28  31
ENDBRANCH  26  28
ENDBRANCH   1  25
BRANCH  14  34
ATOM     34  O   UNL     1       2.693   3.693  -1.977  0.00  0.00    -0.388 OA
ATOM     35  H   UNL     1       2.239   3.245  -2.704  0.00  0.00    +0.210 HD
ENDBRANCH  14  34
BRANCH   6  36
ATOM     36  O   UNL     1       1.076   0.137   2.308  0.00  0.00    -0.388 OA
ATOM     37  H   UNL     1       0.191  -0.127   2.594  0.00  0.00    +0.210 HD
ENDBRANCH   6  36
BRANCH   4  38
ATOM     38  O   UNL     1       2.329  -3.805   2.306  0.00  0.00    -0.392 OA
ATOM     39  H   UNL     1       2.886  -4.172   3.007  0.00  0.00    +0.210 HD
ENDBRANCH   4  38
TORSDOF 9
