REMARK  Name = ZINC33472022
REMARK  3 active torsions:
REMARK  status: ('A' for Active; 'I' for Inactive)
REMARK    1  A    between atoms: C_3  and  N_9
REMARK    2  A    between atoms: C_10  and  C_12
REMARK    3  A    between atoms: C_12  and  N_13
REMARK                            x       y       z     vdW  Elec       q    Type
REMARK                         _______ _______ _______ _____ _____    ______ ____
ROOT
ATOM      1  C   UNL     1       3.743  -0.965   0.176  0.00  0.00    +0.214 C 
ENDROOT
BRANCH   1   2
ATOM      2  N   UNL     1       3.501  -2.406   0.268  0.00  0.00    -0.215 N 
ATOM      3  C   UNL     1       3.415  -3.230  -0.797  0.00  0.00    +0.247 C 
ATOM      4  O   UNL     1       3.519  -2.930  -1.967  0.00  0.00    -0.273 OA
ATOM      5  C   UNL     1       3.161  -4.606  -0.224  0.00  0.00    +0.113 C 
ATOM      6  C   UNL     1       4.295  -5.554  -0.597  0.00  0.00    +0.035 C 
ATOM      7  C   UNL     1       4.033  -6.933   0.015  0.00  0.00    +0.003 C 
ATOM      8  C   UNL     1       2.700  -7.475  -0.504  0.00  0.00    +0.000 C 
ATOM      9  C   UNL     1       1.570  -6.526  -0.101  0.00  0.00    +0.003 C 
ATOM     10  C   UNL     1       1.822  -5.146  -0.713  0.00  0.00    +0.035 C 
ATOM     11  N   UNL     1       3.129  -4.387   1.228  0.00  0.00    -0.285 N 
ATOM     12  C   UNL     1       3.343  -3.071   1.419  0.00  0.00    +0.310 C 
ATOM     13  O   UNL     1       3.385  -2.546   2.514  0.00  0.00    -0.252 OA
ATOM     14  H   UNL     1       2.953  -5.234   1.908  0.00  0.00    +0.151 HD
ENDBRANCH   1   2
BRANCH   1  16
ATOM     15  N   UNL     1       2.402   1.105  -0.015  0.00  0.00    -0.283 N 
ATOM     16  C   UNL     1       2.426  -0.239   0.079  0.00  0.00    +0.235 C 
ATOM     17  O   UNL     1       1.387  -0.865   0.086  0.00  0.00    -0.274 OA
ATOM     18  H   UNL     1       3.345   1.667  -0.096  0.00  0.00    +0.155 HD
BRANCH  15  21
ATOM     19  C   UNL     1      -1.141   1.892  -0.607  0.00  0.00    +0.017 A 
ATOM     20  C   UNL     1       0.064   1.216  -0.608  0.00  0.00    +0.025 A 
ATOM     21  C   UNL     1       1.179   1.786  -0.010  0.00  0.00    +0.048 A 
ATOM     22  C   UNL     1       1.079   3.034   0.592  0.00  0.00    +0.040 A 
ATOM     23  C   UNL     1      -0.129   3.704   0.595  0.00  0.00    +0.032 A 
ATOM     24  C   UNL     1      -1.239   3.132  -0.002  0.00  0.00    +0.019 A 
ATOM     25 BR   UNL     1      -2.891   4.052   0.002  0.00  0.00    -0.050 Br
ATOM     26 BR   UNL     1       2.596   3.815   1.408  0.00  0.00    -0.048 Br
ENDBRANCH  15  21
ENDBRANCH   1  16
TORSDOF 3
