REMARK  Name = ZINC22854200
REMARK  6 active torsions:
REMARK  status: ('A' for Active; 'I' for Inactive)
REMARK    1  A    between atoms: C_1  and  C_2
REMARK    2  A    between atoms: C_2  and  C_3
REMARK    3  A    between atoms: C_8  and  O_26
REMARK    4  A    between atoms: C_9  and  C_11
REMARK    5  A    between atoms: C_11  and  C_13
REMARK    6  A    between atoms: C_11  and  N_20
REMARK                            x       y       z     vdW  Elec       q    Type
REMARK                         _______ _______ _______ _____ _____    ______ ____
ROOT
ATOM      1  C   UNL     1      -1.451   3.568   2.449  0.00  0.00    +0.129 C 
ENDROOT
BRANCH   1   8
ATOM      2  C   UNL     1      -1.723   9.516   2.768  0.00  0.00    +0.152 A 
ATOM      3  N   UNL     1      -0.561   8.969   2.417  0.00  0.00    -0.205 NA
ATOM      4  C   UNL     1      -0.684   7.670   2.399  0.00  0.00    +0.199 A 
ATOM      5  N   UNL     1      -1.955   7.326   2.744  0.00  0.00    -0.173 N 
ATOM      6  N   UNL     1      -2.599   8.570   2.977  0.00  0.00    -0.147 NA
ATOM      7  C   UNL     1      -2.261   5.987   2.770  0.00  0.00    +0.228 A 
ATOM      8  C   UNL     1      -1.331   5.070   2.476  0.00  0.00    +0.076 A 
ATOM      9  S   UNL     1       0.087   6.094   2.117  0.00  0.00    -0.047 S 
BRANCH   2  11
ATOM     10  C   UNL     1      -1.684  11.437   4.335  0.00  0.00    +0.012 C 
ATOM     11  C   UNL     1      -1.986  10.993   2.902  0.00  0.00    +0.075 C 
ENDBRANCH   2  11
BRANCH   7  12
ATOM     12  O   UNL     1      -3.518   5.588   3.102  0.00  0.00    -0.492 OA
ATOM     13  H   UNL     1      -3.768   4.517   3.124  0.00  0.00    +0.294 HD
ENDBRANCH   7  12
ENDBRANCH   1   8
BRANCH   1  14
ATOM     14  C   UNL     1      -0.766   2.987   3.659  0.00  0.00    -0.025 A 
ATOM     15  C   UNL     1       0.608   2.837   3.670  0.00  0.00    +0.006 A 
ATOM     16  C   UNL     1       1.237   2.309   4.781  0.00  0.00    +0.015 A 
ATOM     17  C   UNL     1       0.491   1.921   5.879  0.00  0.00    +0.018 A 
ATOM     18  C   UNL     1      -0.885   2.066   5.866  0.00  0.00    +0.015 A 
ATOM     19  C   UNL     1      -1.513   2.599   4.756  0.00  0.00    +0.006 A 
ATOM     20 BR   UNL     1       1.350   1.191   7.397  0.00  0.00    -0.050 Br
ENDBRANCH   1  14
BRANCH   1  21
ATOM     21  N   UNL     1      -0.817   3.048   1.230  0.00  0.00    -0.287 NA
ATOM     22  C   UNL     1      -0.731   1.580   1.266  0.00  0.00    +0.113 C 
ATOM     23  C   UNL     1      -0.013   1.086   0.008  0.00  0.00    +0.175 C 
ATOM     24  O   UNL     1      -0.706   1.560  -1.149  0.00  0.00    -0.377 OA
ATOM     25  C   UNL     1      -0.807   2.985  -1.216  0.00  0.00    +0.175 C 
ATOM     26  C   UNL     1      -1.534   3.499   0.029  0.00  0.00    +0.113 C 
ENDBRANCH   1  21
TORSDOF 5
