REMARK  Name = ZINC50671060
REMARK  6 active torsions:
REMARK  status: ('A' for Active; 'I' for Inactive)
REMARK    1  A    between atoms: C_1  and  C_2
REMARK    2  A    between atoms: C_2  and  C_4
REMARK    3  A    between atoms: C_2  and  N_10
REMARK    4  A    between atoms: N_10  and  S_11
REMARK    5  A    between atoms: S_11  and  C_14
REMARK    6  A    between atoms: C_19  and  N_20
REMARK                            x       y       z     vdW  Elec       q    Type
REMARK                         _______ _______ _______ _____ _____    ______ ____
ROOT
ATOM      1  S   UNL     1      -1.950  -0.959   1.349  0.00  0.00    +0.062 S 
ATOM      2  O   UNL     1      -3.200  -1.598   1.127  0.00  0.00    -0.153 OA
ATOM      3  O   UNL     1      -0.831  -1.643   1.896  0.00  0.00    -0.153 OA
ENDROOT
BRANCH   1   4
ATOM      4  C   UNL     1      -2.267   0.414   2.406  0.00  0.00    +0.146 A 
ATOM      5  C   UNL     1      -1.506   0.614   3.543  0.00  0.00    +0.048 A 
ATOM      6  C   UNL     1      -1.791   1.710   4.348  0.00  0.00    +0.038 A 
ATOM      7  C   UNL     1      -2.818   2.561   3.991  0.00  0.00    +0.128 A 
ATOM      8  N   UNL     1      -3.528   2.345   2.900  0.00  0.00    -0.238 NA
ATOM      9  C   UNL     1      -3.283   1.315   2.105  0.00  0.00    +0.143 A 
ATOM     10 BR   UNL     1      -0.783   2.032   5.915  0.00  0.00    -0.049 Br
BRANCH   9  11
ATOM     11  N   UNL     1      -4.052   1.130   0.961  0.00  0.00    -0.342 N 
ATOM     12  H   UNL     1      -3.862   0.390   0.364  0.00  0.00    +0.144 HD
ATOM     13  H   UNL     1      -4.779   1.740   0.761  0.00  0.00    +0.144 HD
ENDBRANCH   9  11
ENDBRANCH   1   4
BRANCH   1  14
ATOM     14  N   UNL     1      -1.464  -0.351  -0.113  0.00  0.00    -0.182 NA
ATOM     15  H   UNL     1      -2.005  -0.500  -0.904  0.00  0.00    +0.149 HD
BRANCH  14  17
ATOM     16  C   UNL     1      -0.510   1.790  -0.811  0.00  0.00    +0.031 C 
ATOM     17  C   UNL     1      -0.218   0.413  -0.210  0.00  0.00    +0.110 C 
BRANCH  17  18
ATOM     18  C   UNL     1       0.756  -0.324  -1.093  0.00  0.00    +0.009 A 
ATOM     19  C   UNL     1       2.092  -0.487  -0.939  0.00  0.00    +0.014 A 
ATOM     20  C   UNL     1       2.793  -1.212  -1.885  0.00  0.00    +0.028 A 
ATOM     21  C   UNL     1       2.121  -1.737  -2.940  0.00  0.00    +0.078 A 
ATOM     22  S   UNL     1       0.446  -1.216  -2.608  0.00  0.00    -0.080 S 
ATOM     23 CL   UNL     1       2.731  -2.679  -4.265  0.00  0.00    -0.076 Cl
ENDBRANCH  17  18
ENDBRANCH  14  17
ENDBRANCH   1  14
TORSDOF 5
