REMARK  Name = ZINC52009091
REMARK  4 active torsions:
REMARK  status: ('A' for Active; 'I' for Inactive)
REMARK    1  A    between atoms: C_1  and  C_2
REMARK    2  A    between atoms: N_6  and  C_7
REMARK    3  A    between atoms: C_13  and  O_15
REMARK    4  A    between atoms: C_19  and  O_21
REMARK                            x       y       z     vdW  Elec       q    Type
REMARK                         _______ _______ _______ _____ _____    ______ ____
ROOT
ATOM      1  C   UNL     1      -0.494   1.452   0.071  0.00  0.00    +0.063 C 
ATOM      2  C   UNL     1      -0.206  -0.026   0.029  0.00  0.00    +0.017 A 
ATOM      3  C   UNL     1      -0.220  -0.803  -1.076  0.00  0.00    +0.029 A 
ATOM      4  C   UNL     1       0.103  -2.107  -0.671  0.00  0.00    +0.002 A 
ATOM      5  C   UNL     1       0.302  -2.083   0.666  0.00  0.00    +0.025 A 
ATOM      6  N   UNL     1       0.120  -0.808   1.099  0.00  0.00    -0.342 N 
ATOM      7  C   UNL     1       0.667  -3.296   1.487  0.00  0.00    +0.054 C 
ATOM      8  C   UNL     1       0.361  -4.550   0.660  0.00  0.00    +0.009 C 
ATOM      9  C   UNL     1       0.984  -4.410  -0.732  0.00  0.00    +0.036 C 
ATOM     10  C   UNL     1       0.223  -3.342  -1.527  0.00  0.00    +0.146 C 
ENDROOT
BRANCH   6  11
ATOM     11  C   UNL     1       0.248  -0.350   2.485  0.00  0.00    +0.116 C 
ATOM     12  C   UNL     1       1.620  -0.751   3.030  0.00  0.00    +0.027 C 
ATOM     13  C   UNL     1       1.754  -0.273   4.477  0.00  0.00    +0.002 C 
ATOM     14  C   UNL     1       0.658  -0.916   5.330  0.00  0.00    +0.003 C 
ATOM     15  C   UNL     1      -0.714  -0.514   4.785  0.00  0.00    +0.033 C 
ATOM     16  C   UNL     1      -0.848  -0.993   3.338  0.00  0.00    +0.137 C 
BRANCH  16  17
ATOM     17  O   UNL     1      -2.129  -0.618   2.829  0.00  0.00    -0.390 OA
ATOM     18  H   UNL     1      -2.873  -0.991   3.322  0.00  0.00    +0.210 HD
ENDBRANCH  16  17
ENDBRANCH   6  11
BRANCH  10  19
ATOM     19  O   UNL     1       0.940  -3.031  -2.724  0.00  0.00    -0.387 OA
ATOM     20  H   UNL     1       1.053  -3.784  -3.321  0.00  0.00    +0.210 HD
ENDBRANCH  10  19
TORSDOF 3
