REMARK  Name = ZINC59171047
REMARK  8 active torsions:
REMARK  status: ('A' for Active; 'I' for Inactive)
REMARK    1  A    between atoms: C_1  and  C_2
REMARK    2  A    between atoms: C_2  and  C_3
REMARK    3  A    between atoms: C_2  and  C_4
REMARK    4  A    between atoms: C_2  and  C_5
REMARK    5  A    between atoms: C_9  and  C_24
REMARK    6  A    between atoms: N_11  and  C_12
REMARK    7  A    between atoms: C_21  and  O_23
REMARK    8  A    between atoms: C_24  and  N_26
REMARK                            x       y       z     vdW  Elec       q    Type
REMARK                         _______ _______ _______ _____ _____    ______ ____
ROOT
ATOM      1  C   UNL     1       1.663  -1.526   0.186  0.00  0.00    -0.038 A 
ATOM      2  C   UNL     1       1.588  -2.723  -0.491  0.00  0.00    +0.016 A 
ATOM      3  C   UNL     1       1.967  -2.785  -1.837  0.00  0.00    +0.022 A 
ATOM      4  C   UNL     1       1.905  -4.048  -2.576  0.00  0.00    +0.027 A 
ATOM      5  C   UNL     1       2.545  -4.100  -3.808  0.00  0.00    +0.064 A 
ATOM      6  C   UNL     1       3.231  -2.873  -4.261  0.00  0.00    +0.209 A 
ATOM      7  N   UNL     1       4.252  -2.933  -5.088  0.00  0.00    -0.323 N 
ATOM      8  O   UNL     1       2.775  -1.681  -3.798  0.00  0.00    -0.435 OA
ATOM      9  C   UNL     1       2.417  -1.624  -2.491  0.00  0.00    +0.179 A 
ATOM     10  C   UNL     1       2.487  -0.424  -1.790  0.00  0.00    +0.160 A 
ATOM     11  C   UNL     1       2.106  -0.381  -0.459  0.00  0.00    +0.053 A 
ATOM     12  H   UNL     1       4.624  -3.793  -5.337  0.00  0.00    +0.169 HD
ENDROOT
BRANCH   7  13
ATOM     13  C   UNL     1       4.789  -1.782  -5.597  0.00  0.00    +0.077 A 
ATOM     14  C   UNL     1       3.960  -0.817  -6.173  0.00  0.00    +0.028 A 
ATOM     15  C   UNL     1       4.508   0.342  -6.685  0.00  0.00    +0.002 A 
ATOM     16  C   UNL     1       5.875   0.548  -6.630  0.00  0.00    +0.003 A 
ATOM     17  C   UNL     1       6.704  -0.403  -6.062  0.00  0.00    +0.040 A 
ATOM     18  C   UNL     1       6.169  -1.565  -5.539  0.00  0.00    +0.147 A 
ATOM     19  F   UNL     1       6.978  -2.491  -4.979  0.00  0.00    -0.203 F 
ENDBRANCH   7  13
BRANCH   1  21
ATOM     20  C   UNL     1       1.426  -0.027   2.147  0.00  0.00    +0.015 C 
ATOM     21  C   UNL     1       1.256  -1.459   1.635  0.00  0.00    -0.013 C 
ATOM     22  C   UNL     1       2.138  -2.402   2.457  0.00  0.00    +0.015 C 
ATOM     23  C   UNL     1      -0.208  -1.880   1.774  0.00  0.00    +0.015 C 
ENDBRANCH   1  21
BRANCH  10  24
ATOM     24  O   UNL     1       2.924   0.704  -2.411  0.00  0.00    -0.503 OA
ATOM     25  H   UNL     1       2.221   1.219  -2.830  0.00  0.00    +0.292 HD
ENDBRANCH  10  24
BRANCH   5  26
ATOM     26  C   UNL     1       2.540  -5.323  -4.625  0.00  0.00    +0.082 C 
ATOM     27  S   UNL     1       3.234  -5.310  -6.190  0.00  0.00    -0.035 S 
BRANCH  26  28
ATOM     28  N   UNL     1       1.990  -6.454  -4.141  0.00  0.00    -0.352 N 
ATOM     29  H   UNL     1       1.597  -6.462  -3.254  0.00  0.00    +0.143 HD
ATOM     30  H   UNL     1       1.986  -7.261  -4.680  0.00  0.00    +0.143 HD
ENDBRANCH  26  28
ENDBRANCH   5  26
TORSDOF 5
