REMARK  Name = ZINC61820148
REMARK  3 active torsions:
REMARK  status: ('A' for Active; 'I' for Inactive)
REMARK    1  A    between atoms: C_3  and  N_11
REMARK    2  A    between atoms: C_6  and  C_7
REMARK    3  A    between atoms: N_8  and  O_9
REMARK                            x       y       z     vdW  Elec       q    Type
REMARK                         _______ _______ _______ _____ _____    ______ ____
ROOT
ATOM      1  C   UNL     1       0.006   1.346  -0.356  0.00  0.00    +0.016 A 
ATOM      2  C   UNL     1       1.203   2.031  -0.327  0.00  0.00    +0.044 A 
ATOM      3  C   UNL     1       2.355   1.371   0.094  0.00  0.00    +0.121 A 
ATOM      4  N   UNL     1       2.313   0.099   0.465  0.00  0.00    -0.240 NA
ATOM      5  C   UNL     1       1.191  -0.590   0.451  0.00  0.00    +0.124 A 
ATOM      6  C   UNL     1      -0.003   0.002   0.043  0.00  0.00    +0.036 A 
ENDROOT
BRANCH   3   7
ATOM      7  N   UNL     1       3.562   2.054   0.126  0.00  0.00    -0.315 N 
ATOM      8  C   UNL     1       4.827   1.331   0.319  0.00  0.00    +0.107 C 
ATOM      9  C   UNL     1       5.580   1.958   1.496  0.00  0.00    +0.026 C 
ATOM     10  C   UNL     1       5.746   3.459   1.249  0.00  0.00    -0.026 C 
ATOM     11  C   UNL     1       6.525   4.083   2.408  0.00  0.00    +0.007 C 
ATOM     12  C   UNL     1       7.904   3.427   2.508  0.00  0.00    +0.001 C 
ATOM     13  C   UNL     1       8.669   3.648   1.202  0.00  0.00    +0.000 C 
ATOM     14  C   UNL     1       7.890   3.024   0.043  0.00  0.00    +0.001 C 
ATOM     15  C   UNL     1       6.511   3.680  -0.057  0.00  0.00    +0.007 C 
ATOM     16  C   UNL     1       4.367   4.118   1.150  0.00  0.00    +0.026 C 
ATOM     17  C   UNL     1       3.602   3.514  -0.038  0.00  0.00    +0.107 C 
ENDBRANCH   3   7
BRANCH   6  18
ATOM     18  C   UNL     1      -1.260  -0.776   0.030  0.00  0.00    +0.164 C 
ATOM     19  N   UNL     1      -2.227  -0.437  -0.773  0.00  0.00    -0.071 NA
ATOM     20  N   UNL     1      -1.409  -1.865   0.872  0.00  0.00    -0.340 N 
ATOM     21  H   UNL     1      -0.689  -2.118   1.470  0.00  0.00    +0.144 HD
ATOM     22  H   UNL     1      -2.234  -2.375   0.864  0.00  0.00    +0.144 HD
BRANCH  19  23
ATOM     23  O   UNL     1      -2.027   0.587  -1.730  0.00  0.00    -0.408 OA
ATOM     24  H   UNL     1      -2.801   0.768  -2.280  0.00  0.00    +0.328 HD
ENDBRANCH  19  23
ENDBRANCH   6  18
TORSDOF 3
