REMARK  Name = ZINC67181456
REMARK  5 active torsions:
REMARK  status: ('A' for Active; 'I' for Inactive)
REMARK    1  A    between atoms: C_1  and  C_2
REMARK    2  A    between atoms: C_6  and  C_7
REMARK    3  A    between atoms: N_9  and  N_10
REMARK    4  A    between atoms: C_11  and  C_13
REMARK    5  A    between atoms: C_18  and  C_19
REMARK                            x       y       z     vdW  Elec       q    Type
REMARK                         _______ _______ _______ _____ _____    ______ ____
ROOT
ATOM      1  N   UNL     1       0.344  -0.752   4.909  0.00  0.00    -0.230 N 
ATOM      2  C   UNL     1       0.135  -1.629   5.911  0.00  0.00    +0.264 C 
ATOM      3  O   UNL     1      -0.035  -2.807   5.662  0.00  0.00    -0.269 OA
ATOM      4  H   UNL     1       0.479   0.188   5.107  0.00  0.00    +0.173 HD
ENDROOT
BRANCH   2   5
ATOM      5  C   UNL     1       0.112  -1.159   7.307  0.00  0.00    +0.083 A 
ATOM      6  C   UNL     1       0.178   0.148   7.740  0.00  0.00    +0.118 A 
ATOM      7  N   UNL     1       0.127   0.141   9.081  0.00  0.00    -0.283 N 
ATOM      8  H   UNL     1       0.155   0.930   9.645  0.00  0.00    +0.188 HD
ATOM      9  N   UNL     1       0.026  -1.175   9.541  0.00  0.00    -0.173 NA
ATOM     10  C   UNL     1       0.007  -1.989   8.511  0.00  0.00    +0.105 A 
BRANCH  10  11
ATOM     11  C   UNL     1      -0.097  -3.468   8.557  0.00  0.00    +0.003 A 
ATOM     12  C   UNL     1       0.722  -4.252   7.746  0.00  0.00    +0.010 A 
ATOM     13  C   UNL     1       0.621  -5.628   7.793  0.00  0.00    +0.001 A 
ATOM     14  C   UNL     1      -0.290  -6.228   8.643  0.00  0.00    +0.000 A 
ATOM     15  C   UNL     1      -1.106  -5.455   9.450  0.00  0.00    +0.001 A 
ATOM     16  C   UNL     1      -1.009  -4.079   9.415  0.00  0.00    +0.010 A 
ENDBRANCH  10  11
ENDBRANCH   2   5
BRANCH   1  19
ATOM     17  C   UNL     1       0.575  -0.322   2.579  0.00  0.00    +0.267 C 
ATOM     18  O   UNL     1       0.745   0.858   2.827  0.00  0.00    -0.268 OA
ATOM     19  N   UNL     1       0.366  -1.198   3.581  0.00  0.00    -0.230 N 
ATOM     20  H   UNL     1       0.231  -2.138   3.383  0.00  0.00    +0.173 HD
BRANCH  17  26
ATOM     21  C   UNL     1       1.030   1.428   0.042  0.00  0.00    +0.045 C 
ATOM     22  C   UNL     1       0.795  -0.061   0.026  0.00  0.00    -0.031 A 
ATOM     23  C   UNL     1       0.768  -0.784  -1.143  0.00  0.00    +0.011 A 
ATOM     24  C   UNL     1       0.552  -2.121  -1.085  0.00  0.00    +0.046 A 
ATOM     25  S   UNL     1       0.379  -2.440   0.555  0.00  0.00    -0.092 S 
ATOM     26  C   UNL     1       0.598  -0.789   1.189  0.00  0.00    +0.078 A 
ENDBRANCH  17  26
ENDBRANCH   1  19
TORSDOF 4
