REMARK  Name = ZINC49192921
REMARK  11 active torsions:
REMARK  status: ('A' for Active; 'I' for Inactive)
REMARK    1  A    between atoms: C_1  and  C_2
REMARK    2  A    between atoms: C_2  and  C_3
REMARK    3  A    between atoms: C_2  and  C_4
REMARK    4  A    between atoms: C_4  and  C_6
REMARK    5  A    between atoms: C_4  and  N_10
REMARK    6  A    between atoms: C_6  and  N_7
REMARK    7  A    between atoms: N_7  and  C_8
REMARK    8  A    between atoms: N_7  and  C_9
REMARK    9  A    between atoms: N_10  and  S_11
REMARK   10  A    between atoms: S_11  and  C_14
REMARK   11  A    between atoms: C_15  and  N_22
REMARK                            x       y       z     vdW  Elec       q    Type
REMARK                         _______ _______ _______ _____ _____    ______ ____
ROOT
ATOM      1  S   UNL     1      -4.264   1.290  -0.715  0.00  0.00    +0.062 S 
ATOM      2  O   UNL     1      -5.095   1.859  -1.717  0.00  0.00    -0.153 OA
ATOM      3  O   UNL     1      -4.791   0.666   0.448  0.00  0.00    -0.153 OA
ENDROOT
BRANCH   1   4
ATOM      4  C   UNL     1      -3.196   2.575  -0.157  0.00  0.00    +0.144 A 
ATOM      5  C   UNL     1      -2.694   2.549   1.139  0.00  0.00    +0.054 A 
ATOM      6  C   UNL     1      -1.852   3.563   1.575  0.00  0.00    +0.044 A 
ATOM      7  C   UNL     1      -1.515   4.596   0.720  0.00  0.00    +0.044 A 
ATOM      8  C   UNL     1      -2.016   4.619  -0.570  0.00  0.00    +0.042 A 
ATOM      9  C   UNL     1      -2.851   3.607  -1.009  0.00  0.00    +0.070 A 
ATOM     10 CL   UNL     1      -3.471   3.636  -2.630  0.00  0.00    -0.081 Cl
ATOM     11 CL   UNL     1      -0.463   5.864   1.264  0.00  0.00    -0.083 Cl
BRANCH   5  12
ATOM     12  N   UNL     1      -3.037   1.505   2.001  0.00  0.00    -0.356 N 
ATOM     13  H   UNL     1      -3.317   0.649   1.639  0.00  0.00    +0.142 HD
ATOM     14  H   UNL     1      -2.996   1.635   2.961  0.00  0.00    +0.142 HD
ENDBRANCH   5  12
ENDBRANCH   1   4
BRANCH   1  15
ATOM     15  N   UNL     1      -3.318   0.160  -1.470  0.00  0.00    -0.188 NA
ATOM     16  H   UNL     1      -3.426  -0.007  -2.419  0.00  0.00    +0.148 HD
BRANCH  15  17
ATOM     17  C   UNL     1      -2.317  -0.588  -0.704  0.00  0.00    +0.063 C 
BRANCH  17  19
ATOM     18  C   UNL     1      -0.677   1.245  -1.149  0.00  0.00    +0.009 C 
ATOM     19  C   UNL     1      -0.920  -0.263  -1.238  0.00  0.00    -0.000 C 
ATOM     20  C   UNL     1       0.129  -0.999  -0.402  0.00  0.00    +0.009 C 
ENDBRANCH  17  19
BRANCH  17  21
ATOM     21  C   UNL     1      -2.582  -2.088  -0.847  0.00  0.00    -0.059 C 
BRANCH  21  22
ATOM     22  N   UNL     1      -3.964  -2.381  -0.446  0.00  0.00    +0.377 N 
ATOM     23  C   UNL     1      -4.256  -3.799  -0.695  0.00  0.00    -0.097 C 
ATOM     24  C   UNL     1      -4.132  -2.091   0.984  0.00  0.00    -0.097 C 
ATOM     25  H   UNL     1      -4.598  -1.808  -0.982  0.00  0.00    -0.083 HD
ENDBRANCH  21  22
ENDBRANCH  17  21
ENDBRANCH  15  17
ENDBRANCH   1  15
TORSDOF 7
