REMARK  Name = ZINC37934337
REMARK  5 active torsions:
REMARK  status: ('A' for Active; 'I' for Inactive)
REMARK    1  A    between atoms: C_2  and  N_18
REMARK    2  A    between atoms: C_4  and  S_14
REMARK    3  A    between atoms: C_6  and  S_7
REMARK    4  A    between atoms: S_7  and  C_8
REMARK    5  A    between atoms: S_14  and  N_17
REMARK                            x       y       z     vdW  Elec       q    Type
REMARK                         _______ _______ _______ _____ _____    ______ ____
ROOT
ATOM      1  C   UNL     1      -0.023   1.388   0.016  0.00  0.00    +0.038 A 
ATOM      2  C   UNL     1       1.169   2.098   0.008  0.00  0.00    +0.027 A 
ATOM      3  C   UNL     1       2.381   1.418  -0.012  0.00  0.00    +0.051 A 
ATOM      4  C   UNL     1       2.400   0.037  -0.025  0.00  0.00    +0.108 A 
ATOM      5  C   UNL     1       1.216  -0.673  -0.018  0.00  0.00    +0.043 A 
ATOM      6  C   UNL     1      -0.000   0.000   0.003  0.00  0.00    +0.019 A 
ENDROOT
BRANCH   4   7
ATOM      7  S   UNL     1       3.939  -0.821  -0.051  0.00  0.00    +0.056 S 
ATOM      8  O   UNL     1       3.681  -2.101  -0.611  0.00  0.00    -0.153 OA
ATOM      9  O   UNL     1       4.894   0.074  -0.605  0.00  0.00    -0.153 OA
BRANCH   7  10
ATOM     10  N   UNL     1       4.385  -1.074   1.524  0.00  0.00    -0.204 NA
ATOM     11  H   UNL     1       3.818  -0.760   2.245  0.00  0.00    +0.144 HD
ATOM     12  H   UNL     1       5.214  -1.536   1.725  0.00  0.00    +0.144 HD
ENDBRANCH   7  10
ENDBRANCH   4   7
BRANCH   2  13
ATOM     13  N   UNL     1       1.151   3.495   0.021  0.00  0.00    -0.358 N 
ATOM     14  H   UNL     1       0.305   3.969   0.035  0.00  0.00    +0.142 HD
ATOM     15  H   UNL     1       1.985   3.991   0.016  0.00  0.00    +0.142 HD
ENDBRANCH   2  13
BRANCH   6  16
ATOM     16  S   UNL     1      -1.511  -0.907   0.012  0.00  0.00    -0.050 S 
BRANCH  16  17
ATOM     17  C   UNL     1      -1.970  -0.988  -1.688  0.00  0.00    +0.189 A 
ATOM     18  N   UNL     1      -3.119  -1.500  -2.178  0.00  0.00    -0.254 N 
ATOM     19  H   UNL     1      -3.846  -1.891  -1.668  0.00  0.00    +0.191 HD
ATOM     20  N   UNL     1      -3.054  -1.354  -3.573  0.00  0.00    -0.160 NA
ATOM     21  C   UNL     1      -1.911  -0.783  -3.844  0.00  0.00    +0.245 A 
ATOM     22  N   UNL     1      -1.255  -0.555  -2.705  0.00  0.00    -0.209 NA
ENDBRANCH  16  17
ENDBRANCH   6  16
TORSDOF 5
