REMARK  Name = ZINC48949956
REMARK  6 active torsions:
REMARK  status: ('A' for Active; 'I' for Inactive)
REMARK    1  A    between atoms: C_1  and  C_2
REMARK    2  A    between atoms: C_2  and  C_4
REMARK    3  A    between atoms: C_2  and  O_12
REMARK    4  A    between atoms: N_6  and  N_7
REMARK    5  A    between atoms: N_10  and  C_11
REMARK    6  A    between atoms: O_12  and  C_13
REMARK                            x       y       z     vdW  Elec       q    Type
REMARK                         _______ _______ _______ _____ _____    ______ ____
ROOT
ATOM      1  C   UNL     1      -0.049   1.273   0.344  0.00  0.00    +0.062 C 
ATOM      2  C   UNL     1      -0.015  -0.230   0.058  0.00  0.00    +0.257 C 
ENDROOT
BRANCH   2   3
ATOM      3  C   UNL     1      -1.424  -0.753  -0.044  0.00  0.00    +0.270 C 
ATOM      4  O   UNL     1      -1.833  -1.194  -1.098  0.00  0.00    -0.270 OA
ATOM      5  N   UNL     1      -2.231  -0.732   1.035  0.00  0.00    -0.230 N 
ATOM      6  H   UNL     1      -1.904  -0.380   1.878  0.00  0.00    +0.173 HD
BRANCH   5   7
ATOM      7  N   UNL     1      -3.541  -1.219   0.941  0.00  0.00    -0.218 N 
ATOM      8  C   UNL     1      -4.348  -1.198   2.020  0.00  0.00    +0.316 C 
ATOM      9  O   UNL     1      -5.485  -1.620   1.938  0.00  0.00    -0.251 OA
ATOM     10  N   UNL     1      -3.894  -0.708   3.191  0.00  0.00    -0.301 N 
ATOM     11  C   UNL     1      -4.771  -0.685   4.364  0.00  0.00    +0.129 C 
ATOM     12  H   UNL     1      -3.868  -1.571   0.098  0.00  0.00    +0.174 HD
ATOM     13  H   UNL     1      -2.987  -0.371   3.256  0.00  0.00    +0.150 HD
ENDBRANCH   5   7
ENDBRANCH   2   3
BRANCH   2  14
ATOM     14  O   UNL     1       0.671  -0.465  -1.174  0.00  0.00    -0.479 OA
BRANCH  14  15
ATOM     15  C   UNL     1       2.026  -0.553  -1.118  0.00  0.00    +0.136 A 
ATOM     16  C   UNL     1       2.690  -0.303   0.074  0.00  0.00    +0.048 A 
ATOM     17  C   UNL     1       4.068  -0.394   0.129  0.00  0.00    +0.023 A 
ATOM     18  C   UNL     1       4.786  -0.733  -1.005  0.00  0.00    +0.042 A 
ATOM     19  C   UNL     1       4.126  -0.983  -2.195  0.00  0.00    +0.039 A 
ATOM     20  C   UNL     1       2.747  -0.899  -2.253  0.00  0.00    +0.061 A 
ATOM     21 BR   UNL     1       1.845  -1.247  -3.877  0.00  0.00    -0.046 Br
ATOM     22 CL   UNL     1       6.516  -0.845  -0.933  0.00  0.00    -0.084 Cl
ENDBRANCH  14  15
ENDBRANCH   2  14
TORSDOF 4
