REMARK  Name = ZINC15952105
REMARK  3 active torsions:
REMARK  status: ('A' for Active; 'I' for Inactive)
REMARK    1  A    between atoms: C_3  and  O_17
REMARK    2  A    between atoms: C_4  and  C_8
REMARK    3  A    between atoms: N_10  and  N_11
REMARK                            x       y       z     vdW  Elec       q    Type
REMARK                         _______ _______ _______ _____ _____    ______ ____
ROOT
ATOM      1  C   UNL     1       3.692  -0.692  -0.037  0.00  0.00    +0.267 C 
ATOM      2  O   UNL     1       4.737  -0.069  -0.044  0.00  0.00    -0.268 OA
ATOM      3  N   UNL     1       3.710  -2.039  -0.045  0.00  0.00    -0.203 N 
ATOM      4  H   UNL     1       2.877  -2.536  -0.039  0.00  0.00    +0.178 HD
ENDROOT
BRANCH   1   8
ATOM      5  C   UNL     1      -0.017   1.382   0.010  0.00  0.00    +0.019 A 
ATOM      6  C   UNL     1       1.165   2.096   0.002  0.00  0.00    +0.047 A 
ATOM      7  C   UNL     1       2.381   1.430  -0.013  0.00  0.00    +0.129 A 
ATOM      8  C   UNL     1       2.405   0.028  -0.021  0.00  0.00    +0.081 A 
ATOM      9  C   UNL     1       1.202  -0.683  -0.013  0.00  0.00    +0.032 A 
ATOM     10  C   UNL     1       0.002  -0.004   0.002  0.00  0.00    +0.019 A 
ATOM     11 BR   UNL     1      -1.625  -0.968   0.012  0.00  0.00    -0.050 Br
BRANCH   7  12
ATOM     12  O   UNL     1       3.542   2.131  -0.021  0.00  0.00    -0.506 OA
ATOM     13  H   UNL     1       3.887   2.330   0.860  0.00  0.00    +0.292 HD
ENDBRANCH   7  12
ENDBRANCH   1   8
BRANCH   3  14
ATOM     14  N   UNL     1       4.933  -2.723  -0.060  0.00  0.00    -0.189 NA
ATOM     15  C   UNL     1       4.951  -4.003  -0.067  0.00  0.00    +0.037 C 
ATOM     16  C   UNL     1       3.743  -4.917  -0.067  0.00  0.00    +0.052 C 
ATOM     17  C   UNL     1       4.278  -6.364  -0.069  0.00  0.00    +0.006 C 
ATOM     18  C   UNL     1       5.705  -6.231   0.521  0.00  0.00    +0.006 C 
ATOM     19  C   UNL     1       6.186  -4.886  -0.084  0.00  0.00    +0.052 C 
ENDBRANCH   3  14
TORSDOF 3
