REMARK  Name = ZINC39662514
REMARK  8 active torsions:
REMARK  status: ('A' for Active; 'I' for Inactive)
REMARK    1  A    between atoms: C_1  and  C_2
REMARK    2  A    between atoms: C_2  and  N_3
REMARK    3  A    between atoms: C_4  and  C_10
REMARK    4  A    between atoms: C_6  and  C_8
REMARK    5  A    between atoms: C_14  and  C_23
REMARK    6  A    between atoms: N_25  and  C_26
REMARK    7  A    between atoms: C_26  and  C_28
REMARK    8  A    between atoms: C_26  and  C_30
REMARK                            x       y       z     vdW  Elec       q    Type
REMARK                         _______ _______ _______ _____ _____    ______ ____
ROOT
ATOM      1  C   UNL     1       3.244  -0.405   0.205  0.00  0.00    +0.266 C 
ATOM      2  O   UNL     1       4.393  -0.719   0.454  0.00  0.00    -0.268 OA
ATOM      3  N   UNL     1       2.942   0.159  -0.981  0.00  0.00    -0.295 N 
ATOM      4  C   UNL     1       1.601   0.511  -1.504  0.00  0.00    +0.121 C 
ATOM      5  C   UNL     1       1.805   1.863  -2.223  0.00  0.00    +0.100 C 
ATOM      6  C   UNL     1       3.299   1.893  -2.585  0.00  0.00    -0.004 C 
ATOM      7  C   UNL     1       3.877   0.573  -2.055  0.00  0.00    +0.115 C 
ATOM      8  C   UNL     1       3.985   3.074  -1.903  0.00  0.00    -0.010 C 
ATOM      9  C   UNL     1       5.457   3.115  -2.324  0.00  0.00    -0.082 C 
ATOM     10  N   UNL     1       5.546   3.248  -3.784  0.00  0.00    +0.379 N 
ATOM     11  C   UNL     1       4.967   2.064  -4.430  0.00  0.00    -0.082 C 
ATOM     12  C   UNL     1       3.475   1.978  -4.098  0.00  0.00    -0.010 C 
ATOM     13  H   UNL     1       5.042   4.071  -4.077  0.00  0.00    -0.086 HD
ATOM     14  H   UNL     1       6.515   3.336  -4.053  0.00  0.00    -0.086 HD
ENDROOT
BRANCH   1  16
ATOM     15  N   UNL     1       1.658   0.270   2.069  0.00  0.00    -0.258 N 
ATOM     16  C   UNL     1       2.185  -0.642   1.198  0.00  0.00    +0.138 A 
ATOM     17  C   UNL     1       1.522  -1.834   1.438  0.00  0.00    +0.071 A 
ATOM     18  C   UNL     1       0.616  -1.552   2.464  0.00  0.00    +0.075 A 
ATOM     19  N   UNL     1       0.756  -0.293   2.789  0.00  0.00    -0.175 NA
ATOM     20  C   UNL     1      -0.348  -2.528   3.090  0.00  0.00    +0.069 C 
ATOM     21 BR   UNL     1       1.786  -3.490   0.563  0.00  0.00    -0.046 Br
BRANCH  15  23
ATOM     22  C   UNL     1       3.279   1.789   3.092  0.00  0.00    +0.029 C 
ATOM     23  C   UNL     1       2.064   1.674   2.169  0.00  0.00    +0.141 C 
ENDBRANCH  15  23
ENDBRANCH   1  16
BRANCH   5  24
ATOM     24  C   UNL     1       0.959   1.928  -3.469  0.00  0.00    +0.219 C 
ATOM     25  O   UNL     1       0.638   0.906  -4.037  0.00  0.00    -0.275 OA
ATOM     26  N   UNL     1       0.559   3.122  -3.950  0.00  0.00    -0.296 N 
ATOM     27  H   UNL     1       0.877   3.942  -3.540  0.00  0.00    +0.150 HD
BRANCH  26  28
ATOM     28  C   UNL     1      -0.356   3.181  -5.093  0.00  0.00    +0.207 C 
BRANCH  28  29
ATOM     29  C   UNL     1      -0.178   4.494  -5.811  0.00  0.00    -0.013 A 
ATOM     30  C   UNL     1       0.016   5.656  -5.088  0.00  0.00    +0.006 A 
ATOM     31  C   UNL     1       0.180   6.861  -5.747  0.00  0.00    +0.000 A 
ATOM     32  C   UNL     1       0.149   6.902  -7.129  0.00  0.00    +0.000 A 
ATOM     33  C   UNL     1      -0.044   5.740  -7.851  0.00  0.00    +0.000 A 
ATOM     34  C   UNL     1      -0.203   4.535  -7.192  0.00  0.00    +0.006 A 
ENDBRANCH  28  29
BRANCH  28  35
ATOM     35  C   UNL     1      -1.744   3.067  -4.616  0.00  0.00    +0.090 C 
ATOM     36  N   UNL     1      -2.815   2.979  -4.249  0.00  0.00    -0.194 NA
ENDBRANCH  28  35
ENDBRANCH  26  28
ENDBRANCH   5  24
TORSDOF 6
