REMARK  Name = ZINC35828147
REMARK  7 active torsions:
REMARK  status: ('A' for Active; 'I' for Inactive)
REMARK    1  A    between atoms: C_1  and  O_2
REMARK    2  A    between atoms: O_2  and  C_3
REMARK    3  A    between atoms: C_3  and  C_4
REMARK    4  A    between atoms: C_4  and  N_5
REMARK    5  A    between atoms: C_25  and  C_27
REMARK    6  A    between atoms: C_27  and  C_29
REMARK    7  A    between atoms: C_27  and  O_36
REMARK                            x       y       z     vdW  Elec       q    Type
REMARK                         _______ _______ _______ _____ _____    ______ ____
ROOT
ATOM      1  N   UNL     1      -0.515  -2.565   1.245  0.00  0.00    -0.239 N 
ATOM      2  C   UNL     1       0.836  -2.688   1.398  0.00  0.00    +0.227 C 
ATOM      3  O   UNL     1       1.669  -2.714   0.518  0.00  0.00    -0.275 OA
ATOM      4  C   UNL     1       1.084  -2.784   2.871  0.00  0.00    +0.110 C 
ATOM      5  C   UNL     1      -0.248  -3.541   3.237  0.00  0.00    +0.123 C 
ATOM      6  C   UNL     1      -1.212  -2.891   2.382  0.00  0.00    +0.228 C 
ATOM      7  O   UNL     1      -2.382  -2.681   2.616  0.00  0.00    -0.275 OA
ATOM      8  C   UNL     1      -0.045  -3.952   4.625  0.00  0.00    +0.136 C 
ATOM      9  C   UNL     1      -0.780  -5.208   5.020  0.00  0.00    +0.003 A 
ATOM     10  C   UNL     1      -0.818  -6.481   4.495  0.00  0.00    +0.008 A 
ATOM     11  C   UNL     1      -1.606  -7.450   5.089  0.00  0.00    +0.000 A 
ATOM     12  C   UNL     1      -2.354  -7.137   6.210  0.00  0.00    +0.002 A 
ATOM     13  C   UNL     1      -2.319  -5.864   6.738  0.00  0.00    +0.023 A 
ATOM     14  C   UNL     1      -1.527  -4.882   6.146  0.00  0.00    +0.039 A 
ATOM     15  N   UNL     1      -1.325  -3.543   6.488  0.00  0.00    -0.283 N 
ATOM     16  C   UNL     1      -0.471  -2.928   5.650  0.00  0.00    +0.243 C 
ATOM     17  O   UNL     1      -0.113  -1.771   5.706  0.00  0.00    -0.273 OA
ATOM     18  N   UNL     1       1.428  -4.187   4.752  0.00  0.00    -0.293 NA
ATOM     19  C   UNL     1       2.071  -3.803   3.433  0.00  0.00    +0.101 C 
ATOM     20  H   UNL     1      -1.751  -3.108   7.242  0.00  0.00    +0.155 HD
ATOM     21  H   UNL     1       1.816  -3.645   5.509  0.00  0.00    +0.124 HD
ENDROOT
BRANCH   1  22
ATOM     22  C   UNL     1      -1.154  -2.126   0.002  0.00  0.00    +0.144 C 
BRANCH  22  23
ATOM     23  C   UNL     1      -1.295  -0.603   0.011  0.00  0.00    +0.179 C 
BRANCH  23  25
ATOM     24  C   UNL     1      -0.017   1.425   0.010  0.00  0.00    +0.194 C 
ATOM     25  O   UNL     1       0.002  -0.004   0.002  0.00  0.00    -0.381 OA
ENDBRANCH  23  25
ENDBRANCH  22  23
ENDBRANCH   1  22
BRANCH  19  26
ATOM     26  C   UNL     1       3.441  -3.159   3.659  0.00  0.00    +0.162 C 
BRANCH  26  27
ATOM     27  C   UNL     1       4.393  -4.186   4.214  0.00  0.00    -0.018 A 
ATOM     28  C   UNL     1       5.082  -5.025   3.357  0.00  0.00    +0.007 A 
ATOM     29  C   UNL     1       5.955  -5.967   3.865  0.00  0.00    +0.020 A 
ATOM     30  C   UNL     1       6.141  -6.072   5.232  0.00  0.00    +0.041 A 
ATOM     31  C   UNL     1       5.452  -5.232   6.089  0.00  0.00    +0.020 A 
ATOM     32  C   UNL     1       4.583  -4.286   5.579  0.00  0.00    +0.007 A 
ATOM     33 CL   UNL     1       7.238  -7.256   5.871  0.00  0.00    -0.084 Cl
ENDBRANCH  26  27
BRANCH  26  34
ATOM     34  O   UNL     1       3.945  -2.664   2.416  0.00  0.00    -0.386 OA
ATOM     35  H   UNL     1       4.057  -3.345   1.738  0.00  0.00    +0.210 HD
ENDBRANCH  26  34
ENDBRANCH  19  26
TORSDOF 6
