REMARK  Name = ZINC51173256
REMARK  4 active torsions:
REMARK  status: ('A' for Active; 'I' for Inactive)
REMARK    1  A    between atoms: C_4  and  N_11
REMARK    2  A    between atoms: C_6  and  S_7
REMARK    3  A    between atoms: S_7  and  N_10
REMARK    4  A    between atoms: C_12  and  C_14
REMARK                            x       y       z     vdW  Elec       q    Type
REMARK                         _______ _______ _______ _____ _____    ______ ____
ROOT
ATOM      1  C   UNL     1      -0.023   1.366   0.040  0.00  0.00    +0.030 A 
ATOM      2  C   UNL     1       1.161   2.081   0.025  0.00  0.00    +0.024 A 
ATOM      3  C   UNL     1       2.371   1.415   0.000  0.00  0.00    +0.062 A 
ATOM      4  C   UNL     1       2.398   0.025  -0.011  0.00  0.00    +0.054 A 
ATOM      5  C   UNL     1       1.207  -0.689   0.004  0.00  0.00    +0.053 A 
ATOM      6  C   UNL     1       0.000  -0.016   0.029  0.00  0.00    +0.107 A 
ATOM      7 CL   UNL     1       3.857   2.313  -0.019  0.00  0.00    -0.082 Cl
ENDROOT
BRANCH   4   8
ATOM      8  N   UNL     1       3.621  -0.653  -0.037  0.00  0.00    -0.280 N 
ATOM      9  C   UNL     1       3.689  -1.902  -0.538  0.00  0.00    +0.255 C 
ATOM     10  O   UNL     1       2.709  -2.403  -1.059  0.00  0.00    -0.269 OA
ATOM     11  H   UNL     1       4.421  -0.224   0.306  0.00  0.00    +0.155 HD
BRANCH   9  12
ATOM     12  C   UNL     1       4.941  -2.657  -0.455  0.00  0.00    +0.076 A 
ATOM     13  C   UNL     1       5.221  -3.938  -0.908  0.00  0.00    +0.022 A 
ATOM     14  C   UNL     1       6.501  -4.384  -0.685  0.00  0.00    +0.028 A 
ATOM     15  C   UNL     1       7.383  -3.566  -0.055  0.00  0.00    +0.079 A 
ATOM     16  S   UNL     1       6.504  -2.167   0.247  0.00  0.00    -0.072 S 
ATOM     17 CL   UNL     1       9.042  -3.891   0.342  0.00  0.00    -0.076 Cl
ENDBRANCH   9  12
ENDBRANCH   4   8
BRANCH   6  18
ATOM     18  S   UNL     1      -1.511  -0.922   0.048  0.00  0.00    +0.056 S 
ATOM     19  O   UNL     1      -1.210  -2.203   0.584  0.00  0.00    -0.153 OA
ATOM     20  O   UNL     1      -2.490  -0.066   0.621  0.00  0.00    -0.153 OA
BRANCH  18  21
ATOM     21  N   UNL     1      -1.958  -1.162  -1.529  0.00  0.00    -0.204 NA
ATOM     22  H   UNL     1      -1.404  -0.818  -2.247  0.00  0.00    +0.144 HD
ATOM     23  H   UNL     1      -2.772  -1.647  -1.734  0.00  0.00    +0.144 HD
ENDBRANCH  18  21
ENDBRANCH   6  18
TORSDOF 4
