REMARK  Name = ZINC37436438
REMARK  4 active torsions:
REMARK  status: ('A' for Active; 'I' for Inactive)
REMARK    1  A    between atoms: C_4  and  C_17
REMARK    2  A    between atoms: C_6  and  S_7
REMARK    3  A    between atoms: S_7  and  N_10
REMARK    4  A    between atoms: N_10  and  C_11
REMARK                            x       y       z     vdW  Elec       q    Type
REMARK                         _______ _______ _______ _____ _____    ______ ____
ROOT
ATOM      1  C   UNL     1      -0.017   1.380   0.010  0.00  0.00    +0.032 A 
ATOM      2  C   UNL     1       1.166   2.095   0.002  0.00  0.00    +0.041 A 
ATOM      3  C   UNL     1       2.379   1.431  -0.013  0.00  0.00    +0.138 A 
ATOM      4  C   UNL     1       2.404   0.031  -0.021  0.00  0.00    +0.100 A 
ATOM      5  C   UNL     1       1.202  -0.682  -0.013  0.00  0.00    +0.047 A 
ATOM      6  C   UNL     1       0.002  -0.004   0.002  0.00  0.00    +0.111 A 
ATOM      7  F   UNL     1       3.535   2.130  -0.022  0.00  0.00    -0.205 F 
ENDROOT
BRANCH   6   8
ATOM      8  S   UNL     1      -1.514  -0.903   0.012  0.00  0.00    +0.093 S 
ATOM      9  O   UNL     1      -1.223  -2.184   0.553  0.00  0.00    -0.148 OA
ATOM     10  O   UNL     1      -2.493  -0.041   0.576  0.00  0.00    -0.148 OA
BRANCH   8  11
ATOM     11  N   UNL     1      -1.950  -1.144  -1.568  0.00  0.00    -0.070 NA
BRANCH  11  12
ATOM     12  C   UNL     1      -3.116  -1.832  -1.867  0.00  0.00    +0.202 A 
ATOM     13  N   UNL     1      -3.993  -2.354  -1.038  0.00  0.00    -0.229 NA
ATOM     14  C   UNL     1      -5.064  -2.985  -1.486  0.00  0.00    +0.136 A 
ATOM     15  C   UNL     1      -5.213  -3.067  -2.831  0.00  0.00    +0.076 A 
ATOM     16  S   UNL     1      -3.756  -2.195  -3.381  0.00  0.00    -0.042 S 
ATOM     17 BR   UNL     1      -6.589  -3.876  -3.845  0.00  0.00    -0.041 Br
ENDBRANCH  11  12
ENDBRANCH   8  11
ENDBRANCH   6   8
BRANCH   4  18
ATOM     18  C   UNL     1       3.691  -0.686  -0.038  0.00  0.00    +0.389 C 
ATOM     19  O   UNL     1       3.710  -1.909  -0.045  0.00  0.00    -0.240 OA
ATOM     20  O   UNL     1       4.741  -0.059  -0.046  0.00  0.00    -0.240 OA
ENDBRANCH   4  18
TORSDOF 4
