REMARK  Name = ZINC44773432
REMARK  3 active torsions:
REMARK  status: ('A' for Active; 'I' for Inactive)
REMARK    1  A    between atoms: C_5  and  C_8
REMARK    2  A    between atoms: C_5  and  C_11
REMARK    3  A    between atoms: C_8  and  N_10
REMARK                            x       y       z     vdW  Elec       q    Type
REMARK                         _______ _______ _______ _____ _____    ______ ____
ROOT
ATOM      1  C   UNL     1      -0.080   1.559   0.008  0.00  0.00    +0.000 C 
ATOM      2  C   UNL     1       1.344   2.046  -0.011  0.00  0.00    +0.000 C 
ATOM      3  C   UNL     1       1.850   2.335  -1.437  0.00  0.00    +0.001 C 
ATOM      4  C   UNL     1       1.410   1.266  -2.455  0.00  0.00    +0.023 C 
ATOM      5  C   UNL     1       1.519  -0.132  -1.907  0.00  0.00    +0.091 C 
ATOM      6  C   UNL     1       0.151  -0.537  -1.321  0.00  0.00    +0.023 C 
ATOM      7  C   UNL     1      -0.069   0.016   0.007  0.00  0.00    +0.001 C 
ENDROOT
BRANCH   5   8
ATOM      8  C   UNL     1       2.566  -0.169  -0.822  0.00  0.00    +0.228 C 
ATOM      9  O   UNL     1       2.266  -0.526   0.297  0.00  0.00    -0.275 OA
ATOM     10  N   UNL     1       3.834   0.194  -1.097  0.00  0.00    -0.301 N 
ATOM     11  C   UNL     1       4.241   0.509  -2.473  0.00  0.00    +0.108 C 
ATOM     12  C   UNL     1       4.895   1.895  -2.489  0.00  0.00    +0.019 C 
ATOM     13  C   UNL     1       6.038   1.927  -1.473  0.00  0.00    +0.003 C 
ATOM     14  C   UNL     1       5.483   1.671  -0.070  0.00  0.00    +0.019 C 
ATOM     15  C   UNL     1       4.835   0.289  -0.025  0.00  0.00    +0.108 C 
ENDBRANCH   5   8
BRANCH   5  16
ATOM     16  C   UNL     1       1.898  -1.082  -3.014  0.00  0.00    +0.061 C 
ATOM     17  S   UNL     1       1.967  -0.562  -4.524  0.00  0.00    -0.040 S 
BRANCH  16  18
ATOM     18  N   UNL     1       2.178  -2.369  -2.730  0.00  0.00    -0.355 N 
ATOM     19  H   UNL     1       2.066  -2.702  -1.826  0.00  0.00    +0.143 HD
ATOM     20  H   UNL     1       2.491  -2.963  -3.430  0.00  0.00    +0.143 HD
ENDBRANCH  16  18
ENDBRANCH   5  16
TORSDOF 3
