REMARK  Name = ZINC57830783
REMARK  5 active torsions:
REMARK  status: ('A' for Active; 'I' for Inactive)
REMARK    1  A    between atoms: C_1  and  C_2
REMARK    2  A    between atoms: C_5  and  C_9
REMARK    3  A    between atoms: C_7  and  N_8
REMARK    4  A    between atoms: N_17  and  C_18
REMARK    5  A    between atoms: C_18  and  C_19
REMARK                            x       y       z     vdW  Elec       q    Type
REMARK                         _______ _______ _______ _____ _____    ______ ____
ROOT
ATOM      1  C   UNL     1       0.050  -4.257  -0.030  0.00  0.00    +0.143 A 
ATOM      2  N   UNL     1      -0.124  -5.023   1.018  0.00  0.00    -0.227 NA
ATOM      3  C   UNL     1      -0.034  -6.325   0.652  0.00  0.00    +0.093 A 
ATOM      4  C   UNL     1      -0.138  -7.529   1.356  0.00  0.00    +0.071 A 
ATOM      5  C   UNL     1       0.004  -8.726   0.689  0.00  0.00    +0.161 A 
ATOM      6  C   UNL     1       0.250  -8.745  -0.681  0.00  0.00    +0.160 A 
ATOM      7  C   UNL     1       0.355  -7.565  -1.389  0.00  0.00    +0.069 A 
ATOM      8  C   UNL     1       0.214  -6.351  -0.732  0.00  0.00    +0.073 A 
ATOM      9  N   UNL     1       0.258  -5.031  -1.140  0.00  0.00    -0.310 N 
ATOM     10  F   UNL     1       0.387  -9.927  -1.321  0.00  0.00    -0.202 F 
ATOM     11  F   UNL     1      -0.096  -9.889   1.369  0.00  0.00    -0.202 F 
ENDROOT
BRANCH   1  16
ATOM     12  C   UNL     1      -0.075   1.502   0.031  0.00  0.00    +0.045 C 
ATOM     13  C   UNL     1      -0.041  -0.005   0.013  0.00  0.00    -0.030 A 
ATOM     14  C   UNL     1      -0.703  -0.721   0.994  0.00  0.00    +0.006 A 
ATOM     15  C   UNL     1      -0.676  -2.100   0.984  0.00  0.00    +0.012 A 
ATOM     16  C   UNL     1       0.019  -2.778  -0.018  0.00  0.00    +0.019 A 
ATOM     17  C   UNL     1       0.686  -2.057  -1.008  0.00  0.00    +0.034 A 
ATOM     18  C   UNL     1       0.650  -0.670  -0.992  0.00  0.00    +0.028 A 
BRANCH  18  19
ATOM     19  N   UNL     1       1.312   0.057  -1.984  0.00  0.00    -0.358 N 
ATOM     20  H   UNL     1       1.290   1.027  -1.971  0.00  0.00    +0.142 HD
ATOM     21  H   UNL     1       1.794  -0.408  -2.686  0.00  0.00    +0.142 HD
ENDBRANCH  18  19
ENDBRANCH   1  16
BRANCH   9  22
ATOM     22  C   UNL     1       0.487  -4.551  -2.505  0.00  0.00    +0.242 C 
BRANCH  22  23
ATOM     23  C   UNL     1       1.934  -4.490  -2.768  0.00  0.00    +0.084 C 
ATOM     24  N   UNL     1       3.051  -4.443  -2.970  0.00  0.00    -0.195 NA
ENDBRANCH  22  23
ENDBRANCH   9  22
TORSDOF 4
