REMARK  Name = ZINC44713260
REMARK  1 active torsions:
REMARK  status: ('A' for Active; 'I' for Inactive)
REMARK    1  A    between atoms: C_4  and  C_11
REMARK                            x       y       z     vdW  Elec       q    Type
REMARK                         _______ _______ _______ _____ _____    ______ ____
ROOT
ATOM      1  C   UNL     1       0.029   1.325  -0.648  0.00  0.00    +0.099 A 
ATOM      2  C   UNL     1       1.282   1.803  -0.514  0.00  0.00    +0.044 A 
ATOM      3  C   UNL     1       2.136   0.710  -0.256  0.00  0.00    +0.031 A 
ATOM      4  C   UNL     1       3.525   0.560  -0.029  0.00  0.00    +0.089 A 
ATOM      5  C   UNL     1       4.023  -0.723   0.197  0.00  0.00    +0.098 A 
ATOM      6  N   UNL     1       3.222  -1.770   0.200  0.00  0.00    -0.365 N 
ATOM      7  C   UNL     1       1.923  -1.676  -0.008  0.00  0.00    +0.109 A 
ATOM      8  C   UNL     1       1.327  -0.445  -0.242  0.00  0.00    +0.065 A 
ATOM      9  N   UNL     1       0.036  -0.032  -0.487  0.00  0.00    -0.358 N 
ATOM     10  H   UNL     1      -0.741  -0.609  -0.536  0.00  0.00    +0.165 HD
ATOM     11 BR   UNL     1       1.804   3.616  -0.650  0.00  0.00    -0.048 Br
ATOM     12  H   UNL     1       3.604  -2.647   0.361  0.00  0.00    +0.165 HD
ENDROOT
BRANCH   4  13
ATOM     13  C   UNL     1       4.419   1.726  -0.032  0.00  0.00    +0.389 C 
ATOM     14  O   UNL     1       5.379   1.760  -0.791  0.00  0.00    -0.241 OA
ATOM     15  O   UNL     1       4.205   2.664   0.725  0.00  0.00    -0.241 OA
ENDBRANCH   4  13
TORSDOF 1
