REMARK  Name = ZINC40784359
REMARK  8 active torsions:
REMARK  status: ('A' for Active; 'I' for Inactive)
REMARK    1  A    between atoms: C_1  and  C_2
REMARK    2  A    between atoms: C_7  and  C_8
REMARK    3  A    between atoms: N_10  and  N_11
REMARK    4  A    between atoms: C_13  and  N_28
REMARK    5  A    between atoms: C_14  and  O_18
REMARK    6  A    between atoms: O_18  and  C_19
REMARK    7  A    between atoms: C_21  and  C_27
REMARK    8  A    between atoms: C_23  and  C_25
REMARK                            x       y       z     vdW  Elec       q    Type
REMARK                         _______ _______ _______ _____ _____    ______ ____
ROOT
ATOM      1  N   UNL     1      -0.067  -0.060   4.972  0.00  0.00    -0.246 N 
ATOM      2  C   UNL     1       0.169  -0.730   6.166  0.00  0.00    +0.163 A 
ATOM      3  C   UNL     1       0.604  -0.033   7.297  0.00  0.00    +0.129 A 
ATOM      4  C   UNL     1       0.825  -0.753   8.469  0.00  0.00    +0.246 A 
ATOM      5  N   UNL     1       0.615  -2.066   8.469  0.00  0.00    -0.199 NA
ATOM      6  C   UNL     1       0.204  -2.686   7.381  0.00  0.00    +0.227 A 
ATOM      7  N   UNL     1      -0.022  -2.043   6.253  0.00  0.00    -0.217 NA
ATOM      8  H   UNL     1       0.075   0.898   4.917  0.00  0.00    +0.172 HD
ENDROOT
BRANCH   1  11
ATOM      9  C   UNL     1      -0.737  -0.119   2.688  0.00  0.00    +0.260 C 
ATOM     10  O   UNL     1      -0.560   1.082   2.620  0.00  0.00    -0.269 OA
ATOM     11  N   UNL     1      -0.509  -0.768   3.847  0.00  0.00    -0.231 N 
ATOM     12  H   UNL     1      -0.650  -1.726   3.902  0.00  0.00    +0.173 HD
BRANCH   9  19
ATOM     13  C   UNL     1      -1.484   1.322   0.293  0.00  0.00    +0.044 C 
ATOM     14  C   UNL     1      -1.566  -0.182   0.340  0.00  0.00    -0.038 A 
ATOM     15  C   UNL     1      -1.995  -0.887  -0.766  0.00  0.00    +0.004 A 
ATOM     16  C   UNL     1      -2.071  -2.267  -0.725  0.00  0.00    +0.000 A 
ATOM     17  C   UNL     1      -1.718  -2.951   0.426  0.00  0.00    +0.001 A 
ATOM     18  C   UNL     1      -1.289  -2.259   1.539  0.00  0.00    +0.013 A 
ATOM     19  C   UNL     1      -1.204  -0.867   1.501  0.00  0.00    +0.041 A 
ENDBRANCH   9  19
ENDBRANCH   1  11
BRANCH   3  20
ATOM     20  N   UNL     1       0.814   1.355   7.252  0.00  0.00    -0.351 N 
ATOM     21  H   UNL     1       0.656   1.843   6.429  0.00  0.00    +0.143 HD
ATOM     22  H   UNL     1       1.116   1.825   8.045  0.00  0.00    +0.143 HD
ENDBRANCH   3  20
BRANCH   4  23
ATOM     23  O   UNL     1       1.248  -0.124   9.594  0.00  0.00    -0.436 OA
BRANCH  23  24
ATOM     24  C   UNL     1       1.575  -0.889  10.669  0.00  0.00    +0.131 A 
ATOM     25  C   UNL     1       2.819  -1.501  10.733  0.00  0.00    +0.051 A 
ATOM     26  C   UNL     1       3.150  -2.279  11.826  0.00  0.00    -0.028 A 
ATOM     27  C   UNL     1       2.241  -2.447  12.856  0.00  0.00    +0.047 A 
ATOM     28  C   UNL     1       1.001  -1.838  12.794  0.00  0.00    -0.028 A 
ATOM     29  C   UNL     1       0.668  -1.055  11.705  0.00  0.00    +0.051 A 
ATOM     30  C   UNL     1       0.013  -2.024  13.917  0.00  0.00    +0.045 C 
ATOM     31 CL   UNL     1       2.659  -3.425  14.229  0.00  0.00    -0.083 Cl
ATOM     32  C   UNL     1       4.500  -2.944  11.896  0.00  0.00    +0.045 C 
ENDBRANCH  23  24
ENDBRANCH   4  23
TORSDOF 5
