REMARK  Name = ZINC24662987
REMARK  5 active torsions:
REMARK  status: ('A' for Active; 'I' for Inactive)
REMARK    1  A    between atoms: C_1  and  C_2
REMARK    2  A    between atoms: C_2  and  C_4
REMARK    3  A    between atoms: C_2  and  N_12
REMARK    4  A    between atoms: C_13  and  C_15
REMARK    5  A    between atoms: N_20  and  C_22
REMARK                            x       y       z     vdW  Elec       q    Type
REMARK                         _______ _______ _______ _____ _____    ______ ____
ROOT
ATOM      1  C   UNL     1      -0.718   2.616   3.608  0.00  0.00    +0.101 C 
ATOM      2  C   UNL     1      -1.162   4.090   3.464  0.00  0.00    +0.110 C 
ATOM      3  C   UNL     1      -0.956   4.676   4.844  0.00  0.00    +0.221 C 
ATOM      4  O   UNL     1      -1.437   5.718   5.235  0.00  0.00    -0.275 OA
ATOM      5  N   UNL     1      -0.163   3.872   5.573  0.00  0.00    -0.271 N 
ATOM      6  C   UNL     1       0.257   2.696   4.803  0.00  0.00    +0.127 C 
ENDROOT
BRANCH   5   7
ATOM      7  C   UNL     1       0.215   4.126   6.898  0.00  0.00    +0.040 A 
ATOM      8  C   UNL     1       0.937   3.176   7.609  0.00  0.00    +0.027 A 
ATOM      9  C   UNL     1       1.314   3.426   8.914  0.00  0.00    +0.051 A 
ATOM     10  C   UNL     1       0.965   4.622   9.521  0.00  0.00    +0.166 A 
ATOM     11  C   UNL     1       0.237   5.575   8.813  0.00  0.00    +0.168 A 
ATOM     12  C   UNL     1      -0.137   5.325   7.503  0.00  0.00    +0.073 A 
ATOM     13  O   UNL     1       0.022   6.652   9.624  0.00  0.00    -0.453 OA
ATOM     14  C   UNL     1       0.974   6.521  10.697  0.00  0.00    +0.466 C 
ATOM     15  O   UNL     1       1.206   5.102  10.777  0.00  0.00    -0.453 OA
ENDBRANCH   5   7
BRANCH   1  17
ATOM     16  N   UNL     1      -0.692   2.007   1.211  0.00  0.00    -0.308 N 
ATOM     17  C   UNL     1      -0.010   2.142   2.365  0.00  0.00    +0.219 C 
ATOM     18  O   UNL     1       1.175   1.883   2.403  0.00  0.00    -0.275 OA
ATOM     19  H   UNL     1      -1.766   2.241   1.176  0.00  0.00    +0.149 HD
BRANCH  16  21
ATOM     20  C   UNL     1       0.035   0.017  -0.011  0.00  0.00    +0.033 C 
ATOM     21  C   UNL     1      -0.004   1.546   0.002  0.00  0.00    +0.100 C 
BRANCH  21  22
ATOM     22  C   UNL     1      -0.741   2.041  -1.215  0.00  0.00    -0.026 A 
ATOM     23  C   UNL     1      -0.035   2.495  -2.314  0.00  0.00    +0.007 A 
ATOM     24  C   UNL     1      -0.710   2.949  -3.431  0.00  0.00    +0.022 A 
ATOM     25  C   UNL     1      -2.093   2.949  -3.451  0.00  0.00    +0.059 A 
ATOM     26  C   UNL     1      -2.800   2.494  -2.351  0.00  0.00    +0.060 A 
ATOM     27  C   UNL     1      -2.123   2.035  -1.236  0.00  0.00    +0.027 A 
ATOM     28 CL   UNL     1      -4.536   2.494  -2.374  0.00  0.00    -0.082 Cl
ATOM     29 CL   UNL     1      -2.942   3.520  -4.854  0.00  0.00    -0.082 Cl
ENDBRANCH  21  22
ENDBRANCH  16  21
ENDBRANCH   1  17
TORSDOF 4
