REMARK  Name = ZINC34725188
REMARK  6 active torsions:
REMARK  status: ('A' for Active; 'I' for Inactive)
REMARK    1  A    between atoms: C_1  and  C_2
REMARK    2  A    between atoms: C_2  and  N_3
REMARK    3  A    between atoms: N_11  and  C_14
REMARK    4  A    between atoms: C_14  and  C_15
REMARK    5  A    between atoms: C_19  and  C_22
REMARK    6  A    between atoms: C_20  and  C_21
REMARK                            x       y       z     vdW  Elec       q    Type
REMARK                         _______ _______ _______ _____ _____    ______ ____
ROOT
ATOM      1  N   UNL     1      -1.372  -0.511   0.012  0.00  0.00    -0.261 N 
ATOM      2  C   UNL     1      -1.976  -0.738   1.193  0.00  0.00    +0.265 A 
ATOM      3  O   UNL     1      -1.388  -0.525   2.237  0.00  0.00    -0.267 OA
ATOM      4  C   UNL     1      -3.362  -1.250   1.206  0.00  0.00    +0.078 A 
ATOM      5  C   UNL     1      -4.208  -1.567   2.377  0.00  0.00    +0.003 A 
ATOM      6  C   UNL     1      -5.458  -2.027   2.105  0.00  0.00    +0.004 A 
ATOM      7  S   UNL     1      -5.564  -2.059   0.337  0.00  0.00    -0.074 S 
ATOM      8  C   UNL     1      -3.940  -1.458  -0.043  0.00  0.00    +0.098 A 
ATOM      9  N   UNL     1      -3.257  -1.202  -1.200  0.00  0.00    -0.278 N 
ATOM     10  C   UNL     1      -1.996  -0.731  -1.157  0.00  0.00    +0.333 A 
ATOM     11  O   UNL     1      -1.408  -0.504  -2.197  0.00  0.00    -0.246 OA
ATOM     12  C   UNL     1      -6.162  -2.293   3.401  0.00  0.00    +0.073 C 
ATOM     13  C   UNL     1      -5.157  -1.927   4.470  0.00  0.00    -0.064 C 
ATOM     14  C   UNL     1      -4.061  -1.519   3.859  0.00  0.00    -0.042 C 
ATOM     15  C   UNL     1      -2.814  -1.061   4.571  0.00  0.00    +0.044 C 
ATOM     16  C   UNL     1      -5.369  -2.011   5.960  0.00  0.00    +0.039 C 
ENDROOT
BRANCH   1  18
ATOM     17  C   UNL     1      -0.019   1.526   0.010  0.00  0.00    +0.027 C 
ATOM     18  C   UNL     1       0.002  -0.004   0.002  0.00  0.00    +0.126 C 
ENDBRANCH   1  18
BRANCH   9  19
ATOM     19  C   UNL     1      -3.904  -1.436  -2.494  0.00  0.00    +0.222 C 
BRANCH  19  20
ATOM     20  C   UNL     1      -4.617  -0.183  -2.932  0.00  0.00    +0.230 C 
ATOM     21  O   UNL     1      -4.588   0.808  -2.233  0.00  0.00    -0.274 OA
ATOM     22  N   UNL     1      -5.287  -0.163  -4.101  0.00  0.00    -0.328 N 
ATOM     23  H   UNL     1      -5.311  -0.955  -4.660  0.00  0.00    +0.145 HD
ATOM     24  H   UNL     1      -5.747   0.644  -4.383  0.00  0.00    +0.145 HD
ENDBRANCH  19  20
ENDBRANCH   9  19
TORSDOF 3
