REMARK  Name = ZINC39448287
REMARK  4 active torsions:
REMARK  status: ('A' for Active; 'I' for Inactive)
REMARK    1  A    between atoms: C_2  and  N_14
REMARK    2  A    between atoms: C_6  and  N_9
REMARK    3  A    between atoms: C_10  and  N_12
REMARK    4  A    between atoms: N_12  and  N_13
REMARK                            x       y       z     vdW  Elec       q    Type
REMARK                         _______ _______ _______ _____ _____    ______ ____
ROOT
ATOM      1  C   UNL     1      -0.017   1.376   0.010  0.00  0.00    +0.033 C 
ATOM      2  C   UNL     1       1.150   2.122   0.003  0.00  0.00    +0.134 C 
ATOM      3  C   UNL     1       2.435   1.373  -0.135  0.00  0.00    +0.216 C 
ATOM      4  C   UNL     1       2.448  -0.104   0.220  0.00  0.00    +0.048 C 
ATOM      5  C   UNL     1       3.768  -0.276   0.655  0.00  0.00    +0.146 C 
ATOM      6  N   UNL     1       4.259   0.959   0.983  0.00  0.00    -0.138 NA
ATOM      7  N   UNL     1       3.539   1.906   0.643  0.00  0.00    -0.171 NA
ATOM      8  C   UNL     1       1.253  -0.777   0.183  0.00  0.00    +0.050 C 
ATOM      9  C   UNL     1       0.002  -0.004   0.002  0.00  0.00    +0.026 C 
ENDROOT
BRANCH   5  10
ATOM     10  N   UNL     1       4.434  -1.447   0.737  0.00  0.00    -0.341 N 
ATOM     11  H   UNL     1       3.996  -2.274   0.480  0.00  0.00    +0.144 HD
ATOM     12  H   UNL     1       5.351  -1.462   1.053  0.00  0.00    +0.144 HD
ENDBRANCH   5  10
BRANCH   2  13
ATOM     13  N   UNL     1       1.125   3.597   0.125  0.00  0.00    +0.055 N 
ATOM     14  O   UNL     1      -0.025   4.228   0.244  0.00  0.00    -0.126 OA
ATOM     15  O   UNL     1       2.252   4.279   0.115  0.00  0.00    -0.126 OA
ENDBRANCH   2  13
BRANCH   8  16
ATOM     16  N   UNL     1       1.220  -2.141   0.289  0.00  0.00    -0.283 N 
ATOM     17  H   UNL     1       2.046  -2.640   0.390  0.00  0.00    +0.166 HD
BRANCH  16  18
ATOM     18  N   UNL     1       0.024  -2.800   0.251  0.00  0.00    -0.257 NA
ATOM     19  H   UNL     1      -0.485  -2.577  -0.591  0.00  0.00    +0.140 HD
ATOM     20  H   UNL     1       0.157  -3.796   0.339  0.00  0.00    +0.140 HD
ENDBRANCH  16  18
ENDBRANCH   8  16
TORSDOF 4
