REMARK  Name = ZINC34725182
REMARK  4 active torsions:
REMARK  status: ('A' for Active; 'I' for Inactive)
REMARK    1  A    between atoms: C_1  and  C_2
REMARK    2  A    between atoms: C_3  and  C_21
REMARK    3  A    between atoms: N_15  and  C_16
REMARK    4  A    between atoms: C_16  and  C_17
REMARK                            x       y       z     vdW  Elec       q    Type
REMARK                         _______ _______ _______ _____ _____    ______ ____
ROOT
ATOM      1  C   UNL     1      -0.018   1.503   0.010  0.00  0.00    +0.039 C 
ATOM      2  C   UNL     1       0.002  -0.004   0.002  0.00  0.00    -0.064 C 
ATOM      3  C   UNL     1      -1.051  -0.800   0.003  0.00  0.00    -0.042 C 
ATOM      4  C   UNL     1      -0.654  -2.236  -0.007  0.00  0.00    +0.003 A 
ATOM      5  C   UNL     1       0.704  -2.285  -0.014  0.00  0.00    +0.004 A 
ATOM      6  S   UNL     1       1.104  -4.011  -0.025  0.00  0.00    -0.074 S 
ATOM      7  C   UNL     1      -0.542  -4.670  -0.021  0.00  0.00    +0.098 A 
ATOM      8  C   UNL     1      -1.353  -3.540  -0.011  0.00  0.00    +0.078 A 
ATOM      9  C   UNL     1      -2.808  -3.794  -0.005  0.00  0.00    +0.263 A 
ATOM     10  O   UNL     1      -3.597  -2.867   0.003  0.00  0.00    -0.267 OA
ATOM     11  N   UNL     1      -3.251  -5.065  -0.009  0.00  0.00    -0.274 N 
ATOM     12  H   UNL     1      -4.206  -5.231  -0.005  0.00  0.00    +0.173 HD
ATOM     13  C   UNL     1      -2.407  -6.110  -0.019  0.00  0.00    +0.331 A 
ATOM     14  O   UNL     1      -2.857  -7.239  -0.023  0.00  0.00    -0.246 OA
ATOM     15  N   UNL     1      -1.071  -5.931  -0.025  0.00  0.00    -0.279 N 
ATOM     16  C   UNL     1       1.233  -0.882  -0.015  0.00  0.00    +0.073 C 
ATOM     17  C   UNL     1      -2.478  -0.316   0.012  0.00  0.00    +0.044 C 
ENDROOT
BRANCH  15  18
ATOM     18  C   UNL     1      -0.181  -7.094  -0.036  0.00  0.00    +0.222 C 
BRANCH  18  19
ATOM     19  C   UNL     1       0.131  -7.501   1.382  0.00  0.00    +0.230 C 
ATOM     20  O   UNL     1      -0.343  -6.880   2.309  0.00  0.00    -0.274 OA
ATOM     21  N   UNL     1       0.938  -8.554   1.619  0.00  0.00    -0.328 N 
ATOM     22  H   UNL     1       1.317  -9.051   0.877  0.00  0.00    +0.145 HD
ATOM     23  H   UNL     1       1.139  -8.816   2.531  0.00  0.00    +0.145 HD
ENDBRANCH  18  19
ENDBRANCH  15  18
TORSDOF 2
