REMARK  Name = ZINC52094372
REMARK  3 active torsions:
REMARK  status: ('A' for Active; 'I' for Inactive)
REMARK    1  A    between atoms: C_6  and  C_7
REMARK    2  A    between atoms: C_7  and  C_9
REMARK    3  A    between atoms: C_7  and  N_22
REMARK                            x       y       z     vdW  Elec       q    Type
REMARK                         _______ _______ _______ _____ _____    ______ ____
ROOT
ATOM      1  C   UNL     1      -1.585  -1.252   1.410  0.00  0.00    -0.042 A 
ATOM      2  C   UNL     1      -1.202  -2.521   1.798  0.00  0.00    +0.031 A 
ATOM      3  C   UNL     1      -1.470  -2.959   3.086  0.00  0.00    +0.067 A 
ATOM      4  C   UNL     1      -2.127  -2.116   3.985  0.00  0.00    +0.068 A 
ATOM      5  C   UNL     1      -2.508  -0.844   3.587  0.00  0.00    +0.043 A 
ATOM      6  C   UNL     1      -2.231  -0.413   2.303  0.00  0.00    +0.022 A 
ATOM      7 BR   UNL     1      -2.743   1.325   1.762  0.00  0.00    -0.050 Br
ATOM      8  N   UNL     1      -2.254  -2.822   5.179  0.00  0.00    -0.306 N 
ATOM      9  H   UNL     1      -2.671  -2.493   5.991  0.00  0.00    +0.170 HD
ATOM     10  C   UNL     1      -1.700  -4.038   5.014  0.00  0.00    +0.325 A 
ATOM     11  O   UNL     1      -1.644  -4.904   5.867  0.00  0.00    -0.247 OA
ATOM     12  N   UNL     1      -1.219  -4.151   3.762  0.00  0.00    -0.306 N 
ATOM     13  H   UNL     1      -0.773  -4.930   3.393  0.00  0.00    +0.170 HD
ENDROOT
BRANCH   1  14
ATOM     14  C   UNL     1      -1.293  -0.775   0.010  0.00  0.00    -0.012 C 
BRANCH  14  20
ATOM     15  C   UNL     1      -0.017   1.378   0.010  0.00  0.00    +0.003 A 
ATOM     16  C   UNL     1       1.171   2.086   0.002  0.00  0.00    +0.015 A 
ATOM     17  C   UNL     1       2.378   1.411  -0.013  0.00  0.00    +0.018 A 
ATOM     18  C   UNL     1       2.396   0.027  -0.021  0.00  0.00    +0.015 A 
ATOM     19  C   UNL     1       1.208  -0.679  -0.013  0.00  0.00    +0.003 A 
ATOM     20  C   UNL     1       0.002  -0.004   0.002  0.00  0.00    -0.058 A 
ATOM     21 BR   UNL     1       4.003   2.378  -0.024  0.00  0.00    -0.050 Br
ENDBRANCH  14  20
BRANCH  14  22
ATOM     22  N   UNL     1      -1.179  -1.932  -0.887  0.00  0.00    +0.385 N 
ATOM     23  H   UNL     1      -0.984  -1.613  -1.824  0.00  0.00    -0.089 HD
ATOM     24  H   UNL     1      -0.430  -2.530  -0.572  0.00  0.00    -0.089 HD
ATOM     25  H   UNL     1      -2.046  -2.449  -0.882  0.00  0.00    -0.089 HD
ENDBRANCH  14  22
ENDBRANCH   1  14
TORSDOF 3
