REMARK  Name = ZINC63258967
REMARK  6 active torsions:
REMARK  status: ('A' for Active; 'I' for Inactive)
REMARK    1  A    between atoms: C_4  and  N_16
REMARK    2  A    between atoms: C_6  and  S_7
REMARK    3  A    between atoms: S_7  and  N_10
REMARK    4  A    between atoms: C_17  and  C_19
REMARK    5  A    between atoms: C_19  and  S_20
REMARK    6  A    between atoms: S_20  and  C_21
REMARK                            x       y       z     vdW  Elec       q    Type
REMARK                         _______ _______ _______ _____ _____    ______ ____
ROOT
ATOM      1  C   UNL     1      -0.026   1.362  -0.017  0.00  0.00    +0.030 A 
ATOM      2  C   UNL     1       1.157   2.078  -0.021  0.00  0.00    +0.024 A 
ATOM      3  C   UNL     1       2.369   1.413  -0.028  0.00  0.00    +0.062 A 
ATOM      4  C   UNL     1       2.397   0.024  -0.030  0.00  0.00    +0.054 A 
ATOM      5  C   UNL     1       1.207  -0.691  -0.025  0.00  0.00    +0.053 A 
ATOM      6  C   UNL     1      -0.001  -0.020  -0.019  0.00  0.00    +0.107 A 
ATOM      7 CL   UNL     1       3.854   2.313  -0.035  0.00  0.00    -0.082 Cl
ENDROOT
BRANCH   4   8
ATOM      8  N   UNL     1       3.622  -0.653  -0.037  0.00  0.00    -0.284 N 
ATOM      9  C   UNL     1       3.751  -1.820   0.624  0.00  0.00    +0.228 C 
ATOM     10  O   UNL     1       2.785  -2.325   1.158  0.00  0.00    -0.275 OA
ATOM     11  H   UNL     1       4.378  -0.282  -0.518  0.00  0.00    +0.155 HD
BRANCH   9  12
ATOM     12  C   UNL     1       5.094  -2.498   0.702  0.00  0.00    +0.173 C 
BRANCH  12  13
ATOM     13  S   UNL     1       4.942  -4.036   1.651  0.00  0.00    -0.079 S 
BRANCH  13  14
ATOM     14  C   UNL     1       6.574  -4.701   1.651  0.00  0.00    +0.182 C 
ATOM     15  N   UNL     1       7.511  -4.013   1.022  0.00  0.00    -0.155 NA
ATOM     16  C   UNL     1       8.775  -4.432   0.966  0.00  0.00    +0.245 C 
ATOM     17  O   UNL     1       9.630  -3.791   0.385  0.00  0.00    -0.273 OA
ATOM     18  C   UNL     1       9.102  -5.742   1.658  0.00  0.00    +0.169 C 
ATOM     19  C   UNL     1       7.943  -6.439   2.345  0.00  0.00    +0.104 C 
ATOM     20  N   UNL     1       6.767  -5.856   2.290  0.00  0.00    -0.213 NA
ATOM     21  N   UNL     1       8.114  -7.612   2.994  0.00  0.00    -0.346 N 
ATOM     22  H   UNL     1       8.991  -8.024   3.027  0.00  0.00    +0.143 HD
ATOM     23  H   UNL     1       7.360  -8.041   3.427  0.00  0.00    +0.143 HD
ENDBRANCH  13  14
ENDBRANCH  12  13
ENDBRANCH   9  12
ENDBRANCH   4   8
BRANCH   6  24
ATOM     24  S   UNL     1      -1.511  -0.927  -0.013  0.00  0.00    +0.061 S 
ATOM     25  O   UNL     1      -1.216  -2.205   0.534  0.00  0.00    -0.153 OA
ATOM     26  O   UNL     1      -2.498  -0.070   0.543  0.00  0.00    -0.153 OA
BRANCH  24  27
ATOM     27  N   UNL     1      -1.939  -1.177  -1.594  0.00  0.00    -0.177 NA
ATOM     28  C   UNL     1      -2.778  -0.204  -2.305  0.00  0.00    +0.109 C 
ATOM     29  C   UNL     1      -2.069   0.204  -3.601  0.00  0.00    +0.017 C 
ATOM     30  C   UNL     1      -1.736  -1.050  -4.412  0.00  0.00    +0.003 C 
ATOM     31  C   UNL     1      -0.792  -1.945  -3.606  0.00  0.00    +0.017 C 
ATOM     32  C   UNL     1      -1.481  -2.374  -2.313  0.00  0.00    +0.109 C 
ENDBRANCH  24  27
ENDBRANCH   6  24
TORSDOF 6
