REMARK  Name = ZINC34660067
REMARK  6 active torsions:
REMARK  status: ('A' for Active; 'I' for Inactive)
REMARK    1  A    between atoms: C_3  and  O_13
REMARK    2  A    between atoms: C_4  and  C_8
REMARK    3  A    between atoms: C_8  and  N_9
REMARK    4  A    between atoms: N_9  and  C_10
REMARK    5  A    between atoms: O_13  and  C_14
REMARK    6  A    between atoms: C_14  and  C_15
REMARK                            x       y       z     vdW  Elec       q    Type
REMARK                         _______ _______ _______ _____ _____    ______ ____
ROOT
ATOM      1  C   UNL     1      -0.017   1.379   0.010  0.00  0.00    +0.019 A 
ATOM      2  C   UNL     1       1.170   2.087   0.002  0.00  0.00    +0.047 A 
ATOM      3  C   UNL     1       2.380   1.410  -0.013  0.00  0.00    +0.123 A 
ATOM      4  C   UNL     1       2.397   0.022  -0.021  0.00  0.00    -0.022 A 
ATOM      5  C   UNL     1       1.208  -0.681  -0.013  0.00  0.00    +0.020 A 
ATOM      6  C   UNL     1       0.002  -0.004   0.002  0.00  0.00    +0.018 A 
ATOM      7 BR   UNL     1      -1.623  -0.971   0.012  0.00  0.00    -0.050 Br
ENDROOT
BRANCH   4   8
ATOM      8  C   UNL     1       3.711  -0.716  -0.038  0.00  0.00    -0.043 C 
BRANCH   8   9
ATOM      9  N   UNL     1       4.269  -0.753   1.321  0.00  0.00    +0.384 N 
ATOM     10  H   UNL     1       4.417   0.189   1.649  0.00  0.00    -0.085 HD
ATOM     11  H   UNL     1       3.625  -1.227   1.936  0.00  0.00    -0.085 HD
BRANCH   9  12
ATOM     12  C   UNL     1       5.549  -1.473   1.304  0.00  0.00    -0.072 C 
ATOM     13  C   UNL     1       5.638  -2.776   2.101  0.00  0.00    -0.017 C 
ATOM     14  C   UNL     1       6.350  -1.520   2.607  0.00  0.00    -0.017 C 
ENDBRANCH   9  12
ENDBRANCH   8   9
ENDBRANCH   4   8
BRANCH   3  15
ATOM     15  O   UNL     1       3.548   2.104  -0.021  0.00  0.00    -0.483 OA
BRANCH  15  16
ATOM     16  C   UNL     1       3.455   3.530  -0.013  0.00  0.00    +0.325 C 
BRANCH  16  17
ATOM     17  C   UNL     1       4.840   4.124  -0.023  0.00  0.00    +0.258 C 
ATOM     18  O   UNL     1       5.811   3.398  -0.036  0.00  0.00    -0.272 OA
ATOM     19  N   UNL     1       5.000   5.463  -0.018  0.00  0.00    -0.238 N 
ATOM     20  C   UNL     1       6.239   5.994  -0.028  0.00  0.00    +0.303 C 
ATOM     21  O   UNL     1       7.212   5.266  -0.041  0.00  0.00    -0.253 OA
ATOM     22  N   UNL     1       6.398   7.332  -0.022  0.00  0.00    -0.313 N 
ATOM     23  H   UNL     1       4.223   6.043  -0.008  0.00  0.00    +0.159 HD
ATOM     24  H   UNL     1       5.622   7.913  -0.012  0.00  0.00    +0.146 HD
ATOM     25  H   UNL     1       7.290   7.714  -0.029  0.00  0.00    +0.146 HD
ENDBRANCH  16  17
ENDBRANCH  15  16
ENDBRANCH   3  15
TORSDOF 6
