REMARK  Name = ZINC20610166
REMARK  11 active torsions:
REMARK  status: ('A' for Active; 'I' for Inactive)
REMARK    1  A    between atoms: C_1  and  C_2
REMARK    2  A    between atoms: C_4  and  O_27
REMARK    3  A    between atoms: C_6  and  C_26
REMARK    4  A    between atoms: C_7  and  C_13
REMARK    5  A    between atoms: C_13  and  C_14
REMARK    6  A    between atoms: N_16  and  CA_17
REMARK    7  A    between atoms: CA_17  and  CB_19
REMARK    8  A    between atoms: CA_17  and  C_23
REMARK    9  A    between atoms: CB_19  and  CG_20
REMARK   10  A    between atoms: CG_20  and  SD_21
REMARK   11  A    between atoms: SD_21  and  CE_22
REMARK                            x       y       z     vdW  Elec       q    Type
REMARK                         _______ _______ _______ _____ _____    ______ ____
ROOT
ATOM      1  C   UNK A   0      -1.298  -0.764  -0.127  0.00  0.00    +0.044 C 
ATOM      2  C   UNK A   0       0.002  -0.002  -0.100  0.00  0.00    -0.043 A 
ATOM      3  C   UNK A   0       1.202  -0.695  -0.117  0.00  0.00    +0.049 A 
ATOM      4  C   UNK A   0       2.403  -0.009  -0.091  0.00  0.00    +0.128 A 
ATOM      5  C   UNK A   0       2.396   1.394  -0.049  0.00  0.00    +0.062 A 
ATOM      6  C   UNK A   0       3.647   2.154  -0.022  0.00  0.00    -0.026 A 
ATOM      7  C   UNK A   0       3.573   3.510   0.021  0.00  0.00    +0.049 A 
ATOM      8  C   UNK A   0       2.313   4.143   0.035  0.00  0.00    +0.341 A 
ATOM      9  O   UNK A   0       2.260   5.359   0.073  0.00  0.00    -0.245 OA
ATOM     10  O   UNK A   0       1.170   3.439   0.009  0.00  0.00    -0.422 OA
ATOM     11  C   UNK A   0       1.174   2.089  -0.032  0.00  0.00    +0.143 A 
ATOM     12  C   UNK A   0      -0.017   1.377  -0.058  0.00  0.00    +0.050 A 
ATOM     13  C   UNK A   0       4.980   1.452  -0.038  0.00  0.00    +0.045 C 
ENDROOT
BRANCH   4  14
ATOM     14  O   UNK A   0       3.578  -0.688  -0.108  0.00  0.00    -0.506 OA
ATOM     15  H   UNK A   0       4.531  -0.138  -0.088  0.00  0.00    +0.292 HD
ENDBRANCH   4  14
BRANCH   7  16
ATOM     16  C   UNK A   0       4.833   4.335   0.051  0.00  0.00    +0.138 C 
BRANCH  16  17
ATOM     17  C   UNK A   0       5.248   4.567   1.481  0.00  0.00    +0.218 C 
ATOM     18  O   UNK A   0       4.585   4.107   2.387  0.00  0.00    -0.275 OA
ATOM     19  N   MET A   1       6.356   5.285   1.754  0.00  0.00    -0.302 N 
ATOM     20  H   MET A   1       6.957   5.702   0.932  0.00  0.00    +0.150 HD
BRANCH  19  21
ATOM     21  CA  MET A   1       6.759   5.510   3.144  0.00  0.00    +0.187 C 
BRANCH  21  22
ATOM     22  C   MET A   1       6.024   6.705   3.693  0.00  0.00    +0.376 C 
ATOM     23  O   MET A   1       5.243   7.308   2.995  0.00  0.00    -0.244 OA
ATOM     24  OXT MET A   1       6.236   7.101   4.958  0.00  0.00    -0.244 OA
ENDBRANCH  21  22
BRANCH  21  25
ATOM     25  CB  MET A   1       8.266   5.767   3.203  0.00  0.00    +0.044 C 
BRANCH  25  26
ATOM     26  CG  MET A   1       9.015   4.508   2.763  0.00  0.00    +0.071 C 
BRANCH  26  27
ATOM     27  SD  MET A   1      10.802   4.812   2.832  0.00  0.00    -0.164 S 
ATOM     28  CE  MET A   1      11.536   3.245   2.288  0.00  0.00    +0.084 C 
ENDBRANCH  26  27
ENDBRANCH  25  26
ENDBRANCH  21  25
ENDBRANCH  19  21
ENDBRANCH  16  17
ENDBRANCH   7  16
TORSDOF 8
