REMARK  Name = ZINC05413395
REMARK  6 active torsions:
REMARK  status: ('A' for Active; 'I' for Inactive)
REMARK    1  A    between atoms: C_3  and  C_6
REMARK    2  A    between atoms: C_12  and  C_14
REMARK    3  A    between atoms: N_16  and  C_17
REMARK    4  A    between atoms: C_17  and  C_19
REMARK    5  A    between atoms: C_17  and  C_26
REMARK    6  A    between atoms: C_19  and  C_20
REMARK                            x       y       z     vdW  Elec       q    Type
REMARK                         _______ _______ _______ _____ _____    ______ ____
ROOT
ATOM      1  C   UNL     1      -0.876  -0.905   0.641  0.00  0.00    +0.232 C 
ATOM      2  O   UNL     1      -0.532  -0.758   1.795  0.00  0.00    -0.274 OA
ATOM      3  N   UNL     1      -0.922   0.155  -0.189  0.00  0.00    -0.303 N 
ATOM      4  H   UNL     1      -1.198   0.037  -1.112  0.00  0.00    +0.150 HD
ENDROOT
BRANCH   1  11
ATOM      5  C   UNL     1      -3.196  -1.888   1.582  0.00  0.00    +0.254 C 
ATOM      6  O   UNL     1      -2.916  -0.704   1.616  0.00  0.00    -0.269 OA
ATOM      7  N   UNL     1      -2.481  -2.728   0.807  0.00  0.00    -0.289 N 
ATOM      8  C   UNL     1      -2.908  -4.121   0.610  0.00  0.00    +0.090 C 
ATOM      9  C   UNL     1      -1.720  -5.041   0.909  0.00  0.00    -0.063 C 
ATOM     10  C   UNL     1      -0.128  -3.266   0.450  0.00  0.00    -0.050 C 
ATOM     11  C   UNL     1      -1.253  -2.274   0.137  0.00  0.00    +0.145 C 
ATOM     12  N   UNL     1      -0.560  -4.633   0.091  0.00  0.00    +0.382 N 
ATOM     13  H   UNL     1      -0.823  -4.654  -0.901  0.00  0.00    -0.086 HD
ATOM     14  H   UNL     1       0.215  -5.286   0.254  0.00  0.00    -0.086 HD
BRANCH   5  17
ATOM     15  C   UNL     1      -6.358  -2.473   3.543  0.00  0.00    +0.008 A 
ATOM     16  C   UNL     1      -5.465  -1.750   2.792  0.00  0.00    +0.021 A 
ATOM     17  C   UNL     1      -4.312  -2.401   2.383  0.00  0.00    +0.074 A 
ATOM     18  S   UNL     1      -4.543  -4.027   3.079  0.00  0.00    -0.092 S 
ATOM     19  C   UNL     1      -6.076  -3.768   3.845  0.00  0.00    +0.046 A 
ENDBRANCH   5  17
ENDBRANCH   1  11
BRANCH   3  20
ATOM     20  C   UNL     1      -0.556   1.486   0.301  0.00  0.00    +0.159 C 
BRANCH  20  21
ATOM     21  C   UNL     1      -1.753   2.128   0.953  0.00  0.00    +0.231 C 
ATOM     22  O   UNL     1      -2.808   1.533   1.003  0.00  0.00    -0.274 OA
ATOM     23  N   UNL     1      -1.651   3.364   1.481  0.00  0.00    -0.328 N 
ATOM     24  H   UNL     1      -0.807   3.841   1.441  0.00  0.00    +0.145 HD
ATOM     25  H   UNL     1      -2.422   3.777   1.901  0.00  0.00    +0.145 HD
ENDBRANCH  20  21
BRANCH  20  26
ATOM     26  C   UNL     1      -0.089   2.351  -0.871  0.00  0.00    +0.035 C 
BRANCH  26  27
ATOM     27  C   UNL     1       1.199   1.766  -1.455  0.00  0.00    -0.009 C 
ATOM     28  C   UNL     1       2.317   1.856  -0.415  0.00  0.00    +0.003 C 
ATOM     29  C   UNL     1       3.605   1.271  -0.998  0.00  0.00    +0.000 C 
ATOM     30  C   UNL     1       4.005   2.062  -2.246  0.00  0.00    +0.000 C 
ATOM     31  C   UNL     1       2.886   1.972  -3.286  0.00  0.00    +0.000 C 
ATOM     32  C   UNL     1       1.598   2.557  -2.703  0.00  0.00    +0.003 C 
ENDBRANCH  26  27
ENDBRANCH  20  26
ENDBRANCH   3  20
TORSDOF 6
