REMARK  Name = ZINC48056593
REMARK  4 active torsions:
REMARK  status: ('A' for Active; 'I' for Inactive)
REMARK    1  A    between atoms: C_1  and  C_2
REMARK    2  A    between atoms: C_5  and  O_30
REMARK    3  A    between atoms: C_8  and  O_29
REMARK    4  A    between atoms: C_17  and  C_28
REMARK                            x       y       z     vdW  Elec       q    Type
REMARK                         _______ _______ _______ _____ _____    ______ ____
ROOT
ATOM      1  C   UNL     1      -0.019   1.529   0.010  0.00  0.00    +0.014 C 
ATOM      2  C   UNL     1       0.002  -0.004   0.002  0.00  0.00    -0.000 C 
ATOM      3  C   UNL     1      -1.448  -0.497   0.040  0.00  0.00    +0.012 C 
ATOM      4  C   UNL     1      -1.481  -2.023   0.068  0.00  0.00    +0.032 C 
ATOM      5  C   UNL     1      -0.761  -2.529   1.318  0.00  0.00    +0.117 C 
ATOM      6  C   UNL     1       0.680  -2.028   1.330  0.00  0.00    +0.066 C 
ATOM      7  C   UNL     1       0.743  -0.505   1.243  0.00  0.00    +0.074 C 
ATOM      8  C   UNL     1       2.209  -0.068   1.198  0.00  0.00    +0.035 C 
ATOM      9  C   UNL     1       2.883  -0.579  -0.073  0.00  0.00    +0.007 C 
ATOM     10  C   UNL     1       2.148  -0.027  -1.302  0.00  0.00    -0.003 C 
ATOM     11  C   UNL     1       0.693  -0.523  -1.254  0.00  0.00    +0.001 C 
ATOM     12  C   UNL     1      -0.090  -0.186  -2.512  0.00  0.00    +0.005 C 
ATOM     13  C   UNL     1       0.630  -0.611  -3.800  0.00  0.00    +0.015 C 
ATOM     14  C   UNL     1       2.027  -0.008  -3.787  0.00  0.00    +0.030 C 
ATOM     15  C   UNL     1       2.745  -0.613  -2.564  0.00  0.00    +0.009 C 
ATOM     16  C   UNL     1       4.230  -0.452  -2.830  0.00  0.00    +0.004 C 
ATOM     17  C   UNL     1       4.806   0.962  -2.754  0.00  0.00    +0.005 C 
ATOM     18  C   UNL     1       5.007   0.969  -4.273  0.00  0.00    +0.011 C 
ATOM     19  C   UNL     1       4.338  -0.403  -4.379  0.00  0.00    +0.059 C 
ATOM     20  C   UNL     1       2.923  -0.373  -4.936  0.00  0.00    +0.143 C 
ATOM     21  O   UNL     1       2.583  -0.598  -6.073  0.00  0.00    -0.297 OA
ATOM     22  C   UNL     1       1.898   1.512  -3.725  0.00  0.00    +0.019 C 
ENDROOT
BRANCH   7  23
ATOM     23  O   UNL     1       0.136   0.064   2.410  0.00  0.00    -0.388 OA
ATOM     24  H   UNL     1       0.551  -0.206   3.240  0.00  0.00    +0.210 HD
ENDBRANCH   7  23
BRANCH   5  25
ATOM     25  O   UNL     1      -1.450  -2.085   2.487  0.00  0.00    -0.392 OA
ATOM     26  H   UNL     1      -2.364  -2.393   2.546  0.00  0.00    +0.210 HD
ENDBRANCH   5  25
TORSDOF 2
