REMARK  Name = ZINC39084542
REMARK  6 active torsions:
REMARK  status: ('A' for Active; 'I' for Inactive)
REMARK    1  A    between atoms: C_1  and  N_2
REMARK    2  A    between atoms: C_3  and  C_12
REMARK    3  A    between atoms: C_4  and  N_11
REMARK    4  A    between atoms: C_5  and  C_7
REMARK    5  A    between atoms: C_7  and  O_9
REMARK    6  A    between atoms: O_9  and  C_10
REMARK                            x       y       z     vdW  Elec       q    Type
REMARK                         _______ _______ _______ _____ _____    ______ ____
ROOT
ATOM      1  C   UNL     1       0.172   1.457  -0.010  0.00  0.00    +0.173 C 
ATOM      2  N   UNL     1       0.086  -0.006  -0.007  0.00  0.00    -0.260 N 
ATOM      3  C   UNL     1      -0.091  -0.787  -1.123  0.00  0.00    +0.144 A 
ATOM      4  C   UNL     1      -0.117  -2.104  -0.679  0.00  0.00    +0.090 A 
ATOM      5  C   UNL     1       0.052  -2.022   0.727  0.00  0.00    +0.190 A 
ATOM      6  N   UNL     1       0.170  -0.746   1.039  0.00  0.00    -0.162 NA
ENDROOT
BRANCH   3   7
ATOM      7  C   UNL     1      -0.225  -0.324  -2.506  0.00  0.00    +0.261 C 
ATOM      8  O   UNL     1      -1.330  -0.146  -2.984  0.00  0.00    -0.269 OA
ATOM      9  N   UNL     1       0.875  -0.094  -3.250  0.00  0.00    -0.324 N 
ATOM     10  H   UNL     1       1.753  -0.304  -2.894  0.00  0.00    +0.145 HD
ATOM     11  H   UNL     1       0.789   0.281  -4.140  0.00  0.00    +0.145 HD
ENDBRANCH   3   7
BRANCH   4  12
ATOM     12  N   UNL     1      -0.274  -3.250  -1.445  0.00  0.00    -0.354 N 
ATOM     13  H   UNL     1      -0.383  -3.180  -2.406  0.00  0.00    +0.142 HD
ATOM     14  H   UNL     1      -0.276  -4.122  -1.019  0.00  0.00    +0.142 HD
ENDBRANCH   4  12
BRANCH   5  15
ATOM     15  C   UNL     1       0.094  -3.156   1.666  0.00  0.00    +0.361 C 
ATOM     16  O   UNL     1      -0.022  -4.293   1.252  0.00  0.00    -0.243 OA
BRANCH  15  17
ATOM     17  O   UNL     1       0.261  -2.933   2.984  0.00  0.00    -0.463 OA
ATOM     18  C   UNL     1       0.292  -4.080   3.837  0.00  0.00    +0.280 C 
ENDBRANCH  15  17
ENDBRANCH   5  15
TORSDOF 4
