REMARK  Name = ZINC62794682
REMARK  6 active torsions:
REMARK  status: ('A' for Active; 'I' for Inactive)
REMARK    1  A    between atoms: C_1  and  C_2
REMARK    2  A    between atoms: N_5  and  C_11
REMARK    3  A    between atoms: C_7  and  C_9
REMARK    4  A    between atoms: C_7  and  C_10
REMARK    5  A    between atoms: C_14  and  C_18
REMARK    6  A    between atoms: N_19  and  O_20
REMARK                            x       y       z     vdW  Elec       q    Type
REMARK                         _______ _______ _______ _____ _____    ______ ____
ROOT
ATOM      1  C   UNL     1       0.484  -2.766  -2.190  0.00  0.00    +0.048 A 
ATOM      2  C   UNL     1      -0.771  -3.365  -2.167  0.00  0.00    +0.025 A 
ATOM      3  C   UNL     1      -1.161  -4.190  -3.198  0.00  0.00    +0.013 A 
ATOM      4  C   UNL     1      -0.296  -4.426  -4.268  0.00  0.00    +0.019 A 
ATOM      5  C   UNL     1       0.963  -3.824  -4.290  0.00  0.00    +0.033 A 
ATOM      6  C   UNL     1       1.347  -2.994  -3.258  0.00  0.00    +0.063 A 
ATOM      7 CL   UNL     1       2.910  -2.239  -3.288  0.00  0.00    -0.082 Cl
ENDROOT
BRANCH   1  11
ATOM      8  C   UNL     1      -0.331   1.331   0.343  0.00  0.00    +0.039 C 
ATOM      9  C   UNL     1      -0.115  -0.180   0.229  0.00  0.00    +0.133 C 
ATOM     10  C   UNL     1       0.507  -0.507  -1.133  0.00  0.00    +0.136 C 
ATOM     11  N   UNL     1       0.877  -1.931  -1.145  0.00  0.00    -0.324 N 
ATOM     12  C   UNL     1       1.673  -2.448  -0.020  0.00  0.00    +0.139 C 
ATOM     13  C   UNL     1       0.994  -2.026   1.288  0.00  0.00    +0.080 C 
ATOM     14  O   UNL     1       0.766  -0.615   1.267  0.00  0.00    -0.368 OA
ATOM     15  C   UNL     1       1.897  -2.381   2.470  0.00  0.00    +0.043 C 
ATOM     16  C   UNL     1      -0.343  -2.757   1.428  0.00  0.00    +0.043 C 
ENDBRANCH   1  11
BRANCH   4  17
ATOM     17  C   UNL     1      -0.713  -5.312  -5.376  0.00  0.00    +0.162 C 
ATOM     18  N   UNL     1      -1.887  -5.873  -5.354  0.00  0.00    -0.072 NA
ATOM     19  N   UNL     1       0.146  -5.545  -6.437  0.00  0.00    -0.340 N 
ATOM     20  H   UNL     1       1.021  -5.127  -6.453  0.00  0.00    +0.144 HD
ATOM     21  H   UNL     1      -0.128  -6.127  -7.164  0.00  0.00    +0.144 HD
BRANCH  18  22
ATOM     22  O   UNL     1      -2.286  -6.722  -6.415  0.00  0.00    -0.408 OA
ATOM     23  H   UNL     1      -3.174  -7.092  -6.310  0.00  0.00    +0.328 HD
ENDBRANCH  18  22
ENDBRANCH   4  17
TORSDOF 3
