REMARK  Name = ZINC40759196
REMARK  6 active torsions:
REMARK  status: ('A' for Active; 'I' for Inactive)
REMARK    1  A    between atoms: C_1  and  C_2
REMARK    2  A    between atoms: C_5  and  C_8
REMARK    3  A    between atoms: C_8  and  N_9
REMARK    4  A    between atoms: C_11  and  N_24
REMARK    5  A    between atoms: C_12  and  N_16
REMARK    6  A    between atoms: N_16  and  C_17
REMARK                            x       y       z     vdW  Elec       q    Type
REMARK                         _______ _______ _______ _____ _____    ______ ____
ROOT
ATOM      1  N   UNL     1       1.575  -4.814  -1.187  0.00  0.00    -0.323 N 
ATOM      2  C   UNL     1       1.817  -6.160  -0.945  0.00  0.00    +0.145 A 
ATOM      3  C   UNL     1       3.100  -6.603  -0.619  0.00  0.00    +0.105 A 
ATOM      4  C   UNL     1       3.288  -7.966  -0.385  0.00  0.00    +0.149 A 
ATOM      5  N   UNL     1       2.244  -8.786  -0.481  0.00  0.00    -0.219 NA
ATOM      6  C   UNL     1       1.049  -8.328  -0.791  0.00  0.00    +0.225 A 
ATOM      7  N   UNL     1       0.827  -7.048  -1.014  0.00  0.00    -0.219 NA
ATOM      8  H   UNL     1       2.301  -4.173  -1.134  0.00  0.00    +0.148 HD
ENDROOT
BRANCH   3   9
ATOM      9  N   UNL     1       4.173  -5.701  -0.530  0.00  0.00    -0.353 N 
ATOM     10  H   UNL     1       4.028  -4.756  -0.695  0.00  0.00    +0.143 HD
ATOM     11  H   UNL     1       5.059  -6.023  -0.302  0.00  0.00    +0.143 HD
ENDBRANCH   3   9
BRANCH   4  12
ATOM     12  N   UNL     1       4.546  -8.459  -0.058  0.00  0.00    -0.296 N 
ATOM     13  H   UNL     1       5.280  -7.846   0.103  0.00  0.00    +0.154 HD
BRANCH  12  14
ATOM     14  C   UNL     1       4.753  -9.839   0.039  0.00  0.00    +0.068 A 
ATOM     15  C   UNL     1       3.859 -10.720  -0.556  0.00  0.00    +0.026 A 
ATOM     16  C   UNL     1       4.066 -12.083  -0.458  0.00  0.00    +0.002 A 
ATOM     17  C   UNL     1       5.161 -12.571   0.231  0.00  0.00    +0.003 A 
ATOM     18  C   UNL     1       6.053 -11.698   0.826  0.00  0.00    +0.040 A 
ATOM     19  C   UNL     1       5.856 -10.333   0.728  0.00  0.00    +0.144 A 
ATOM     20  F   UNL     1       6.731  -9.479   1.303  0.00  0.00    -0.204 F 
ENDBRANCH  12  14
ENDBRANCH   4  12
BRANCH   1  21
ATOM     21  C   UNL     1       0.222  -4.361  -1.522  0.00  0.00    +0.138 C 
BRANCH  21  26
ATOM     22  C   UNL     1       0.249   1.359  -2.340  0.00  0.00    +0.044 C 
ATOM     23  C   UNL     1       0.242  -0.132  -2.127  0.00  0.00    -0.050 A 
ATOM     24  C   UNL     1       0.472  -0.984  -3.191  0.00  0.00    +0.003 A 
ATOM     25  C   UNL     1       0.465  -2.352  -2.995  0.00  0.00    +0.005 A 
ATOM     26  C   UNL     1       0.230  -2.869  -1.735  0.00  0.00    -0.030 A 
ATOM     27  C   UNL     1       0.001  -2.018  -0.670  0.00  0.00    +0.005 A 
ATOM     28  C   UNL     1       0.012  -0.649  -0.865  0.00  0.00    +0.003 A 
ENDBRANCH  21  26
ENDBRANCH   1  21
TORSDOF 5
