REMARK  Name = ZINC20295280
REMARK  3 active torsions:
REMARK  status: ('A' for Active; 'I' for Inactive)
REMARK    1  A    between atoms: C_1  and  C_2
REMARK    2  A    between atoms: C_5  and  C_14
REMARK    3  A    between atoms: C_20  and  C_22
REMARK                            x       y       z     vdW  Elec       q    Type
REMARK                         _______ _______ _______ _____ _____    ______ ____
ROOT
ATOM      1  C   UNL     1       4.684  -5.523  -1.855  0.00  0.00    +0.028 C 
ATOM      2  C   UNL     1       4.587  -4.004  -1.704  0.00  0.00    +0.068 C 
ATOM      3  C   UNL     1       3.151  -3.609  -1.333  0.00  0.00    +0.039 C 
ATOM      4  C   UNL     1       3.062  -2.085  -1.257  0.00  0.00    +0.109 C 
ATOM      5  C   UNL     1       4.151  -1.538  -0.372  0.00  0.00    -0.015 A 
ATOM      6  C   UNL     1       4.000  -0.271   0.169  0.00  0.00    +0.006 A 
ATOM      7  C   UNL     1       4.983   0.260   0.982  0.00  0.00    +0.000 A 
ATOM      8  C   UNL     1       6.124  -0.469   1.260  0.00  0.00    +0.002 A 
ATOM      9  C   UNL     1       6.281  -1.732   0.727  0.00  0.00    +0.023 A 
ATOM     10  C   UNL     1       5.293  -2.271  -0.091  0.00  0.00    +0.031 A 
ATOM     11  N   UNL     1       5.470  -3.554  -0.619  0.00  0.00    -0.341 N 
ATOM     12  H   UNL     1       6.254  -4.223  -0.235  0.00  0.00    +0.146 HD
ENDROOT
BRANCH   4  13
ATOM     13  C   UNL     1       1.720  -1.692  -0.696  0.00  0.00    +0.224 C 
ATOM     14  O   UNL     1       1.544  -1.678   0.504  0.00  0.00    -0.275 OA
ATOM     15  N   UNL     1       0.714  -1.357  -1.528  0.00  0.00    -0.289 N 
ATOM     16  C   UNL     1       0.816  -1.234  -2.994  0.00  0.00    +0.108 C 
ATOM     17  C   UNL     1      -0.332  -0.274  -3.392  0.00  0.00    +0.021 C 
ATOM     18  C   UNL     1      -1.452  -0.700  -2.406  0.00  0.00    +0.033 C 
ATOM     19  C   UNL     1      -0.667  -1.054  -1.125  0.00  0.00    +0.162 C 
BRANCH  19  20
ATOM     20  C   UNL     1      -0.682   0.117  -0.176  0.00  0.00    +0.231 C 
ATOM     21  O   UNL     1       0.360   0.647   0.150  0.00  0.00    -0.274 OA
ATOM     22  N   UNL     1      -1.852   0.575   0.311  0.00  0.00    -0.328 N 
ATOM     23  H   UNL     1      -1.863   1.429   1.004  0.00  0.00    +0.145 HD
ATOM     24  H   UNL     1      -2.796   0.095   0.016  0.00  0.00    +0.145 HD
ENDBRANCH  19  20
ENDBRANCH   4  13
TORSDOF 2
