REMARK  Name = ZINC03178225
REMARK  8 active torsions:
REMARK  status: ('A' for Active; 'I' for Inactive)
REMARK    1  A    between atoms: C_3  and  O_24
REMARK    2  A    between atoms: C_6  and  C_7
REMARK    3  A    between atoms: C_10  and  C_21
REMARK    4  A    between atoms: C_11  and  C_19
REMARK    5  A    between atoms: C_12  and  N_18
REMARK    6  A    between atoms: C_13  and  C_14
REMARK    7  A    between atoms: C_13  and  C_16
REMARK    8  A    between atoms: O_24  and  C_25
REMARK                            x       y       z     vdW  Elec       q    Type
REMARK                         _______ _______ _______ _____ _____    ______ ____
ROOT
ATOM      1  C   UNL     1       2.328   0.111   0.795  0.00  0.00    +0.082 C 
ATOM      2  C   UNL     1       1.103  -0.649   0.367  0.00  0.00    -0.011 C 
ATOM      3  C   UNL     1       0.002  -0.004   0.002  0.00  0.00    -0.029 C 
ATOM      4  C   UNL     1      -0.019   1.473   0.012  0.00  0.00    +0.074 C 
ATOM      5  C   UNL     1       1.161   2.156   0.005  0.00  0.00    +0.054 C 
ATOM      6  C   UNL     1       2.462   1.398  -0.018  0.00  0.00    +0.191 C 
ENDROOT
BRANCH   1  12
ATOM      7  C   UNL     1       1.168   1.237   2.706  0.00  0.00    +0.008 A 
ATOM      8  C   UNL     1       1.061   1.548   4.047  0.00  0.00    +0.046 A 
ATOM      9  C   UNL     1       2.013   1.085   4.944  0.00  0.00    +0.127 A 
ATOM     10  C   UNL     1       3.067   0.305   4.492  0.00  0.00    +0.046 A 
ATOM     11  C   UNL     1       3.167  -0.008   3.150  0.00  0.00    +0.008 A 
ATOM     12  C   UNL     1       2.217   0.455   2.258  0.00  0.00    -0.037 A 
BRANCH   9  13
ATOM     13  O   UNL     1       1.913   1.396   6.263  0.00  0.00    -0.434 OA
BRANCH  13  14
ATOM     14  C   UNL     1       0.801   2.203   6.658  0.00  0.00    +0.541 C 
ATOM     15  F   UNL     1       0.853   3.429   5.986  0.00  0.00    -0.166 F 
ATOM     16  F   UNL     1      -0.390   1.544   6.335  0.00  0.00    -0.166 F 
ENDBRANCH  13  14
ENDBRANCH   9  13
ENDBRANCH   1  12
BRANCH   5  17
ATOM     17  N   UNL     1       1.164   3.523   0.016  0.00  0.00    -0.358 N 
ATOM     18  H   UNL     1       2.117   4.071   0.010  0.00  0.00    +0.142 HD
ATOM     19  H   UNL     1       0.212   4.074   0.032  0.00  0.00    +0.142 HD
ENDBRANCH   5  17
BRANCH   3  20
ATOM     20  C   UNL     1      -1.222  -0.775  -0.422  0.00  0.00    +0.020 C 
ATOM     21  C   UNL     1      -1.010  -2.003  -1.310  0.00  0.00    +0.009 C 
ATOM     22  C   UNL     1      -1.611  -0.725  -1.900  0.00  0.00    +0.009 C 
ENDBRANCH   3  20
BRANCH   6  23
ATOM     23  C   UNL     1       3.526   2.234   0.562  0.00  0.00    +0.091 C 
ATOM     24  N   UNL     1       4.347   2.879   1.010  0.00  0.00    -0.194 NA
ENDBRANCH   6  23
BRANCH   6  25
ATOM     25  C   UNL     1       2.810   1.063  -1.409  0.00  0.00    +0.091 C 
ATOM     26  N   UNL     1       3.078   0.805  -2.482  0.00  0.00    -0.194 NA
ENDBRANCH   6  25
BRANCH   4  27
ATOM     27  C   UNL     1      -1.264   2.180   0.024  0.00  0.00    +0.101 C 
ATOM     28  N   UNL     1      -2.252   2.740   0.034  0.00  0.00    -0.191 NA
ENDBRANCH   4  27
TORSDOF 8
