REMARK  Name = ZINC50146036
REMARK  11 active torsions:
REMARK  status: ('A' for Active; 'I' for Inactive)
REMARK    1  A    between atoms: C_1  and  C_2
REMARK    2  A    between atoms: C_4  and  C_29
REMARK    3  A    between atoms: C_5  and  N_9
REMARK    4  A    between atoms: C_6  and  C_8
REMARK    5  A    between atoms: C_10  and  C_12
REMARK    6  A    between atoms: C_12  and  N_13
REMARK    7  A    between atoms: C_14  and  C_16
REMARK    8  A    between atoms: N_18  and  C_19
REMARK    9  A    between atoms: C_21  and  C_27
REMARK   10  A    between atoms: C_24  and  O_25
REMARK   11  A    between atoms: O_25  and  C_26
REMARK                            x       y       z     vdW  Elec       q    Type
REMARK                         _______ _______ _______ _____ _____    ______ ____
ROOT
ATOM      1  N   UNL     1       0.964  -7.238   1.927  0.00  0.00    -0.299 N 
ATOM      2  C   UNL     1       0.974  -8.569   2.139  0.00  0.00    +0.300 C 
ATOM      3  O   UNL     1       0.592  -9.325   1.270  0.00  0.00    -0.265 OA
ATOM      4  H   UNL     1       1.269  -6.634   2.621  0.00  0.00    +0.150 HD
ENDROOT
BRANCH   2   5
ATOM      5  C   UNL     1       1.456  -9.113   3.444  0.00  0.00    +0.303 C 
ATOM      6  O   UNL     1       1.837  -8.357   4.313  0.00  0.00    -0.265 OA
ATOM      7  N   UNL     1       1.466 -10.444   3.656  0.00  0.00    -0.275 N 
ATOM      8  H   UNL     1       1.102 -11.045   2.988  0.00  0.00    +0.155 HD
BRANCH   7   9
ATOM      9  C   UNL     1       2.002 -10.959   4.842  0.00  0.00    +0.077 A 
ATOM     10  C   UNL     1       2.868 -10.192   5.601  0.00  0.00    +0.046 A 
ATOM     11  C   UNL     1       3.400 -10.710   6.784  0.00  0.00    +0.054 A 
ATOM     12  C   UNL     1       3.056 -12.000   7.196  0.00  0.00    +0.022 A 
ATOM     13  C   UNL     1       2.193 -12.760   6.436  0.00  0.00    +0.049 A 
ATOM     14  C   UNL     1       1.659 -12.245   5.263  0.00  0.00    +0.141 A 
BRANCH  14  15
ATOM     15  O   UNL     1       0.804 -12.995   4.520  0.00  0.00    -0.493 OA
ATOM     16  C   UNL     1       0.496 -14.302   5.010  0.00  0.00    +0.277 C 
ENDBRANCH  14  15
BRANCH  11  17
ATOM     17  C   UNL     1       4.298  -9.920   7.573  0.00  0.00    +0.099 C 
ATOM     18  N   UNL     1       5.009  -9.294   8.199  0.00  0.00    -0.191 NA
ENDBRANCH  11  17
ENDBRANCH   7   9
ENDBRANCH   2   5
BRANCH   1  19
ATOM     19  C   UNL     1       0.491  -6.705   0.647  0.00  0.00    +0.200 C 
BRANCH  19  21
ATOM     20  N   UNL     1       0.198  -4.489  -0.412  0.00  0.00    -0.284 N 
ATOM     21  C   UNL     1       0.581  -5.200   0.666  0.00  0.00    +0.234 C 
ATOM     22  O   UNL     1       0.999  -4.630   1.652  0.00  0.00    -0.274 OA
ATOM     23  H   UNL     1      -0.213  -4.937  -1.168  0.00  0.00    +0.155 HD
BRANCH  20  28
ATOM     24  C   UNL     1       0.984   1.128  -0.532  0.00  0.00    +0.044 C 
ATOM     25  C   UNL     1       0.775  -0.364  -0.500  0.00  0.00    -0.050 A 
ATOM     26  C   UNL     1       1.324  -1.158  -1.490  0.00  0.00    +0.008 A 
ATOM     27  C   UNL     1       1.134  -2.526  -1.464  0.00  0.00    -0.029 A 
ATOM     28  C   UNL     1       0.392  -3.103  -0.442  0.00  0.00    +0.039 A 
ATOM     29  C   UNL     1      -0.157  -2.303   0.551  0.00  0.00    -0.029 A 
ATOM     30  C   UNL     1       0.040  -0.936   0.522  0.00  0.00    +0.008 A 
ATOM     31  C   UNL     1      -0.963  -2.925   1.662  0.00  0.00    +0.045 C 
ATOM     32  C   UNL     1       1.731  -3.391  -2.544  0.00  0.00    +0.045 C 
ENDBRANCH  20  28
ENDBRANCH  19  21
ENDBRANCH   1  19
TORSDOF 7
