REMARK  Name = ZINC40513477
REMARK  4 active torsions:
REMARK  status: ('A' for Active; 'I' for Inactive)
REMARK    1  A    between atoms: N_5  and  C_12
REMARK    2  A    between atoms: C_7  and  C_8
REMARK    3  A    between atoms: C_12  and  C_13
REMARK    4  A    between atoms: N_15  and  C_16
REMARK                            x       y       z     vdW  Elec       q    Type
REMARK                         _______ _______ _______ _____ _____    ______ ____
ROOT
ATOM      1  C   UNL     1       3.532  -0.864  -0.021  0.00  0.00    +0.220 C 
ENDROOT
BRANCH   1   6
ATOM      2  C   UNL     1      -0.363   0.737   0.058  0.00  0.00    +0.019 A 
ATOM      3  C   UNL     1       0.714   1.573   0.105  0.00  0.00    +0.071 A 
ATOM      4  C   UNL     1       2.009   1.028   0.078  0.00  0.00    +0.252 A 
ATOM      5  O   UNL     1       2.981   1.765   0.120  0.00  0.00    -0.268 OA
ATOM      6  N   UNL     1       2.178  -0.306   0.007  0.00  0.00    -0.306 N 
ATOM      7  C   UNL     1       1.107  -1.140  -0.040  0.00  0.00    +0.102 A 
ATOM      8  C   UNL     1      -0.153  -0.648  -0.017  0.00  0.00    +0.071 A 
BRANCH   8   9
ATOM      9  C   UNL     1      -1.330  -1.587  -0.070  0.00  0.00    +0.419 C 
ATOM     10  F   UNL     1      -1.770  -1.859   1.230  0.00  0.00    -0.166 F 
ATOM     11  F   UNL     1      -2.367  -0.994  -0.798  0.00  0.00    -0.166 F 
ATOM     12  F   UNL     1      -0.947  -2.780  -0.692  0.00  0.00    -0.166 F 
ENDBRANCH   8   9
ENDBRANCH   1   6
BRANCH   1  13
ATOM     13  C   UNL     1       3.994  -1.132   1.389  0.00  0.00    +0.237 C 
ATOM     14  O   UNL     1       3.264  -0.881   2.324  0.00  0.00    -0.274 OA
ATOM     15  N   UNL     1       5.219  -1.650   1.609  0.00  0.00    -0.280 N 
ATOM     16  H   UNL     1       5.774  -1.918   0.861  0.00  0.00    +0.155 HD
BRANCH  15  17
ATOM     17  C   UNL     1       5.690  -1.801   2.923  0.00  0.00    +0.097 A 
ATOM     18  C   UNL     1       6.052  -3.023   3.386  0.00  0.00    +0.110 A 
ATOM     19  N   UNL     1       6.508  -3.174   4.656  0.00  0.00    -0.365 N 
ATOM     20  C   UNL     1       6.617  -2.119   5.498  0.00  0.00    +0.086 A 
ATOM     21  C   UNL     1       6.272  -0.874   5.098  0.00  0.00    +0.070 A 
ATOM     22  C   UNL     1       5.799  -0.677   3.782  0.00  0.00    +0.203 A 
ATOM     23  O   UNL     1       5.485   0.439   3.392  0.00  0.00    -0.286 OA
ATOM     24  H   UNL     1       6.762  -4.057   4.967  0.00  0.00    +0.165 HD
ENDBRANCH  15  17
ENDBRANCH   1  13
TORSDOF 4
