REMARK  Name = ZINC39522978
REMARK  3 active torsions:
REMARK  status: ('A' for Active; 'I' for Inactive)
REMARK    1  A    between atoms: C_1  and  O_2
REMARK    2  A    between atoms: O_2  and  C_3
REMARK    3  A    between atoms: N_9  and  O_10
REMARK                            x       y       z     vdW  Elec       q    Type
REMARK                         _______ _______ _______ _____ _____    ______ ____
ROOT
ATOM      1  C   UNL     1      -1.333  -0.531  -0.070  0.00  0.00    +0.213 C 
ATOM      2  C   UNL     1      -1.316  -2.007   0.335  0.00  0.00    +0.050 C 
ATOM      3  C   UNL     1      -2.733  -2.577   0.223  0.00  0.00    +0.006 C 
ATOM      4  C   UNL     1      -3.238  -2.391  -1.211  0.00  0.00    +0.025 C 
ATOM      5  C   UNL     1      -3.198  -0.904  -1.572  0.00  0.00    +0.051 C 
ATOM      6  N   UNL     1      -1.823  -0.406  -1.449  0.00  0.00    -0.156 NA
ATOM      7  C   UNL     1      -3.683  -0.717  -3.011  0.00  0.00    +0.025 C 
ATOM      8  C   UNL     1      -5.115  -1.239  -3.139  0.00  0.00    +0.003 C 
ATOM      9  C   UNL     1      -6.028  -0.461  -2.189  0.00  0.00    +0.019 C 
ATOM     10  C   UNL     1      -5.544  -0.647  -0.750  0.00  0.00    +0.082 C 
ATOM     11  C   UNL     1      -4.111  -0.126  -0.622  0.00  0.00    +0.044 C 
ATOM     12 CL   UNL     1      -6.619   0.270   0.369  0.00  0.00    -0.122 Cl
ENDROOT
BRANCH   1  14
ATOM     13  C   UNL     1       0.954  -0.711  -0.764  0.00  0.00    +0.196 C 
ATOM     14  O   UNL     1      -0.009   0.001   0.015  0.00  0.00    -0.363 OA
ENDBRANCH   1  14
BRANCH   6  15
ATOM     15  O   UNL     1      -1.722   0.977  -1.918  0.00  0.00    -0.309 OA
ATOM     16  H   UNL     1      -0.819   1.320  -1.938  0.00  0.00    +0.237 HD
ENDBRANCH   6  15
TORSDOF 2
