REMARK  Name = ZINC34904342
REMARK  3 active torsions:
REMARK  status: ('A' for Active; 'I' for Inactive)
REMARK    1  A    between atoms: C_1  and  C_2
REMARK    2  A    between atoms: C_2  and  N_3
REMARK    3  A    between atoms: C_8  and  C_25
REMARK                            x       y       z     vdW  Elec       q    Type
REMARK                         _______ _______ _______ _____ _____    ______ ____
ROOT
ATOM      1  N   UNL     1       0.711  -0.489   1.189  0.00  0.00    -0.242 N 
ATOM      2  C   UNL     1       2.031  -0.707   1.205  0.00  0.00    +0.227 C 
ATOM      3  O   UNL     1       2.780  -0.539   0.267  0.00  0.00    -0.275 OA
ATOM      4  C   UNL     1       2.443  -1.196   2.575  0.00  0.00    +0.107 C 
ATOM      5  C   UNL     1       2.904  -2.665   2.475  0.00  0.00    +0.064 C 
ATOM      6  N   UNL     1       1.660  -3.467   2.622  0.00  0.00    -0.296 NA
ATOM      7  C   UNL     1       0.881  -2.740   3.642  0.00  0.00    +0.136 C 
ATOM      8  C   UNL     1       1.102  -1.234   3.361  0.00  0.00    +0.122 C 
ATOM      9  C   UNL     1       0.091  -0.745   2.347  0.00  0.00    +0.228 C 
ATOM     10  O   UNL     1      -1.096  -0.610   2.551  0.00  0.00    -0.275 OA
ATOM     11  C   UNL     1      -0.574  -3.109   3.591  0.00  0.00    +0.003 A 
ATOM     12  C   UNL     1      -1.541  -3.023   2.614  0.00  0.00    +0.008 A 
ATOM     13  C   UNL     1      -2.828  -3.457   2.873  0.00  0.00    +0.000 A 
ATOM     14  C   UNL     1      -3.142  -3.977   4.116  0.00  0.00    +0.002 A 
ATOM     15  C   UNL     1      -2.178  -4.064   5.098  0.00  0.00    +0.023 A 
ATOM     16  C   UNL     1      -0.879  -3.629   4.846  0.00  0.00    +0.039 A 
ATOM     17  N   UNL     1       0.252  -3.611   5.664  0.00  0.00    -0.283 N 
ATOM     18  C   UNL     1       1.328  -3.104   5.032  0.00  0.00    +0.243 C 
ATOM     19  O   UNL     1       2.441  -2.967   5.494  0.00  0.00    -0.273 OA
ATOM     20  C   UNL     1       3.553  -2.929   1.115  0.00  0.00    +0.025 C 
ATOM     21  H   UNL     1       1.156  -3.514   1.749  0.00  0.00    +0.123 HD
ATOM     22  H   UNL     1       0.262  -3.928   6.581  0.00  0.00    +0.155 HD
ENDROOT
BRANCH   1  24
ATOM     23  C   UNL     1      -0.019   1.526   0.010  0.00  0.00    +0.025 C 
ATOM     24  C   UNL     1       0.002  -0.004   0.002  0.00  0.00    +0.113 C 
ENDBRANCH   1  24
TORSDOF 1
