REMARK  Name = ZINC16041494
REMARK  7 active torsions:
REMARK  status: ('A' for Active; 'I' for Inactive)
REMARK    1  A    between atoms: C_1  and  C_2
REMARK    2  A    between atoms: C_2  and  C_3
REMARK    3  A    between atoms: N_5  and  C_6
REMARK    4  A    between atoms: C_6  and  C_8
REMARK    5  A    between atoms: C_6  and  N_12
REMARK    6  A    between atoms: N_12  and  C_13
REMARK    7  A    between atoms: C_13  and  N_15
REMARK                            x       y       z     vdW  Elec       q    Type
REMARK                         _______ _______ _______ _____ _____    ______ ____
ROOT
ATOM      1  C   UNL     1       0.104  -1.227   3.252  0.00  0.00    +0.134 C 
ATOM      2  S   UNL     1      -0.227   0.339   3.859  0.00  0.00    -0.019 S 
ENDROOT
BRANCH   1   3
ATOM      3  N   UNL     1      -0.565  -1.689   2.177  0.00  0.00    -0.312 N 
ATOM      4  C   UNL     1      -0.216  -2.981   1.574  0.00  0.00    +0.112 C 
ATOM      5  C   UNL     1      -0.028  -2.826   0.071  0.00  0.00    +0.027 C 
ATOM      6  C   UNL     1      -1.214  -2.095  -0.559  0.00  0.00    +0.018 C 
ATOM      7  C   UNL     1      -1.331  -0.714   0.092  0.00  0.00    +0.054 C 
ATOM      8  C   UNL     1      -1.662  -0.909   1.582  0.00  0.00    +0.116 C 
ATOM      9  C   UNL     1      -0.005   0.004   0.005  0.00  0.00    +0.027 A 
ATOM     10  C   UNL     1      -0.028   1.363   0.016  0.00  0.00    +0.022 A 
ATOM     11  C   UNL     1       1.164   2.096   0.010  0.00  0.00    +0.007 A 
ATOM     12  C   UNL     1       2.350   1.423   0.026  0.00  0.00    +0.070 A 
ATOM     13  C   UNL     1       2.339   0.021   0.028  0.00  0.00    +0.251 A 
ATOM     14  O   UNL     1       3.392  -0.591   0.112  0.00  0.00    -0.268 OA
ATOM     15  N   UNL     1       1.171  -0.662  -0.062  0.00  0.00    -0.312 N 
ATOM     16  C   UNL     1       1.263  -2.107  -0.271  0.00  0.00    +0.130 C 
ENDBRANCH   1   3
BRANCH   1  17
ATOM     17  N   UNL     1       1.034  -1.999   3.849  0.00  0.00    -0.305 N 
ATOM     18  H   UNL     1       1.273  -2.856   3.464  0.00  0.00    +0.150 HD
BRANCH  17  19
ATOM     19  C   UNL     1       1.684  -1.542   5.080  0.00  0.00    +0.211 C 
BRANCH  19  22
ATOM     20  C   UNL     1       3.337   0.216   4.742  0.00  0.00    +0.214 C 
ATOM     21  O   UNL     1       2.469   1.034   4.962  0.00  0.00    -0.276 OA
ATOM     22  N   UNL     1       3.048  -1.100   4.777  0.00  0.00    -0.294 N 
ATOM     23  H   UNL     1       3.742  -1.754   4.602  0.00  0.00    +0.151 HD
BRANCH  20  25
ATOM     24  C   UNL     1       4.797   2.200   4.455  0.00  0.00    +0.013 C 
ATOM     25  C   UNL     1       4.740   0.671   4.431  0.00  0.00    +0.092 C 
ENDBRANCH  20  25
ENDBRANCH  19  22
BRANCH  19  26
ATOM     26  C   UNL     1       1.733  -2.692   6.088  0.00  0.00    +0.225 C 
ATOM     27 CL   UNL     1       2.669  -4.065   5.388  0.00  0.00    -0.080 Cl
ATOM     28 CL   UNL     1       2.533  -2.130   7.603  0.00  0.00    -0.080 Cl
ATOM     29 CL   UNL     1       0.055  -3.236   6.460  0.00  0.00    -0.080 Cl
ENDBRANCH  19  26
ENDBRANCH  17  19
ENDBRANCH   1  17
TORSDOF 6
