REMARK  Name = ZINC03159286
REMARK  4 active torsions:
REMARK  status: ('A' for Active; 'I' for Inactive)
REMARK    1  A    between atoms: C_1  and  C_2
REMARK    2  A    between atoms: C_2  and  C_4
REMARK    3  A    between atoms: C_2  and  N_10
REMARK    4  A    between atoms: N_13  and  C_14
REMARK                            x       y       z     vdW  Elec       q    Type
REMARK                         _______ _______ _______ _____ _____    ______ ____
ROOT
ATOM      1  N   UNL     1      -0.017   1.343  -0.007  0.00  0.00    -0.293 N 
ATOM      2  C   UNL     1       0.002  -0.004  -0.004  0.00  0.00    +0.304 C 
ATOM      3  O   UNL     1      -1.043  -0.627   0.007  0.00  0.00    -0.252 OA
ATOM      4  N   UNL     1       1.178  -0.662  -0.013  0.00  0.00    -0.268 N 
ATOM      5  H   UNL     1       0.816   1.840  -0.015  0.00  0.00    +0.151 HD
ATOM      6  H   UNL     1       2.010  -0.168  -0.087  0.00  0.00    +0.156 HD
ENDROOT
BRANCH   4   7
ATOM      7  C   UNL     1       1.200  -2.058   0.085  0.00  0.00    +0.049 A 
ATOM      8  C   UNL     1       0.193  -2.813  -0.500  0.00  0.00    +0.024 A 
ATOM      9  C   UNL     1       0.220  -4.191  -0.407  0.00  0.00    +0.002 A 
ATOM     10  C   UNL     1       1.244  -4.819   0.279  0.00  0.00    +0.001 A 
ATOM     11  C   UNL     1       2.247  -4.070   0.868  0.00  0.00    +0.017 A 
ATOM     12  C   UNL     1       2.228  -2.692   0.773  0.00  0.00    +0.039 A 
ATOM     13 BR   UNL     1       3.598  -1.669   1.580  0.00  0.00    -0.048 Br
ENDBRANCH   4   7
BRANCH   1  15
ATOM     14  C   UNL     1      -1.797   2.200   1.436  0.00  0.00    +0.033 C 
ATOM     15  C   UNL     1      -1.296   2.058  -0.003  0.00  0.00    +0.102 C 
BRANCH  15  16
ATOM     16  C   UNL     1      -1.109   3.426  -0.607  0.00  0.00    -0.027 A 
ATOM     17  C   UNL     1       0.025   4.160  -0.316  0.00  0.00    +0.005 A 
ATOM     18  C   UNL     1       0.199   5.413  -0.874  0.00  0.00    +0.000 A 
ATOM     19  C   UNL     1      -0.765   5.935  -1.716  0.00  0.00    +0.000 A 
ATOM     20  C   UNL     1      -1.902   5.202  -2.002  0.00  0.00    +0.000 A 
ATOM     21  C   UNL     1      -2.074   3.948  -1.448  0.00  0.00    +0.005 A 
ENDBRANCH  15  16
ENDBRANCH   1  15
TORSDOF 3
