REMARK  Name = ZINC13629169
REMARK  6 active torsions:
REMARK  status: ('A' for Active; 'I' for Inactive)
REMARK    1  A    between atoms: C_6  and  C_7
REMARK    2  A    between atoms: C_6  and  N_49
REMARK    3  A    between atoms: C_7  and  N_8
REMARK    4  A    between atoms: C_9  and  C_11
REMARK    5  A    between atoms: N_13  and  C_14
REMARK    6  A    between atoms: C_15  and  C_22
REMARK                            x       y       z     vdW  Elec       q    Type
REMARK                         _______ _______ _______ _____ _____    ______ ____
ROOT
ATOM      1  C   UNL     1      -2.507  -4.183   0.457  0.00  0.00    +0.304 C 
ATOM      2  O   UNL     1      -1.466  -4.775   0.261  0.00  0.00    -0.265 OA
ATOM      3  N   UNL     1      -3.645  -4.873   0.667  0.00  0.00    -0.272 N 
ATOM      4  H   UNL     1      -4.478  -4.401   0.823  0.00  0.00    +0.156 HD
ENDROOT
BRANCH   3   5
ATOM      5  C   UNL     1      -3.627  -6.257   0.659  0.00  0.00    +0.085 A 
ATOM      6  C   UNL     1      -4.681  -7.134   0.858  0.00  0.00    +0.068 A 
ATOM      7  C   UNL     1      -4.392  -8.565   0.795  0.00  0.00    -0.023 A 
ATOM      8  C   UNL     1      -3.105  -8.879   0.554  0.00  0.00    -0.004 A 
ATOM      9  S   UNL     1      -2.279  -7.313   0.406  0.00  0.00    -0.077 S 
ATOM     10  C   UNL     1      -2.887 -10.367   0.506  0.00  0.00    +0.043 C 
ATOM     11  C   UNL     1      -4.301 -10.961   0.321  0.00  0.00    +0.010 C 
ATOM     12  C   UNL     1      -5.187  -9.863   0.941  0.00  0.00    +0.037 C 
BRANCH   6  13
ATOM     13  C   UNL     1      -6.038  -6.643   1.119  0.00  0.00    +0.244 C 
ATOM     14  O   UNL     1      -6.799  -6.437   0.192  0.00  0.00    -0.270 OA
ATOM     15  N   UNL     1      -6.442  -6.420   2.385  0.00  0.00    -0.325 N 
ATOM     16  H   UNL     1      -5.835  -6.584   3.124  0.00  0.00    +0.145 HD
ATOM     17  H   UNL     1      -7.340  -6.096   2.558  0.00  0.00    +0.145 HD
ENDBRANCH   6  13
ENDBRANCH   3   5
BRANCH   1  19
ATOM     18  N   UNL     1      -1.389  -2.000   0.255  0.00  0.00    -0.309 N 
ATOM     19  C   UNL     1      -2.527  -2.690   0.465  0.00  0.00    +0.299 C 
ATOM     20  O   UNL     1      -3.569  -2.098   0.661  0.00  0.00    -0.265 OA
ATOM     21  H   UNL     1      -0.557  -2.472   0.099  0.00  0.00    +0.149 HD
BRANCH  18  22
ATOM     22  C   UNL     1      -1.409  -0.535   0.263  0.00  0.00    +0.086 C 
BRANCH  22  23
ATOM     23  C   UNL     1       0.002  -0.004   0.002  0.00  0.00    -0.060 C 
BRANCH  23  29
ATOM     24  C   UNL     1       0.473   4.127  -0.995  0.00  0.00    -0.004 C 
ATOM     25  C   UNL     1       1.290   3.531   0.155  0.00  0.00    -0.019 C 
ATOM     26  C   UNL     1       1.346   2.010   0.000  0.00  0.00    -0.079 C 
ATOM     27  C   UNL     1      -0.806   1.987  -1.113  0.00  0.00    -0.079 C 
ATOM     28  C   UNL     1      -0.927   3.507  -0.991  0.00  0.00    -0.019 C 
ATOM     29  N   UNL     1      -0.031   1.473   0.036  0.00  0.00    +0.381 N 
ATOM     30  H   UNL     1      -0.485   1.776   0.906  0.00  0.00    -0.082 HD
ENDBRANCH  23  29
ENDBRANCH  22  23
ENDBRANCH  18  22
ENDBRANCH   1  19
TORSDOF 6
