REMARK  Name = ZINC49992893
REMARK  8 active torsions:
REMARK  status: ('A' for Active; 'I' for Inactive)
REMARK    1  A    between atoms: C_1  and  N_2
REMARK    2  A    between atoms: C_6  and  N_13
REMARK    3  A    between atoms: N_9  and  C_12
REMARK    4  A    between atoms: C_14  and  C_16
REMARK    5  A    between atoms: C_16  and  N_17
REMARK    6  A    between atoms: C_18  and  C_20
REMARK    7  A    between atoms: C_20  and  O_21
REMARK    8  A    between atoms: O_21  and  C_22
REMARK                            x       y       z     vdW  Elec       q    Type
REMARK                         _______ _______ _______ _____ _____    ______ ____
ROOT
ATOM      1  N   UNL     1      -3.810  -4.024  -0.001  0.00  0.00    -0.284 N 
ATOM      2  C   UNL     1      -5.131  -3.785   0.109  0.00  0.00    +0.234 C 
ATOM      3  O   UNL     1      -5.543  -2.644   0.118  0.00  0.00    -0.274 OA
ATOM      4  H   UNL     1      -3.486  -4.935  -0.075  0.00  0.00    +0.155 HD
ENDROOT
BRANCH   1  10
ATOM      5  C   UNL     1       0.924   0.663   0.292  0.00  0.00    +0.154 C 
ATOM      6  N   UNL     1      -0.429   0.361  -0.181  0.00  0.00    -0.295 N 
ATOM      7  C   UNL     1      -1.100  -0.851  -0.017  0.00  0.00    +0.070 A 
ATOM      8  C   UNL     1      -0.758  -2.053   0.584  0.00  0.00    +0.030 A 
ATOM      9  C   UNL     1      -1.656  -3.101   0.589  0.00  0.00    +0.025 A 
ATOM     10  C   UNL     1      -2.903  -2.956  -0.008  0.00  0.00    +0.036 A 
ATOM     11  C   UNL     1      -3.252  -1.757  -0.611  0.00  0.00    +0.051 A 
ATOM     12  C   UNL     1      -2.352  -0.702  -0.617  0.00  0.00    +0.071 A 
ATOM     13  N   UNL     1      -2.403   0.593  -1.127  0.00  0.00    -0.295 N 
ATOM     14  C   UNL     1      -1.238   1.207  -0.845  0.00  0.00    +0.330 A 
ATOM     15  O   UNL     1      -0.959   2.352  -1.148  0.00  0.00    -0.246 OA
ATOM     16  C   UNL     1      -3.534   1.188  -1.843  0.00  0.00    +0.154 C 
ENDBRANCH   1  10
BRANCH   2  17
ATOM     17  C   UNL     1      -6.098  -4.935   0.222  0.00  0.00    +0.200 C 
BRANCH  17  18
ATOM     18  N   UNL     1      -7.464  -4.417   0.329  0.00  0.00    -0.304 N 
ATOM     19  C   UNL     1      -8.502  -5.269   0.441  0.00  0.00    +0.251 C 
ATOM     20  O   UNL     1      -8.305  -6.466   0.453  0.00  0.00    -0.272 OA
ATOM     21  H   UNL     1      -7.622  -3.459   0.320  0.00  0.00    +0.149 HD
BRANCH  19  22
ATOM     22  C   UNL     1      -9.907  -4.736   0.551  0.00  0.00    +0.324 C 
BRANCH  22  23
ATOM     23  O   UNL     1     -10.824  -5.826   0.658  0.00  0.00    -0.483 OA
BRANCH  23  24
ATOM     24  C   UNL     1     -12.143  -5.516   0.766  0.00  0.00    +0.121 A 
ATOM     25  C   UNL     1     -12.546  -4.189   0.763  0.00  0.00    +0.045 A 
ATOM     26  C   UNL     1     -13.887  -3.875   0.872  0.00  0.00    +0.004 A 
ATOM     27  C   UNL     1     -14.827  -4.883   0.985  0.00  0.00    +0.000 A 
ATOM     28  C   UNL     1     -14.427  -6.207   0.988  0.00  0.00    +0.004 A 
ATOM     29  C   UNL     1     -13.088  -6.526   0.873  0.00  0.00    +0.045 A 
ENDBRANCH  23  24
ENDBRANCH  22  23
ENDBRANCH  19  22
ENDBRANCH  17  18
ENDBRANCH   2  17
TORSDOF 6
