REMARK  Name = ZINC49037555
REMARK  5 active torsions:
REMARK  status: ('A' for Active; 'I' for Inactive)
REMARK    1  A    between atoms: C_5  and  C_7
REMARK    2  A    between atoms: C_7  and  N_8
REMARK    3  A    between atoms: N_13  and  C_14
REMARK    4  A    between atoms: C_14  and  C_15
REMARK    5  A    between atoms: C_28  and  C_30
REMARK                            x       y       z     vdW  Elec       q    Type
REMARK                         _______ _______ _______ _____ _____    ______ ____
ROOT
ATOM      1  N   UNL     1       1.489  -2.679   1.333  0.00  0.00    -0.311 N 
ATOM      2  C   UNL     1       1.553  -4.033   1.573  0.00  0.00    +0.198 A 
ATOM      3  N   UNL     1       1.403  -4.965   0.664  0.00  0.00    -0.195 NA
ATOM      4  C   UNL     1       1.526  -6.189   1.239  0.00  0.00    +0.180 A 
ATOM      5  C   UNL     1       1.772  -5.972   2.611  0.00  0.00    +0.089 A 
ATOM      6  N   UNL     1       1.789  -4.603   2.791  0.00  0.00    -0.307 N 
ATOM      7  C   UNL     1       1.943  -7.059   3.457  0.00  0.00    +0.032 A 
ATOM      8  C   UNL     1       1.865  -8.331   2.916  0.00  0.00    +0.035 A 
ATOM      9  C   UNL     1       1.619  -8.480   1.550  0.00  0.00    +0.128 A 
ATOM     10  N   UNL     1       1.460  -7.425   0.763  0.00  0.00    -0.221 NA
ATOM     11  H   UNL     1       1.615  -2.051   2.062  0.00  0.00    +0.149 HD
ENDROOT
BRANCH   9  12
ATOM     12  C   UNL     1       1.535  -9.839   0.971  0.00  0.00    +0.260 C 
ATOM     13  O   UNL     1       1.680 -10.813   1.683  0.00  0.00    -0.269 OA
ATOM     14  N   UNL     1       1.299  -9.996  -0.346  0.00  0.00    -0.324 N 
ATOM     15  H   UNL     1       1.183  -9.219  -0.915  0.00  0.00    +0.145 HD
ATOM     16  H   UNL     1       1.244 -10.887  -0.726  0.00  0.00    +0.145 HD
ENDBRANCH   9  12
BRANCH   1  17
ATOM     17  C   UNL     1       1.229  -2.186  -0.022  0.00  0.00    +0.141 C 
BRANCH  17  22
ATOM     18  C   UNL     1      -0.017   1.378   0.010  0.00  0.00    +0.000 A 
ATOM     19  C   UNL     1       1.171   2.086   0.002  0.00  0.00    +0.001 A 
ATOM     20  C   UNL     1       2.377   1.412  -0.013  0.00  0.00    +0.020 A 
ATOM     21  C   UNL     1       2.397   0.029  -0.021  0.00  0.00    +0.046 A 
ATOM     22  C   UNL     1       1.208  -0.679  -0.013  0.00  0.00    -0.012 A 
ATOM     23  C   UNL     1       0.002  -0.004   0.002  0.00  0.00    +0.006 A 
ATOM     24 CL   UNL     1       3.912  -0.818  -0.041  0.00  0.00    -0.083 Cl
ENDBRANCH  17  22
ENDBRANCH   1  17
BRANCH   6  25
ATOM     25  C   UNL     1       2.014  -3.894   4.053  0.00  0.00    +0.173 C 
BRANCH  25  26
ATOM     26  C   UNL     1       0.674  -3.669   4.757  0.00  0.00    +0.230 C 
ATOM     27  C   UNL     1       0.913  -3.026   6.130  0.00  0.00    +0.275 C 
ATOM     28  O   UNL     1      -0.358  -2.817   6.755  0.00  0.00    -0.485 OA
ATOM     29  C   UNL     1      -1.333  -2.260   5.985  0.00  0.00    +0.162 A 
ATOM     30  C   UNL     1      -2.447  -1.702   6.595  0.00  0.00    +0.049 A 
ATOM     31  C   UNL     1      -3.446  -1.136   5.827  0.00  0.00    +0.004 A 
ATOM     32  C   UNL     1      -3.340  -1.125   4.449  0.00  0.00    +0.004 A 
ATOM     33  C   UNL     1      -2.232  -1.678   3.834  0.00  0.00    +0.049 A 
ATOM     34  C   UNL     1      -1.225  -2.247   4.600  0.00  0.00    +0.163 A 
ATOM     35  O   UNL     1      -0.137  -2.781   3.980  0.00  0.00    -0.480 OA
ENDBRANCH  25  26
ENDBRANCH   6  25
TORSDOF 5
