REMARK  Name = ZINC47619900
REMARK  8 active torsions:
REMARK  status: ('A' for Active; 'I' for Inactive)
REMARK    1  A    between atoms: C_1  and  C_2
REMARK    2  A    between atoms: C_2  and  N_3
REMARK    3  A    between atoms: C_7  and  C_8
REMARK    4  A    between atoms: C_8  and  N_9
REMARK    5  A    between atoms: N_12  and  C_13
REMARK    6  A    between atoms: C_13  and  C_14
REMARK    7  A    between atoms: C_17  and  S_20
REMARK    8  A    between atoms: S_20  and  N_23
REMARK                            x       y       z     vdW  Elec       q    Type
REMARK                         _______ _______ _______ _____ _____    ______ ____
ROOT
ATOM      1  N   UNL     1       3.334  -1.581   0.441  0.00  0.00    -0.292 N 
ATOM      2  C   UNL     1       4.256  -1.574   1.425  0.00  0.00    +0.300 C 
ATOM      3  O   UNL     1       4.885  -0.561   1.661  0.00  0.00    -0.253 OA
ATOM      4  N   UNL     1       4.480  -2.690   2.147  0.00  0.00    -0.295 N 
ATOM      5  H   UNL     1       2.833  -2.389   0.253  0.00  0.00    +0.151 HD
ATOM      6  H   UNL     1       3.978  -3.498   1.958  0.00  0.00    +0.151 HD
ENDROOT
BRANCH   1   7
ATOM      7  C   UNL     1       3.091  -0.368  -0.344  0.00  0.00    +0.182 C 
BRANCH   7  12
ATOM      8  N   UNL     1       0.688  -0.476  -1.203  0.00  0.00    -0.316 N 
ATOM      9  C   UNL     1       0.117  -0.833  -2.379  0.00  0.00    +0.225 A 
ATOM     10  N   UNL     1       1.079  -1.191  -3.185  0.00  0.00    -0.138 NA
ATOM     11  N   UNL     1       2.210  -1.080  -2.585  0.00  0.00    -0.133 NA
ATOM     12  C   UNL     1       2.022  -0.640  -1.371  0.00  0.00    +0.151 A 
BRANCH   8  14
ATOM     13  C   UNL     1      -0.019   1.526   0.010  0.00  0.00    +0.027 C 
ATOM     14  C   UNL     1       0.002  -0.004   0.002  0.00  0.00    +0.121 C 
ENDBRANCH   8  14
ENDBRANCH   7  12
ENDBRANCH   1   7
BRANCH   4  15
ATOM     15  C   UNL     1       5.481  -2.682   3.216  0.00  0.00    +0.141 C 
BRANCH  15  16
ATOM     16  C   UNL     1       5.537  -4.042   3.862  0.00  0.00    -0.030 A 
ATOM     17  C   UNL     1       4.718  -4.329   4.939  0.00  0.00    +0.007 A 
ATOM     18  C   UNL     1       4.769  -5.576   5.532  0.00  0.00    +0.029 A 
ATOM     19  C   UNL     1       5.637  -6.537   5.049  0.00  0.00    +0.105 A 
ATOM     20  C   UNL     1       6.455  -6.250   3.971  0.00  0.00    +0.029 A 
ATOM     21  C   UNL     1       6.401  -5.004   3.375  0.00  0.00    +0.007 A 
BRANCH  19  22
ATOM     22  S   UNL     1       5.703  -8.127   5.806  0.00  0.00    +0.056 S 
ATOM     23  O   UNL     1       6.985  -8.664   5.512  0.00  0.00    -0.153 OA
ATOM     24  O   UNL     1       5.232  -7.963   7.136  0.00  0.00    -0.153 OA
BRANCH  22  25
ATOM     25  N   UNL     1       4.598  -9.085   5.028  0.00  0.00    -0.204 NA
ATOM     26  H   UNL     1       4.069  -8.723   4.300  0.00  0.00    +0.144 HD
ATOM     27  H   UNL     1       4.481 -10.009   5.300  0.00  0.00    +0.144 HD
ENDBRANCH  22  25
ENDBRANCH  19  22
ENDBRANCH  15  16
ENDBRANCH   4  15
TORSDOF 7
