REMARK  Name = ZINC50251251
REMARK  3 active torsions:
REMARK  status: ('A' for Active; 'I' for Inactive)
REMARK    1  A    between atoms: C_3  and  C_18
REMARK    2  A    between atoms: C_13  and  C_16
REMARK    3  A    between atoms: C_16  and  N_17
REMARK                            x       y       z     vdW  Elec       q    Type
REMARK                         _______ _______ _______ _____ _____    ______ ____
ROOT
ATOM      1  C   UNL     1      -0.085   1.488  -0.032  0.00  0.00    +0.020 C 
ATOM      2  C   UNL     1       1.316   2.100   0.027  0.00  0.00    +0.018 C 
ATOM      3  C   UNL     1       2.006   1.673   1.324  0.00  0.00    +0.119 C 
ATOM      4  C   UNL     1       2.144   0.148   1.347  0.00  0.00    +0.124 C 
ATOM      5  N   UNL     1       0.816  -0.449   1.145  0.00  0.00    -0.285 N 
ATOM      6  C   UNL     1       0.028  -0.039  -0.025  0.00  0.00    +0.109 C 
ATOM      7  C   UNL     1       0.332  -1.357   2.016  0.00  0.00    +0.305 C 
ATOM      8  O   UNL     1       1.057  -1.826   2.871  0.00  0.00    -0.252 OA
ATOM      9  N   UNL     1      -0.957  -1.743   1.939  0.00  0.00    -0.285 N 
ATOM     10  C   UNL     1      -1.902  -1.368   0.877  0.00  0.00    +0.109 C 
ATOM     11  C   UNL     1      -3.244  -2.063   1.191  0.00  0.00    +0.022 C 
ATOM     12  C   UNL     1      -2.818  -3.244   2.103  0.00  0.00    -0.010 C 
ATOM     13  C   UNL     1      -1.651  -2.618   2.902  0.00  0.00    +0.111 C 
ENDROOT
BRANCH   3  14
ATOM     14  C   UNL     1       3.374   2.303   1.397  0.00  0.00    +0.361 C 
ATOM     15  O   UNL     1       3.789   2.737   2.458  0.00  0.00    -0.246 OA
ATOM     16  O   UNL     1       4.064   2.379   0.395  0.00  0.00    -0.246 OA
ENDBRANCH   3  14
BRANCH  12  17
ATOM     17  C   UNL     1      -3.961  -3.660   3.030  0.00  0.00    -0.081 C 
BRANCH  17  18
ATOM     18  N   UNL     1      -5.059  -4.224   2.233  0.00  0.00    +0.378 N 
ATOM     19  H   UNL     1      -5.812  -4.498   2.845  0.00  0.00    -0.090 HD
ATOM     20  H   UNL     1      -5.391  -3.530   1.580  0.00  0.00    -0.090 HD
ATOM     21  H   UNL     1      -4.726  -5.030   1.726  0.00  0.00    -0.090 HD
ENDBRANCH  17  18
ENDBRANCH  12  17
TORSDOF 3
