REMARK  Name = ZINC28289685
REMARK  14 active torsions:
REMARK  status: ('A' for Active; 'I' for Inactive)
REMARK    1  A    between atoms: C_1  and  C_2
REMARK    2  A    between atoms: C_4  and  C_31
REMARK    3  A    between atoms: C_6  and  C_30
REMARK    4  A    between atoms: C_7  and  C_11
REMARK    5  A    between atoms: N_13  and  C_14
REMARK    6  A    between atoms: C_14  and  C_15
REMARK    7  A    between atoms: C_15  and  C_17
REMARK    8  A    between atoms: C_15  and  N_27
REMARK    9  A    between atoms: C_20  and  C_23
REMARK   10  A    between atoms: C_23  and  C_24
REMARK   11  A    between atoms: C_23  and  C_25
REMARK   12  A    between atoms: C_23  and  C_26
REMARK   13  A    between atoms: N_27  and  C_28
REMARK   14  A    between atoms: N_27  and  C_29
REMARK                            x       y       z     vdW  Elec       q    Type
REMARK                         _______ _______ _______ _____ _____    ______ ____
ROOT
ATOM      1  C   UNL     1       4.107   1.939  -0.752  0.00  0.00    +0.280 C 
ATOM      2  O   UNL     1       4.522   2.952  -1.282  0.00  0.00    -0.267 OA
ATOM      3  N   UNL     1       4.965   0.959  -0.408  0.00  0.00    -0.310 N 
ATOM      4  H   UNL     1       4.590   0.043   0.072  0.00  0.00    +0.149 HD
ENDROOT
BRANCH   1  11
ATOM      5  C   UNL     1      -2.659  -0.350   1.217  0.00  0.00    +0.044 C 
ATOM      6  C   UNL     1      -1.558   0.520   0.668  0.00  0.00    -0.047 A 
ATOM      7  C   UNL     1      -1.867   1.763   0.132  0.00  0.00    +0.007 A 
ATOM      8  C   UNL     1      -0.882   2.563  -0.374  0.00  0.00    -0.039 A 
ATOM      9  C   UNL     1       0.445   2.127  -0.348  0.00  0.00    +0.027 A 
ATOM     10  C   UNL     1       1.716   2.703  -0.788  0.00  0.00    +0.008 A 
ATOM     11  C   UNL     1       2.670   1.785  -0.486  0.00  0.00    +0.193 A 
ATOM     12  O   UNL     1       2.099   0.709   0.095  0.00  0.00    -0.450 OA
ATOM     13  C   UNL     1       0.765   0.870   0.198  0.00  0.00    +0.137 A 
ATOM     14  C   UNL     1      -0.254   0.074   0.708  0.00  0.00    +0.050 A 
ATOM     15  C   UNL     1       1.924   4.043  -1.444  0.00  0.00    +0.048 C 
ATOM     16  C   UNL     1      -1.226   3.909  -0.958  0.00  0.00    +0.044 C 
ENDBRANCH   1  11
BRANCH   3  17
ATOM     17  C   UNL     1       6.398   1.113  -0.672  0.00  0.00    +0.094 C 
BRANCH  17  18
ATOM     18  C   UNL     1       7.143  -0.133  -0.189  0.00  0.00    -0.021 C 
BRANCH  18  19
ATOM     19  C   UNL     1       8.627   0.075  -0.348  0.00  0.00    -0.059 A 
ATOM     20  C   UNL     1       9.401  -0.899  -0.948  0.00  0.00    +0.002 A 
ATOM     21  C   UNL     1      10.761  -0.706  -1.099  0.00  0.00    +0.004 A 
ATOM     22  C   UNL     1      11.349   0.458  -0.640  0.00  0.00    -0.042 A 
ATOM     23  C   UNL     1      10.575   1.430  -0.034  0.00  0.00    +0.004 A 
ATOM     24  C   UNL     1       9.214   1.239   0.112  0.00  0.00    +0.002 A 
BRANCH  22  25
ATOM     25  C   UNL     1      12.833   0.666  -0.799  0.00  0.00    -0.013 C 
ATOM     26  C   UNL     1      13.474   0.844   0.579  0.00  0.00    +0.015 C 
ATOM     27  C   UNL     1      13.447  -0.550  -1.495  0.00  0.00    +0.015 C 
ATOM     28  C   UNL     1      13.085   1.918  -1.643  0.00  0.00    +0.015 C 
ENDBRANCH  22  25
ENDBRANCH  18  19
BRANCH  18  29
ATOM     29  N   UNL     1       6.831  -0.371   1.227  0.00  0.00    +0.382 N 
ATOM     30  C   UNL     1       7.379  -1.658   1.678  0.00  0.00    -0.096 C 
ATOM     31  C   UNL     1       7.318   0.732   2.066  0.00  0.00    -0.096 C 
ATOM     32  H   UNL     1       5.736  -0.416   1.329  0.00  0.00    -0.082 HD
ENDBRANCH  18  29
ENDBRANCH  17  18
ENDBRANCH   3  17
TORSDOF 6
