REMARK  Name = ZINC42110450
REMARK  2 active torsions:
REMARK  status: ('A' for Active; 'I' for Inactive)
REMARK    1  A    between atoms: C_18  and  N_22
REMARK    2  A    between atoms: C_19  and  C_20
REMARK                            x       y       z     vdW  Elec       q    Type
REMARK                         _______ _______ _______ _____ _____    ______ ____
ROOT
ATOM      1  C   UNL     1       3.322   1.263   3.565  0.00  0.00    +0.002 A 
ATOM      2  C   UNL     1       3.427   2.019   2.435  0.00  0.00    +0.013 A 
ATOM      3  C   UNL     1       3.497   1.388   1.188  0.00  0.00    +0.041 A 
ATOM      4  C   UNL     1       3.457  -0.026   1.113  0.00  0.00    +0.090 A 
ATOM      5  C   UNL     1       3.347  -0.772   2.295  0.00  0.00    +0.044 A 
ATOM      6  C   UNL     1       3.282  -0.127   3.495  0.00  0.00    +0.017 A 
ATOM      7 BR   UNL     1       3.292  -2.661   2.226  0.00  0.00    -0.048 Br
ATOM      8  N   UNL     1       3.525  -0.610  -0.092  0.00  0.00    -0.234 NA
ATOM      9  C   UNL     1       3.627   0.118  -1.179  0.00  0.00    +0.224 A 
ATOM     10  N   UNL     1       3.668   1.441  -1.159  0.00  0.00    -0.220 NA
ATOM     11  C   UNL     1       3.608   2.119  -0.021  0.00  0.00    +0.133 A 
ATOM     12  N   UNL     1       3.652   3.497  -0.013  0.00  0.00    -0.309 N 
ATOM     13  C   UNL     1       4.930   4.218   0.082  0.00  0.00    +0.111 C 
ATOM     14  C   UNL     1       5.165   5.017  -1.202  0.00  0.00    +0.056 C 
ATOM     15  C   UNL     1       3.898   5.783  -1.551  0.00  0.00    -0.015 A 
ATOM     16  C   UNL     1       2.696   5.433  -1.045  0.00  0.00    +0.013 A 
ATOM     17  S   UNL     1       1.558   6.597  -1.735  0.00  0.00    -0.076 S 
ATOM     18  C   UNL     1       2.617   7.521  -2.656  0.00  0.00    +0.081 A 
ATOM     19  C   UNL     1       3.854   6.935  -2.438  0.00  0.00    +0.083 A 
ATOM     20  C   UNL     1       2.418   4.302  -0.108  0.00  0.00    +0.149 C 
ENDROOT
BRANCH  18  21
ATOM     21  N   UNL     1       2.321   8.614  -3.450  0.00  0.00    -0.352 N 
ATOM     22  H   UNL     1       1.407   8.930  -3.520  0.00  0.00    +0.143 HD
ATOM     23  H   UNL     1       3.029   9.066  -3.937  0.00  0.00    +0.143 HD
ENDBRANCH  18  21
BRANCH  19  24
ATOM     24  C   UNL     1       5.040   7.443  -3.059  0.00  0.00    +0.102 C 
ATOM     25  N   UNL     1       5.980   7.846  -3.553  0.00  0.00    -0.191 NA
ENDBRANCH  19  24
TORSDOF 2
