REMARK  Name = ZINC43732548
REMARK  4 active torsions:
REMARK  status: ('A' for Active; 'I' for Inactive)
REMARK    1  A    between atoms: C_1  and  N_2
REMARK    2  A    between atoms: C_4  and  C_29
REMARK    3  A    between atoms: C_6  and  C_18
REMARK    4  A    between atoms: C_18  and  C_20
REMARK                            x       y       z     vdW  Elec       q    Type
REMARK                         _______ _______ _______ _____ _____    ______ ____
ROOT
ATOM      1  C   UNL     1       1.177   1.292   1.309  0.00  0.00    +0.106 C 
ATOM      2  N   UNL     1       0.760   0.020   0.702  0.00  0.00    -0.287 NA
ATOM      3  C   UNL     1      -0.695   0.014   0.432  0.00  0.00    +0.094 C 
ATOM      4  C   UNL     1      -1.133  -1.456   0.658  0.00  0.00    +0.046 C 
ATOM      5  C   UNL     1      -0.237  -1.872   1.856  0.00  0.00    +0.103 C 
ATOM      6  C   UNL     1       1.070  -1.110   1.585  0.00  0.00    +0.136 C 
ATOM      7  C   UNL     1       1.696  -0.647   2.873  0.00  0.00    +0.004 A 
ATOM      8  C   UNL     1       1.274   0.192   3.880  0.00  0.00    +0.008 A 
ATOM      9  C   UNL     1       2.092   0.431   4.970  0.00  0.00    +0.000 A 
ATOM     10  C   UNL     1       3.333  -0.175   5.044  0.00  0.00    +0.002 A 
ATOM     11  C   UNL     1       3.760  -1.015   4.037  0.00  0.00    +0.023 A 
ATOM     12  C   UNL     1       2.943  -1.260   2.936  0.00  0.00    +0.039 A 
ATOM     13  N   UNL     1       3.147  -2.056   1.807  0.00  0.00    -0.283 N 
ATOM     14  C   UNL     1       2.098  -2.022   0.965  0.00  0.00    +0.243 C 
ATOM     15  O   UNL     1       1.998  -2.612  -0.090  0.00  0.00    -0.273 OA
ATOM     16  H   UNL     1       3.952  -2.574   1.648  0.00  0.00    +0.155 HD
ENDROOT
BRANCH   4  17
ATOM     17  C   UNL     1      -2.593  -1.534   1.022  0.00  0.00    -0.042 A 
ATOM     18  C   UNL     1      -3.254  -0.406   1.472  0.00  0.00    +0.007 A 
ATOM     19  C   UNL     1      -4.593  -0.476   1.806  0.00  0.00    +0.038 A 
ATOM     20  C   UNL     1      -5.273  -1.677   1.690  0.00  0.00    +0.123 A 
ATOM     21  C   UNL     1      -4.610  -2.805   1.239  0.00  0.00    +0.038 A 
ATOM     22  C   UNL     1      -3.272  -2.732   0.901  0.00  0.00    +0.007 A 
ATOM     23  F   UNL     1      -6.582  -1.746   2.017  0.00  0.00    -0.205 F 
ENDBRANCH   4  17
BRANCH   5  24
ATOM     24  C   UNL     1      -0.853  -1.434   3.160  0.00  0.00    +0.170 C 
ATOM     25  O   UNL     1      -1.442  -0.376   3.228  0.00  0.00    -0.292 OA
BRANCH  24  26
ATOM     26  C   UNL     1      -0.741  -2.290   4.349  0.00  0.00    +0.021 A 
ATOM     27  C   UNL     1      -0.057  -3.509   4.274  0.00  0.00    +0.015 A 
ATOM     28  C   UNL     1       0.047  -4.308   5.390  0.00  0.00    +0.050 A 
ATOM     29  C   UNL     1      -0.525  -3.910   6.592  0.00  0.00    +0.166 A 
ATOM     30  C   UNL     1      -1.209  -2.696   6.674  0.00  0.00    +0.167 A 
ATOM     31  C   UNL     1      -1.312  -1.886   5.561  0.00  0.00    +0.061 A 
ATOM     32  O   UNL     1      -1.670  -2.541   7.950  0.00  0.00    -0.453 OA
ATOM     33  C   UNL     1      -1.617  -3.854   8.538  0.00  0.00    +0.466 C 
ATOM     34  O   UNL     1      -0.560  -4.511   7.815  0.00  0.00    -0.453 OA
ENDBRANCH  24  26
ENDBRANCH   5  24
TORSDOF 3
