REMARK  Name = ZINC50208584
REMARK  3 active torsions:
REMARK  status: ('A' for Active; 'I' for Inactive)
REMARK    1  A    between atoms: C_3  and  C_6
REMARK    2  A    between atoms: C_8  and  C_11
REMARK    3  A    between atoms: C_16  and  N_17
REMARK                            x       y       z     vdW  Elec       q    Type
REMARK                         _______ _______ _______ _____ _____    ______ ____
ROOT
ATOM      1  C   UNL     1       3.814   2.062   0.407  0.00  0.00    +0.209 A 
ATOM      2  N   UNL     1       4.867   1.360  -0.045  0.00  0.00    -0.186 NA
ATOM      3  C   UNL     1       5.980   1.864   0.436  0.00  0.00    +0.261 A 
ATOM      4  O   UNL     1       5.665   2.913   1.218  0.00  0.00    -0.332 OA
ATOM      5  N   UNL     1       4.251   3.029   1.181  0.00  0.00    -0.055 NA
ENDROOT
BRANCH   3   6
ATOM      6  C   UNL     1       7.343   1.365   0.167  0.00  0.00    +0.061 A 
ATOM      7  C   UNL     1       7.619  -0.001   0.247  0.00  0.00    +0.030 A 
ATOM      8  C   UNL     1       8.894  -0.461  -0.006  0.00  0.00    +0.019 A 
ATOM      9  C   UNL     1       9.905   0.427  -0.341  0.00  0.00    +0.017 A 
ATOM     10  C   UNL     1       9.646   1.780  -0.424  0.00  0.00    +0.024 A 
ATOM     11  C   UNL     1       8.366   2.260  -0.177  0.00  0.00    +0.037 A 
ATOM     12 BR   UNL     1       9.266  -2.312   0.103  0.00  0.00    -0.050 Br
BRANCH  11  13
ATOM     13  N   UNL     1       8.102   3.624  -0.266  0.00  0.00    -0.357 N 
ATOM     14  H   UNL     1       7.192   3.948  -0.180  0.00  0.00    +0.142 HD
ATOM     15  H   UNL     1       8.828   4.250  -0.413  0.00  0.00    +0.142 HD
ENDBRANCH  11  13
ENDBRANCH   3   6
BRANCH   1  18
ATOM     16  C   UNL     1       0.046   2.024   0.057  0.00  0.00    +0.008 A 
ATOM     17  C   UNL     1       1.276   2.461   0.495  0.00  0.00    +0.019 A 
ATOM     18  C   UNL     1       2.398   1.793   0.081  0.00  0.00    +0.060 A 
ATOM     19  S   UNL     1       1.704   0.514  -0.953  0.00  0.00    -0.093 S 
ATOM     20  C   UNL     1      -0.018   0.947  -0.770  0.00  0.00    +0.046 A 
ENDBRANCH   1  18
TORSDOF 3
