REMARK  Name = ZINC03295348
REMARK  4 active torsions:
REMARK  status: ('A' for Active; 'I' for Inactive)
REMARK    1  A    between atoms: C_3  and  N_8
REMARK    2  A    between atoms: C_9  and  C_11
REMARK    3  A    between atoms: C_11  and  S_12
REMARK    4  A    between atoms: S_12  and  C_13
REMARK                            x       y       z     vdW  Elec       q    Type
REMARK                         _______ _______ _______ _____ _____    ______ ____
ROOT
ATOM      1  C   UNL     1       0.114  -0.037  -0.038  0.00  0.00    +0.191 A 
ATOM      2  N   UNL     1       1.320  -0.591  -0.078  0.00  0.00    -0.207 NA
ATOM      3  C   UNL     1       2.427   0.133  -0.071  0.00  0.00    +0.129 A 
ATOM      4  C   UNL     1       2.329   1.552  -0.018  0.00  0.00    +0.051 A 
ATOM      5  C   UNL     1       3.407   2.544   0.000  0.00  0.00    -0.025 A 
ATOM      6  C   UNL     1       3.044   3.841   0.050  0.00  0.00    -0.004 A 
ATOM      7  S   UNL     1       1.272   3.825   0.078  0.00  0.00    -0.073 S 
ATOM      8  C   UNL     1       1.020   2.070   0.022  0.00  0.00    +0.115 A 
ATOM      9  N   UNL     1      -0.037   1.280   0.012  0.00  0.00    -0.214 NA
ATOM     10  C   UNL     1       3.948   5.036   0.079  0.00  0.00    +0.043 C 
ATOM     11  C   UNL     1       5.368   4.562   0.417  0.00  0.00    +0.005 C 
ATOM     12  C   UNL     1       5.708   3.359  -0.469  0.00  0.00    +0.005 C 
ATOM     13  C   UNL     1       4.881   2.147  -0.038  0.00  0.00    +0.037 C 
ATOM     14  N   UNL     1       3.665  -0.481  -0.114  0.00  0.00    -0.343 N 
ATOM     15  H   UNL     1       3.750  -1.375  -0.481  0.00  0.00    +0.144 HD
ATOM     16  H   UNL     1       4.448  -0.019   0.223  0.00  0.00    +0.144 HD
ENDROOT
BRANCH   1  17
ATOM     17  S   UNL     1      -1.313  -1.071  -0.050  0.00  0.00    -0.077 S 
BRANCH  17  18
ATOM     18  C   UNL     1      -0.522  -2.697  -0.121  0.00  0.00    +0.173 C 
BRANCH  18  20
ATOM     19  N   UNL     1      -1.222  -5.068  -0.193  0.00  0.00    -0.270 N 
ATOM     20  C   UNL     1      -1.580  -3.770  -0.141  0.00  0.00    +0.229 C 
ATOM     21  O   UNL     1      -2.753  -3.465  -0.109  0.00  0.00    -0.275 OA
ATOM     22  H   UNL     1      -0.286  -5.316  -0.137  0.00  0.00    +0.156 HD
BRANCH  19  25
ATOM     23  C   UNL     1      -2.814  -8.366  -0.395  0.00  0.00    +0.025 A 
ATOM     24  C   UNL     1      -1.835  -7.396  -0.265  0.00  0.00    +0.045 A 
ATOM     25  C   UNL     1      -2.198  -6.056  -0.328  0.00  0.00    +0.125 A 
ATOM     26  N   UNL     1      -3.461  -5.707  -0.519  0.00  0.00    -0.239 NA
ATOM     27  C   UNL     1      -4.415  -6.608  -0.652  0.00  0.00    +0.132 A 
ATOM     28  C   UNL     1      -4.127  -7.959  -0.594  0.00  0.00    +0.059 A 
ATOM     29 CL   UNL     1      -5.392  -9.135  -0.769  0.00  0.00    -0.082 Cl
ENDBRANCH  19  25
ENDBRANCH  18  20
ENDBRANCH  17  18
ENDBRANCH   1  17
TORSDOF 4
