REMARK  Name = ZINC05675362
REMARK  4 active torsions:
REMARK  status: ('A' for Active; 'I' for Inactive)
REMARK    1  A    between atoms: C_1  and  O_2
REMARK    2  A    between atoms: O_2  and  C_3
REMARK    3  A    between atoms: C_5  and  C_11
REMARK    4  A    between atoms: C_8  and  O_9
REMARK                            x       y       z     vdW  Elec       q    Type
REMARK                         _______ _______ _______ _____ _____    ______ ____
ROOT
ATOM      1  C   UNL     1       5.073   3.311  -0.025  0.00  0.00    +0.021 C 
ATOM      2  C   UNL     1       5.658   3.683   1.151  0.00  0.00    +0.047 C 
ATOM      3  C   UNL     1       6.941   4.399   1.331  0.00  0.00    +0.009 A 
ATOM      4  C   UNL     1       7.887   4.899   0.442  0.00  0.00    +0.025 A 
ATOM      5  C   UNL     1       9.009   5.543   0.926  0.00  0.00    +0.019 A 
ATOM      6  C   UNL     1       9.188   5.695   2.292  0.00  0.00    +0.017 A 
ATOM      7  C   UNL     1       8.252   5.208   3.181  0.00  0.00    +0.025 A 
ATOM      8  C   UNL     1       7.116   4.556   2.712  0.00  0.00    +0.042 A 
ATOM      9  N   UNL     1       6.039   3.981   3.378  0.00  0.00    -0.281 N 
ATOM     10  C   UNL     1       5.154   3.454   2.515  0.00  0.00    +0.249 C 
ATOM     11  O   UNL     1       4.117   2.887   2.810  0.00  0.00    -0.270 OA
ATOM     12 BR   UNL     1      10.303   6.218  -0.277  0.00  0.00    -0.050 Br
ATOM     13  H   UNL     1       5.940   3.962   4.343  0.00  0.00    +0.155 HD
ENDROOT
BRANCH   1  16
ATOM     14  C   UNL     1       2.101   1.191  -0.878  0.00  0.00    +0.163 A 
ATOM     15  C   UNL     1       3.383   1.704  -0.882  0.00  0.00    +0.057 A 
ATOM     16  C   UNL     1       3.713   2.762  -0.025  0.00  0.00    -0.019 A 
ATOM     17  C   UNL     1       2.740   3.295   0.831  0.00  0.00    +0.031 A 
ATOM     18  C   UNL     1       1.462   2.781   0.824  0.00  0.00    +0.087 A 
ATOM     19  C   UNL     1       1.138   1.727  -0.023  0.00  0.00    +0.177 A 
ATOM     20 CL   UNL     1       0.255   3.446   1.879  0.00  0.00    -0.080 Cl
BRANCH  14  22
ATOM     21  C   UNL     1       2.813  -0.336  -2.556  0.00  0.00    +0.277 C 
ATOM     22  O   UNL     1       1.777   0.164  -1.708  0.00  0.00    -0.491 OA
ENDBRANCH  14  22
BRANCH  19  23
ATOM     23  O   UNL     1      -0.122   1.220  -0.022  0.00  0.00    -0.502 OA
ATOM     24  H   UNL     1      -0.254   0.495   0.604  0.00  0.00    +0.292 HD
ENDBRANCH  19  23
ENDBRANCH   1  16
TORSDOF 3
