REMARK  Name = ZINC66446555
REMARK  8 active torsions:
REMARK  status: ('A' for Active; 'I' for Inactive)
REMARK    1  A    between atoms: C_1  and  C_2
REMARK    2  A    between atoms: C_2  and  C_4
REMARK    3  A    between atoms: C_2  and  N_23
REMARK    4  A    between atoms: N_6  and  C_7
REMARK    5  A    between atoms: C_7  and  C_8
REMARK    6  A    between atoms: C_8  and  C_9
REMARK    7  A    between atoms: C_9  and  N_10
REMARK    8  A    between atoms: N_13  and  C_16
REMARK                            x       y       z     vdW  Elec       q    Type
REMARK                         _______ _______ _______ _____ _____    ______ ____
ROOT
ATOM      1  C   UNL     1       0.177  -0.130  -4.901  0.00  0.00    +0.000 C 
ENDROOT
BRANCH   1   2
ATOM      2  C   UNL     1       0.917  -0.637  -3.661  0.00  0.00    +0.102 C 
BRANCH   2   5
ATOM      3  C   UNL     1       0.707  -0.490  -1.238  0.00  0.00    +0.233 C 
ATOM      4  O   UNL     1       1.704  -1.174  -1.140  0.00  0.00    -0.274 OA
ATOM      5  N   UNL     1       0.231  -0.164  -2.456  0.00  0.00    -0.314 N 
ATOM      6  H   UNL     1      -0.566   0.383  -2.534  0.00  0.00    +0.149 HD
BRANCH   3   8
ATOM      7  C   UNL     1      -0.019   1.526   0.010  0.00  0.00    +0.038 C 
ATOM      8  C   UNL     1       0.002  -0.004   0.002  0.00  0.00    +0.157 C 
BRANCH   8   9
ATOM      9  N   UNL     1       0.711  -0.489   1.189  0.00  0.00    -0.289 N 
ATOM     10  C   UNL     1       0.051  -0.633   2.355  0.00  0.00    +0.298 C 
ATOM     11  O   UNL     1      -1.132  -0.361   2.423  0.00  0.00    -0.253 OA
ATOM     12  N   UNL     1       0.703  -1.080   3.447  0.00  0.00    -0.313 N 
ATOM     13  H   UNL     1       1.654  -0.707   1.135  0.00  0.00    +0.151 HD
ATOM     14  H   UNL     1       1.647  -1.298   3.394  0.00  0.00    +0.146 HD
ATOM     15  H   UNL     1       0.229  -1.184   4.287  0.00  0.00    +0.146 HD
ENDBRANCH   8   9
ENDBRANCH   3   8
ENDBRANCH   2   5
ENDBRANCH   1   2
BRANCH   1  16
ATOM     16  C   UNL     1       0.893  -0.623  -6.159  0.00  0.00    -0.077 C 
BRANCH  16  17
ATOM     17  N   UNL     1       0.182  -0.137  -7.349  0.00  0.00    +0.382 N 
ATOM     18  C   UNL     1      -1.159  -0.733  -7.394  0.00  0.00    -0.060 C 
ATOM     19  C   UNL     1      -1.941  -0.139  -8.570  0.00  0.00    +0.086 C 
ATOM     20  N   UNL     1      -1.152  -0.326  -9.798  0.00  0.00    -0.331 N 
ATOM     21  C   UNL     1       0.257   0.096  -9.787  0.00  0.00    +0.086 C 
ATOM     22  C   UNL     1       0.936  -0.509  -8.553  0.00  0.00    -0.060 C 
ATOM     23  H   UNL     1       0.100   0.868  -7.303  0.00  0.00    -0.082 HD
BRANCH  20  24
ATOM     24  C   UNL     1      -1.725  -0.890 -10.942  0.00  0.00    +0.065 A 
ATOM     25  C   UNL     1      -2.330  -0.076 -11.890  0.00  0.00    +0.026 A 
ATOM     26  C   UNL     1      -2.895  -0.636 -13.020  0.00  0.00    +0.002 A 
ATOM     27  C   UNL     1      -2.859  -2.006 -13.208  0.00  0.00    +0.003 A 
ATOM     28  C   UNL     1      -2.258  -2.821 -12.266  0.00  0.00    +0.040 A 
ATOM     29  C   UNL     1      -1.685  -2.267 -11.136  0.00  0.00    +0.144 A 
ATOM     30  F   UNL     1      -1.093  -3.062 -10.219  0.00  0.00    -0.204 F 
ENDBRANCH  20  24
ENDBRANCH  16  17
ENDBRANCH   1  16
TORSDOF 7
