REMARK  Name = ZINC62810796
REMARK  3 active torsions:
REMARK  status: ('A' for Active; 'I' for Inactive)
REMARK    1  A    between atoms: C_5  and  N_8
REMARK    2  A    between atoms: C_9  and  C_11
REMARK    3  A    between atoms: C_12  and  N_17
REMARK                            x       y       z     vdW  Elec       q    Type
REMARK                         _______ _______ _______ _____ _____    ______ ____
ROOT
ATOM      1  N   UNL     1       1.238  -2.081  -0.022  0.00  0.00    -0.278 N 
ATOM      2  C   UNL     1       0.156  -2.775   0.383  0.00  0.00    +0.270 C 
ATOM      3  O   UNL     1      -0.870  -2.188   0.670  0.00  0.00    -0.268 OA
ATOM      4  H   UNL     1       2.032  -2.551  -0.320  0.00  0.00    +0.155 HD
ENDROOT
BRANCH   1   9
ATOM      5  C   UNL     1       0.783   1.398  -1.132  0.00  0.00    +0.042 A 
ATOM      6  C   UNL     1       1.172   2.088   0.002  0.00  0.00    +0.044 A 
ATOM      7  C   UNL     1       1.583   1.397   1.129  0.00  0.00    +0.042 A 
ATOM      8  C   UNL     1       1.605   0.015   1.124  0.00  0.00    +0.065 A 
ATOM      9  C   UNL     1       1.215  -0.681  -0.014  0.00  0.00    +0.071 A 
ATOM     10  C   UNL     1       0.803   0.015  -1.143  0.00  0.00    +0.065 A 
ATOM     11 CL   UNL     1       0.314  -0.849  -2.567  0.00  0.00    -0.082 Cl
ATOM     12 CL   UNL     1       2.122  -0.851   2.537  0.00  0.00    -0.082 Cl
ATOM     13 CL   UNL     1       1.146   3.823   0.012  0.00  0.00    -0.083 Cl
ENDBRANCH   1   9
BRANCH   2  14
ATOM     14  C   UNL     1       0.216  -4.245   0.479  0.00  0.00    +0.168 A 
ATOM     15  C   UNL     1      -0.836  -5.107   0.883  0.00  0.00    +0.075 A 
ATOM     16  C   UNL     1      -0.319  -6.363   0.816  0.00  0.00    +0.128 A 
ATOM     17  N   UNL     1       0.967  -6.243   0.396  0.00  0.00    -0.282 N 
ATOM     18  H   UNL     1       1.578  -6.984   0.259  0.00  0.00    +0.188 HD
ATOM     19  N   UNL     1       1.257  -5.007   0.201  0.00  0.00    -0.167 NA
BRANCH  15  20
ATOM     20  N   UNL     1      -2.134  -4.742   1.269  0.00  0.00    -0.355 N 
ATOM     21  H   UNL     1      -2.392  -3.807   1.279  0.00  0.00    +0.142 HD
ATOM     22  H   UNL     1      -2.773  -5.424   1.526  0.00  0.00    +0.142 HD
ENDBRANCH  15  20
ENDBRANCH   2  14
TORSDOF 3
