REMARK  Name = ZINC06665038
REMARK  4 active torsions:
REMARK  status: ('A' for Active; 'I' for Inactive)
REMARK    1  A    between atoms: C_2  and  C_3
REMARK    2  A    between atoms: C_2  and  N_18
REMARK    3  A    between atoms: N_18  and  N_19
REMARK    4  A    between atoms: N_19  and  C_20
REMARK                            x       y       z     vdW  Elec       q    Type
REMARK                         _______ _______ _______ _____ _____    ______ ____
ROOT
ATOM      1  C   UNL     1      -1.334  -0.636   0.025  0.00  0.00    +0.108 A 
ATOM      2  C   UNL     1      -2.503   0.164  -0.011  0.00  0.00    +0.202 A 
ATOM      3  O   UNL     1      -2.432   1.381  -0.067  0.00  0.00    -0.286 OA
ATOM      4  C   UNL     1      -3.807  -0.522   0.021  0.00  0.00    +0.046 A 
ATOM      5  C   UNL     1      -4.994   0.212  -0.010  0.00  0.00    +0.014 A 
ATOM      6  C   UNL     1      -6.204  -0.443   0.025  0.00  0.00    +0.001 A 
ATOM      7  C   UNL     1      -6.242  -1.828   0.092  0.00  0.00    +0.006 A 
ATOM      8  C   UNL     1      -5.078  -2.565   0.121  0.00  0.00    -0.023 A 
ATOM      9  C   UNL     1      -3.842  -1.927   0.083  0.00  0.00    +0.059 A 
ATOM     10  N   UNL     1      -2.660  -2.641   0.102  0.00  0.00    -0.307 N 
ATOM     11  C   UNL     1      -1.453  -2.013   0.075  0.00  0.00    +0.264 A 
ATOM     12  O   UNL     1      -0.331  -2.761   0.104  0.00  0.00    -0.267 OA
ATOM     13  C   UNL     1      -2.674  -4.109   0.141  0.00  0.00    +0.126 C 
ATOM     14  C   UNL     1      -3.906  -4.595   0.906  0.00  0.00    +0.026 C 
ATOM     15  C   UNL     1      -5.159  -4.069   0.199  0.00  0.00    +0.039 C 
ENDROOT
BRANCH   1  17
ATOM     16  C   UNL     1       0.855  -0.279  -0.989  0.00  0.00    +0.035 C 
ATOM     17  C   UNL     1       0.002  -0.004   0.002  0.00  0.00    +0.053 C 
BRANCH  17  18
ATOM     18  N   UNL     1       0.373   0.879   1.016  0.00  0.00    -0.266 N 
ATOM     19  H   UNL     1      -0.215   1.022   1.774  0.00  0.00    +0.170 HD
BRANCH  18  20
ATOM     20  N   UNL     1       1.594   1.562   0.938  0.00  0.00    -0.267 N 
ATOM     21  H   UNL     1       2.182   1.419   0.179  0.00  0.00    +0.170 HD
BRANCH  20  22
ATOM     22  C   UNL     1       1.965   2.447   1.953  0.00  0.00    +0.044 A 
ATOM     23  C   UNL     1       1.128   2.647   3.043  0.00  0.00    +0.024 A 
ATOM     24  C   UNL     1       1.498   3.522   4.045  0.00  0.00    +0.002 A 
ATOM     25  C   UNL     1       2.701   4.199   3.964  0.00  0.00    +0.000 A 
ATOM     26  C   UNL     1       3.537   4.002   2.880  0.00  0.00    +0.002 A 
ATOM     27  C   UNL     1       3.176   3.124   1.877  0.00  0.00    +0.024 A 
ENDBRANCH  20  22
ENDBRANCH  18  20
ENDBRANCH  17  18
ENDBRANCH   1  17
TORSDOF 4
