REMARK  Name = ZINC20192850
REMARK  2 active torsions:
REMARK  status: ('A' for Active; 'I' for Inactive)
REMARK    1  A    between atoms: C_11  and  C_13
REMARK    2  A    between atoms: C_18  and  N_19
REMARK                            x       y       z     vdW  Elec       q    Type
REMARK                         _______ _______ _______ _____ _____    ______ ____
ROOT
ATOM      1  C   UNL     1      -7.703  -2.540   1.819  0.00  0.00    +0.000 A 
ATOM      2  C   UNL     1      -7.949  -1.354   1.153  0.00  0.00    +0.000 A 
ATOM      3  C   UNL     1      -6.947  -0.767   0.409  0.00  0.00    +0.005 A 
ATOM      4  C   UNL     1      -5.693  -1.357   0.325  0.00  0.00    -0.027 A 
ATOM      5  C   UNL     1      -5.444  -2.535   0.994  0.00  0.00    -0.041 A 
ATOM      6  C   UNL     1      -6.457  -3.126   1.739  0.00  0.00    +0.004 A 
ATOM      7  C   UNL     1      -4.106  -3.225   0.964  0.00  0.00    +0.054 C 
ATOM      8  C   UNL     1      -3.278  -2.756  -0.238  0.00  0.00    +0.113 C 
ATOM      9  N   UNL     1      -3.337  -1.285  -0.273  0.00  0.00    -0.293 N 
ATOM     10  C   UNL     1      -4.646  -0.668  -0.513  0.00  0.00    +0.143 C 
ATOM     11  C   UNL     1      -2.231  -0.535  -0.096  0.00  0.00    +0.249 C 
ATOM     12  O   UNL     1      -1.146  -1.071   0.026  0.00  0.00    -0.270 OA
ENDROOT
BRANCH  11  13
ATOM     13  C   UNL     1      -2.336   0.935  -0.051  0.00  0.00    +0.057 A 
ATOM     14  C   UNL     1      -2.955   1.628  -1.095  0.00  0.00    +0.015 A 
ATOM     15  C   UNL     1      -3.050   3.001  -1.047  0.00  0.00    +0.001 A 
ATOM     16  C   UNL     1      -2.535   3.702   0.033  0.00  0.00    +0.002 A 
ATOM     17  C   UNL     1      -1.925   3.032   1.074  0.00  0.00    +0.023 A 
ATOM     18  C   UNL     1      -1.815   1.647   1.041  0.00  0.00    +0.037 A 
BRANCH  18  19
ATOM     19  N   UNL     1      -1.198   0.971   2.085  0.00  0.00    -0.357 N 
ATOM     20  H   UNL     1      -0.791   1.532   2.939  0.00  0.00    +0.142 HD
ATOM     21  H   UNL     1      -1.117  -0.126   2.058  0.00  0.00    +0.142 HD
ENDBRANCH  18  19
ENDBRANCH  11  13
TORSDOF 2
