REMARK  Name = ZINC02029415
REMARK  2 active torsions:
REMARK  status: ('A' for Active; 'I' for Inactive)
REMARK    1  A    between atoms: C_1  and  C_2
REMARK    2  A    between atoms: C_1  and  C_8
REMARK                            x       y       z     vdW  Elec       q    Type
REMARK                         _______ _______ _______ _____ _____    ______ ____
ROOT
ATOM      1  C   UNL     1       2.579   3.261  -0.006  0.00  0.00    +0.129 C 
ENDROOT
BRANCH   1   2
ATOM      2  C   UNL     1       1.756   2.000  -0.004  0.00  0.00    +0.110 A 
ATOM      3  N   UNL     1       2.138   0.739  -0.014  0.00  0.00    -0.144 NA
ATOM      4  N   UNL     1       1.312  -0.214  -0.012  0.00  0.00    -0.126 NA
ATOM      5  C   UNL     1       0.002  -0.004   0.002  0.00  0.00    +0.179 A 
ATOM      6  S   UNL     1      -0.022   1.786   0.012  0.00  0.00    -0.036 S 
ATOM      7  N   UNL     1      -1.047  -0.911   0.008  0.00  0.00    -0.336 N 
ATOM      8  H   UNL     1      -1.964  -0.593   0.019  0.00  0.00    +0.144 HD
ATOM      9  H   UNL     1      -0.865  -1.864   0.001  0.00  0.00    +0.144 HD
ENDBRANCH   1   2
BRANCH   1  10
ATOM     10  C   UNL     1       2.841   3.689  -1.427  0.00  0.00    +0.110 A 
ATOM     11  N   UNL     1       2.139   4.476  -2.217  0.00  0.00    -0.144 NA
ATOM     12  N   UNL     1       2.501   4.740  -3.396  0.00  0.00    -0.126 NA
ATOM     13  C   UNL     1       3.609   4.231  -3.918  0.00  0.00    +0.179 A 
ATOM     14  S   UNL     1       4.189   3.265  -2.527  0.00  0.00    -0.036 S 
ATOM     15  N   UNL     1       4.161   4.400  -5.180  0.00  0.00    -0.336 N 
ATOM     16  H   UNL     1       4.990   3.952  -5.410  0.00  0.00    +0.144 HD
ATOM     17  H   UNL     1       3.717   4.965  -5.831  0.00  0.00    +0.144 HD
ENDBRANCH   1  10
TORSDOF 2
