REMARK  Name = ZINC61145016
REMARK  7 active torsions:
REMARK  status: ('A' for Active; 'I' for Inactive)
REMARK    1  A    between atoms: C_1  and  C_2
REMARK    2  A    between atoms: C_2  and  C_3
REMARK    3  A    between atoms: C_2  and  C_4
REMARK    4  A    between atoms: C_4  and  C_6
REMARK    5  A    between atoms: C_4  and  N_19
REMARK    6  A    between atoms: N_12  and  C_15
REMARK    7  A    between atoms: C_15  and  C_16
REMARK                            x       y       z     vdW  Elec       q    Type
REMARK                         _______ _______ _______ _____ _____    ______ ____
ROOT
ATOM      1  C   UNL     1      -2.310  -0.749  -0.746  0.00  0.00    +0.236 C 
ATOM      2  O   UNL     1      -3.253   0.015  -0.721  0.00  0.00    -0.274 OA
ATOM      3  N   UNL     1      -1.725  -1.058  -1.919  0.00  0.00    -0.302 N 
ATOM      4  C   UNL     1      -0.583  -1.995  -1.920  0.00  0.00    +0.106 C 
ATOM      5  C   UNL     1      -0.678  -2.983  -3.096  0.00  0.00    +0.000 C 
ATOM      6  C   UNL     1      -2.118  -3.411  -3.278  0.00  0.00    -0.076 C 
ATOM      7  N   UNL     1      -2.757  -2.546  -4.267  0.00  0.00    +0.388 N 
ATOM      8  C   UNL     1      -3.334  -1.368  -3.743  0.00  0.00    -0.059 C 
ATOM      9  C   UNL     1      -2.242  -0.465  -3.135  0.00  0.00    +0.089 C 
ATOM     10  H   UNL     1      -2.067  -2.284  -4.954  0.00  0.00    -0.081 HD
ENDROOT
BRANCH   1  11
ATOM     11  C   UNL     1      -1.794  -1.351   0.536  0.00  0.00    +0.163 C 
BRANCH  11  12
ATOM     12  N   UNL     1      -2.593  -0.861   1.662  0.00  0.00    -0.288 N 
ATOM     13  C   UNL     1      -2.682  -1.589   2.793  0.00  0.00    +0.298 C 
ATOM     14  O   UNL     1      -2.099  -2.652   2.878  0.00  0.00    -0.253 OA
ATOM     15  N   UNL     1      -3.416  -1.138   3.829  0.00  0.00    -0.313 N 
ATOM     16  H   UNL     1      -3.058  -0.012   1.594  0.00  0.00    +0.151 HD
ATOM     17  H   UNL     1      -3.881  -0.290   3.761  0.00  0.00    +0.146 HD
ATOM     18  H   UNL     1      -3.480  -1.662   4.643  0.00  0.00    +0.146 HD
ENDBRANCH  11  12
BRANCH  11  20
ATOM     19  C   UNL     1      -0.241   0.566   0.934  0.00  0.00    +0.009 C 
ATOM     20  C   UNL     1      -0.331  -0.949   0.735  0.00  0.00    +0.012 C 
ATOM     21  C   UNL     1       0.229  -1.659   1.969  0.00  0.00    +0.009 C 
ENDBRANCH  11  20
ENDBRANCH   1  11
BRANCH   7  22
ATOM     22  C   UNL     1      -3.809  -3.315  -4.945  0.00  0.00    +0.048 C 
BRANCH  22  23
ATOM     23  C   UNL     1      -3.181  -4.417  -5.758  0.00  0.00    +0.340 C 
ATOM     24  O   UNL     1      -1.968  -4.484  -5.860  0.00  0.00    -0.249 OA
ATOM     25  O   UNL     1      -3.886  -5.241  -6.315  0.00  0.00    -0.249 OA
ENDBRANCH  22  23
ENDBRANCH   7  22
TORSDOF 5
