REMARK  Name = ZINC27646172
REMARK  4 active torsions:
REMARK  status: ('A' for Active; 'I' for Inactive)
REMARK    1  A    between atoms: C_1  and  C_2
REMARK    2  A    between atoms: C_10  and  O_12
REMARK    3  A    between atoms: C_23  and  C_29
REMARK    4  A    between atoms: C_26  and  O_28
REMARK                            x       y       z     vdW  Elec       q    Type
REMARK                         _______ _______ _______ _____ _____    ______ ____
ROOT
ATOM      1  C   UNL     1      -2.479  -0.109   0.161  0.00  0.00    +0.010 C 
ATOM      2  C   UNL     1      -1.156  -0.712   0.642  0.00  0.00    +0.021 C 
ATOM      3  C   UNL     1       0.002  -0.004   0.002  0.00  0.00    +0.026 C 
ATOM      4  C   UNL     1       1.363  -0.416   0.578  0.00  0.00    -0.002 C 
ATOM      5  C   UNL     1       2.315   0.684   0.039  0.00  0.00    +0.007 C 
ATOM      6  C   UNL     1       1.461   1.967  -0.001  0.00  0.00    +0.032 C 
ATOM      7  C   UNL     1      -0.019   1.520   0.010  0.00  0.00    +0.118 C 
ATOM      8  C   UNL     1       1.374  -0.320   2.111  0.00  0.00    -0.001 C 
ATOM      9  C   UNL     1       2.716  -0.918   2.565  0.00  0.00    +0.008 C 
ATOM     10  C   UNL     1       2.837  -0.923   4.084  0.00  0.00    +0.032 C 
ATOM     11  C   UNL     1       1.618  -1.592   4.688  0.00  0.00    -0.060 C 
ATOM     12  C   UNL     1       1.795  -2.549   5.590  0.00  0.00    +0.046 C 
ATOM     13  C   UNL     1       0.648  -3.132   6.294  0.00  0.00    +0.156 C 
ATOM     14  O   UNL     1       0.747  -4.162   6.928  0.00  0.00    -0.293 OA
ATOM     15  C   UNL     1      -0.660  -2.373   6.219  0.00  0.00    +0.080 C 
ATOM     16  C   UNL     1      -0.883  -1.945   4.771  0.00  0.00    +0.019 C 
ATOM     17  C   UNL     1       0.266  -1.111   4.233  0.00  0.00    -0.005 C 
ATOM     18  C   UNL     1       0.232  -1.131   2.702  0.00  0.00    +0.031 C 
ATOM     19  C   UNL     1      -1.130  -0.737   2.164  0.00  0.00    +0.122 C 
ATOM     20  C   UNL     1       0.115   0.313   4.760  0.00  0.00    +0.016 C 
ENDROOT
BRANCH   7  21
ATOM     21  O   UNL     1      -0.662   2.072   1.155  0.00  0.00    -0.391 OA
ATOM     22  H   UNL     1      -0.738   3.163   1.270  0.00  0.00    +0.210 HD
ENDBRANCH   7  21
BRANCH  19  23
ATOM     23  O   UNL     1      -1.633   0.486   2.685  0.00  0.00    -0.391 OA
ATOM     24  H   UNL     1      -1.686   0.640   3.773  0.00  0.00    +0.210 HD
ENDBRANCH  19  23
TORSDOF 2
