REMARK  Name = ZINC44383159
REMARK  3 active torsions:
REMARK  status: ('A' for Active; 'I' for Inactive)
REMARK    1  A    between atoms: C_3  and  N_11
REMARK    2  A    between atoms: C_4  and  C_8
REMARK    3  A    between atoms: C_6  and  N_7
REMARK                            x       y       z     vdW  Elec       q    Type
REMARK                         _______ _______ _______ _____ _____    ______ ____
ROOT
ATOM      1  C   UNL     1      -0.017   1.387   0.010  0.00  0.00    +0.024 A 
ATOM      2  C   UNL     1       1.164   2.100   0.002  0.00  0.00    +0.025 A 
ATOM      3  C   UNL     1       2.382   1.433  -0.013  0.00  0.00    +0.042 A 
ATOM      4  C   UNL     1       2.408   0.030  -0.021  0.00  0.00    +0.059 A 
ATOM      5  C   UNL     1       1.207  -0.684  -0.013  0.00  0.00    +0.037 A 
ATOM      6  C   UNL     1       0.002  -0.004   0.002  0.00  0.00    +0.025 A 
ENDROOT
BRANCH   3   7
ATOM      7  N   UNL     1       3.572   2.153  -0.021  0.00  0.00    -0.329 N 
ATOM      8  C   UNL     1       4.166   2.534  -1.313  0.00  0.00    +0.106 C 
ATOM      9  C   UNL     1       4.713   3.980  -1.415  0.00  0.00    +0.029 C 
ATOM     10  C   UNL     1       3.798   5.008  -0.826  0.00  0.00    +0.071 C 
ATOM     11  S   UNL     1       4.159   5.223   0.956  0.00  0.00    -0.159 S 
ATOM     12  C   UNL     1       3.517   3.795   1.735  0.00  0.00    +0.088 C 
ATOM     13  C   UNL     1       4.176   2.505   1.226  0.00  0.00    +0.116 C 
ENDBRANCH   3   7
BRANCH   4  14
ATOM     14  C   UNL     1       3.697  -0.687  -0.037  0.00  0.00    +0.243 C 
ATOM     15  O   UNL     1       4.740  -0.062  -0.044  0.00  0.00    -0.270 OA
ATOM     16  N   UNL     1       3.718  -2.034  -0.045  0.00  0.00    -0.325 N 
ATOM     17  H   UNL     1       2.886  -2.533  -0.039  0.00  0.00    +0.145 HD
ATOM     18  H   UNL     1       4.565  -2.506  -0.056  0.00  0.00    +0.145 HD
ENDBRANCH   4  14
BRANCH   6  19
ATOM     19  N   UNL     1      -1.202  -0.719   0.010  0.00  0.00    -0.358 N 
ATOM     20  H   UNL     1      -2.048  -0.243   0.021  0.00  0.00    +0.142 HD
ATOM     21  H   UNL     1      -1.191  -1.688   0.005  0.00  0.00    +0.142 HD
ENDBRANCH   6  19
TORSDOF 3
