REMARK  Name = ZINC48843499
REMARK  5 active torsions:
REMARK  status: ('A' for Active; 'I' for Inactive)
REMARK    1  A    between atoms: C_4  and  CA_7
REMARK    2  A    between atoms: CA_7  and  C_9
REMARK    3  A    between atoms: CA_7  and  N_12
REMARK    4  A    between atoms: N_15  and  C_16
REMARK    5  A    between atoms: C_22  and  N_24
REMARK                            x       y       z     vdW  Elec       q    Type
REMARK                         _______ _______ _______ _____ _____    ______ ____
ROOT
ATOM      1  N   UNL     1       2.890  -1.926  -2.534  0.00  0.00    -0.286 N 
ATOM      2  C   UNL     1       2.989  -2.592  -3.702  0.00  0.00    +0.300 C 
ATOM      3  O   UNL     1       3.063  -1.978  -4.748  0.00  0.00    -0.253 OA
ATOM      4  N   UNL     1       3.008  -3.940  -3.709  0.00  0.00    -0.298 N 
ATOM      5  H   UNL     1       2.831  -2.417  -1.700  0.00  0.00    +0.151 HD
ATOM      6  H   UNL     1       2.949  -4.430  -2.874  0.00  0.00    +0.150 HD
ENDROOT
BRANCH   4   7
ATOM      7  C   UNL     1       3.116  -4.664  -4.978  0.00  0.00    +0.060 C 
ATOM      8  C   UNL     1       4.590  -4.788  -5.370  0.00  0.00    +0.021 C 
ATOM      9  C   UNL     1       4.703  -5.544  -6.696  0.00  0.00    +0.002 C 
ATOM     10  C   UNL     1       4.098  -6.941  -6.539  0.00  0.00    -0.001 C 
ATOM     11  C   UNL     1       2.624  -6.817  -6.147  0.00  0.00    -0.014 C 
ATOM     12  C   UNL     1       2.511  -6.061  -4.822  0.00  0.00    -0.054 C 
BRANCH  12  13
ATOM     13  N   UNL     1       1.096  -5.941  -4.445  0.00  0.00    +0.381 N 
ATOM     14  H   UNL     1       0.598  -5.438  -5.164  0.00  0.00    -0.090 HD
ATOM     15  H   UNL     1       0.697  -6.862  -4.342  0.00  0.00    -0.090 HD
ATOM     16  H   UNL     1       1.021  -5.443  -3.571  0.00  0.00    -0.090 HD
ENDBRANCH  12  13
ENDBRANCH   4   7
BRANCH   1  17
ATOM     17  CA  UNL     1       2.870  -0.461  -2.526  0.00  0.00    +0.191 C 
BRANCH  17  21
ATOM     18  C   UNL     1      -0.019   1.526   0.010  0.00  0.00    +0.000 C 
ATOM     19  C   UNL     1       1.417   2.055  -0.000  0.00  0.00    +0.000 C 
ATOM     20  C   UNL     1       2.133   1.562  -1.259  0.00  0.00    +0.006 C 
ATOM     21  C   UNL     1       2.154   0.032  -1.268  0.00  0.00    +0.020 C 
ATOM     22  C   UNL     1       0.718  -0.497  -1.257  0.00  0.00    +0.006 C 
ATOM     23  C   UNL     1       0.002  -0.004   0.002  0.00  0.00    +0.000 C 
ENDBRANCH  17  21
BRANCH  17  24
ATOM     24  C   UNL     1       4.284   0.060  -2.537  0.00  0.00    +0.376 C 
ATOM     25  O   UNL     1       5.177  -0.589  -2.021  0.00  0.00    -0.244 OA
ATOM     26  OXT UNL     1       4.534   1.132  -3.062  0.00  0.00    -0.244 OA
ENDBRANCH  17  24
ENDBRANCH   1  17
TORSDOF 5
