REMARK  Name = ZINC54503141
REMARK  6 active torsions:
REMARK  status: ('A' for Active; 'I' for Inactive)
REMARK    1  A    between atoms: C_1  and  S_2
REMARK    2  A    between atoms: S_2  and  N_5
REMARK    3  A    between atoms: C_8  and  C_11
REMARK    4  A    between atoms: N_13  and  CA_14
REMARK    5  A    between atoms: CA_14  and  C_16
REMARK    6  A    between atoms: CA_14  and  C_19
REMARK                            x       y       z     vdW  Elec       q    Type
REMARK                         _______ _______ _______ _____ _____    ______ ____
ROOT
ATOM      1  C   UNL     1       2.269  -3.431  -3.968  0.00  0.00    +0.217 C 
ATOM      2  O   UNL     1       1.387  -4.215  -4.252  0.00  0.00    -0.275 OA
ATOM      3  N   UNL     1       3.558  -3.757  -4.189  0.00  0.00    -0.302 N 
ATOM      4  H   UNL     1       4.262  -3.131  -3.963  0.00  0.00    +0.150 HD
ENDROOT
BRANCH   1   8
ATOM      5  N   UNL     1       0.795  -0.411  -1.394  0.00  0.00    -0.181 NA
ATOM      6  C   UNL     1       0.053  -0.601  -2.648  0.00  0.00    +0.110 C 
ATOM      7  C   UNL     1       0.403  -1.976  -3.225  0.00  0.00    +0.030 C 
ATOM      8  C   UNL     1       1.922  -2.092  -3.369  0.00  0.00    +0.077 C 
ATOM      9  C   UNL     1       2.579  -1.965  -1.993  0.00  0.00    +0.030 C 
ATOM     10  C   UNL     1       2.254  -0.584  -1.403  0.00  0.00    +0.110 C 
BRANCH   5  12
ATOM     11  C   UNL     1      -0.022   1.810   0.012  0.00  0.00    +0.215 C 
ATOM     12  S   UNL     1       0.002  -0.004   0.002  0.00  0.00    +0.029 S 
ATOM     13  O   UNL     1       0.835  -0.488   1.046  0.00  0.00    -0.158 OA
ATOM     14  O   UNL     1      -1.315  -0.510  -0.168  0.00  0.00    -0.158 OA
ENDBRANCH   5  12
ENDBRANCH   1   8
BRANCH   3  15
ATOM     15  CA  UNL     1       3.894  -5.059  -4.772  0.00  0.00    +0.189 C 
BRANCH  15  16
ATOM     16  C   UNL     1       5.247  -4.966  -5.481  0.00  0.00    +0.020 C 
ATOM     17  C   UNL     1       5.253  -5.071  -7.007  0.00  0.00    +0.006 C 
ATOM     18  C   UNL     1       5.778  -6.231  -6.158  0.00  0.00    +0.006 C 
ENDBRANCH  15  16
BRANCH  15  19
ATOM     19  C   UNL     1       3.970  -6.094  -3.679  0.00  0.00    +0.376 C 
ATOM     20  O   UNL     1       3.693  -7.256  -3.920  0.00  0.00    -0.244 OA
ATOM     21  OXT UNL     1       4.307  -5.768  -2.553  0.00  0.00    -0.244 OA
ENDBRANCH  15  19
ENDBRANCH   3  15
TORSDOF 5
