REMARK  Name = ZINC17257674
REMARK  4 active torsions:
REMARK  status: ('A' for Active; 'I' for Inactive)
REMARK    1  A    between atoms: C_1  and  N_2
REMARK    2  A    between atoms: C_6  and  C_7
REMARK    3  A    between atoms: N_9  and  N_10
REMARK    4  A    between atoms: C_11  and  C_13
REMARK                            x       y       z     vdW  Elec       q    Type
REMARK                         _______ _______ _______ _____ _____    ______ ____
ROOT
ATOM      1  C   UNL     1      -3.573   1.803  -0.438  0.00  0.00    +0.277 C 
ATOM      2  O   UNL     1      -3.575   3.019  -0.393  0.00  0.00    -0.267 OA
ATOM      3  N   UNL     1      -2.417   1.137  -0.626  0.00  0.00    -0.229 N 
ATOM      4  H   UNL     1      -2.402   0.168  -0.581  0.00  0.00    +0.173 HD
ENDROOT
BRANCH   1  10
ATOM      5  C   UNL     1      -6.404   3.039  -0.211  0.00  0.00    +0.149 C 
ATOM      6  N   UNL     1      -6.089   1.609  -0.187  0.00  0.00    -0.345 N 
ATOM      7  C   UNL     1      -6.990   0.602  -0.061  0.00  0.00    +0.101 A 
ATOM      8  C   UNL     1      -6.330  -0.581  -0.080  0.00  0.00    +0.036 A 
ATOM      9  C   UNL     1      -4.966  -0.309  -0.228  0.00  0.00    +0.047 A 
ATOM     10  C   UNL     1      -4.830   1.062  -0.288  0.00  0.00    +0.107 A 
ATOM     11 BR   UNL     1      -7.114  -2.296   0.062  0.00  0.00    -0.049 Br
ENDBRANCH   1  10
BRANCH   3  12
ATOM     12  N   UNL     1      -1.236   1.844  -0.888  0.00  0.00    -0.228 N 
ATOM     13  C   UNL     1      -0.079   1.178  -1.076  0.00  0.00    +0.295 C 
ATOM     14  O   UNL     1      -0.061  -0.037  -1.019  0.00  0.00    -0.265 OA
ATOM     15  H   UNL     1      -1.250   2.813  -0.933  0.00  0.00    +0.173 HD
BRANCH  13  16
ATOM     16  C   UNL     1       1.156   1.918  -1.356  0.00  0.00    +0.190 A 
ATOM     17  C   UNL     1       2.388   1.371  -1.571  0.00  0.00    +0.054 A 
ATOM     18  C   UNL     1       3.270   2.438  -1.797  0.00  0.00    +0.042 A 
ATOM     19  C   UNL     1       2.547   3.577  -1.712  0.00  0.00    +0.196 A 
ATOM     20  O   UNL     1       1.272   3.259  -1.452  0.00  0.00    -0.458 OA
ENDBRANCH  13  16
ENDBRANCH   3  12
TORSDOF 3
