REMARK  Name = ZINC12313107
REMARK  6 active torsions:
REMARK  status: ('A' for Active; 'I' for Inactive)
REMARK    1  A    between atoms: C_6  and  N_7
REMARK    2  A    between atoms: C_8  and  N_15
REMARK    3  A    between atoms: C_16  and  C_18
REMARK    4  A    between atoms: N_20  and  C_21
REMARK    5  A    between atoms: C_21  and  C_22
REMARK    6  A    between atoms: C_22  and  N_51
REMARK                            x       y       z     vdW  Elec       q    Type
REMARK                         _______ _______ _______ _____ _____    ______ ____
ROOT
ATOM      1  N   UNL     1       0.187   1.494  -3.432  0.00  0.00    -0.262 N 
ATOM      2  C   UNL     1       0.069   1.818  -4.735  0.00  0.00    +0.304 C 
ATOM      3  O   UNL     1      -0.879   2.474  -5.114  0.00  0.00    -0.265 OA
ATOM      4  H   UNL     1       0.984   1.040  -3.115  0.00  0.00    +0.157 HD
ENDROOT
BRANCH   1   6
ATOM      5  N   UNL     1      -0.698   2.032  -1.211  0.00  0.00    -0.218 N 
ATOM      6  C   UNL     1      -0.835   1.809  -2.542  0.00  0.00    +0.133 A 
ATOM      7  C   UNL     1      -2.170   1.951  -2.852  0.00  0.00    +0.026 A 
ATOM      8  C   UNL     1      -2.845   2.265  -1.685  0.00  0.00    +0.079 A 
ATOM      9  N   UNL     1      -1.964   2.315  -0.695  0.00  0.00    -0.168 NA
ATOM     10  C   UNL     1      -4.354   2.469  -1.798  0.00  0.00    +0.127 C 
ATOM     11  S   UNL     1      -4.713   1.725  -3.443  0.00  0.00    -0.150 S 
ATOM     12  C   UNL     1      -3.008   1.843  -4.124  0.00  0.00    +0.110 C 
BRANCH   5  18
ATOM     13  C   UNL     1       1.432   0.990  -0.742  0.00  0.00    +0.029 A 
ATOM     14  C   UNL     1       2.613   0.951  -0.028  0.00  0.00    +0.022 A 
ATOM     15  C   UNL     1       2.864   1.896   0.951  0.00  0.00    +0.041 A 
ATOM     16  C   UNL     1       1.934   2.887   1.214  0.00  0.00    +0.022 A 
ATOM     17  C   UNL     1       0.753   2.934   0.499  0.00  0.00    +0.029 A 
ATOM     18  C   UNL     1       0.499   1.986  -0.484  0.00  0.00    +0.068 A 
ATOM     19 CL   UNL     1       4.346   1.839   1.852  0.00  0.00    -0.084 Cl
ENDBRANCH   5  18
ENDBRANCH   1   6
BRANCH   2  20
ATOM     20  C   UNL     1       1.107   1.372  -5.712  0.00  0.00    +0.299 C 
ATOM     21  O   UNL     1       2.055   0.717  -5.333  0.00  0.00    -0.265 OA
ATOM     22  N   UNL     1       0.989   1.696  -7.015  0.00  0.00    -0.309 N 
ATOM     23  H   UNL     1       0.231   2.220  -7.318  0.00  0.00    +0.149 HD
BRANCH  22  24
ATOM     24  C   UNL     1       2.007   1.258  -7.973  0.00  0.00    +0.086 C 
BRANCH  24  25
ATOM     25  C   UNL     1       1.638   1.756  -9.372  0.00  0.00    -0.060 C 
BRANCH  25  31
ATOM     26  C   UNL     1       3.949   1.968 -10.067  0.00  0.00    -0.050 C 
ATOM     27  C   UNL     1       4.995   1.439 -11.051  0.00  0.00    +0.141 C 
ATOM     28  O   UNL     1       4.541   1.663 -12.388  0.00  0.00    -0.383 OA
ATOM     29  C   UNL     1       3.287   1.042 -12.683  0.00  0.00    +0.141 C 
ATOM     30  C   UNL     1       2.223   1.568 -11.715  0.00  0.00    -0.050 C 
ATOM     31  N   UNL     1       2.663   1.290 -10.331  0.00  0.00    +0.384 N 
ATOM     32  H   UNL     1       2.790   0.277 -10.218  0.00  0.00    -0.082 HD
ENDBRANCH  25  31
ENDBRANCH  24  25
ENDBRANCH  22  24
ENDBRANCH   2  20
TORSDOF 6
