REMARK  Name = ZINC36170493
REMARK  7 active torsions:
REMARK  status: ('A' for Active; 'I' for Inactive)
REMARK    1  A    between atoms: C_1  and  C_2
REMARK    2  A    between atoms: C_2  and  C_3
REMARK    3  A    between atoms: C_2  and  N_4
REMARK    4  A    between atoms: N_7  and  S_10
REMARK    5  A    between atoms: S_10  and  C_13
REMARK    6  A    between atoms: C_16  and  O_20
REMARK    7  A    between atoms: C_17  and  N_19
REMARK                            x       y       z     vdW  Elec       q    Type
REMARK                         _______ _______ _______ _____ _____    ______ ____
ROOT
ATOM      1  S   UNL     1       3.886  -2.791   3.134  0.00  0.00    +0.061 S 
ATOM      2  O   UNL     1       3.550  -4.111   2.728  0.00  0.00    -0.153 OA
ATOM      3  O   UNL     1       5.041  -2.117   2.654  0.00  0.00    -0.153 OA
ENDROOT
BRANCH   1   7
ATOM      4  N   UNL     1       0.713  -0.491   1.192  0.00  0.00    -0.297 NA
ATOM      5  C   UNL     1       2.102  -0.015   1.207  0.00  0.00    +0.102 C 
ATOM      6  C   UNL     1       2.752  -0.389   2.543  0.00  0.00    +0.125 C 
ATOM      7  N   UNL     1       2.588  -1.835   2.754  0.00  0.00    -0.174 NA
ATOM      8  C   UNL     1       1.241  -2.409   2.619  0.00  0.00    +0.125 C 
ATOM      9  C   UNL     1       0.650  -1.956   1.280  0.00  0.00    +0.102 C 
BRANCH   4  11
ATOM     10  C   UNL     1      -0.019   1.526   0.010  0.00  0.00    +0.024 C 
ATOM     11  C   UNL     1       0.002  -0.004   0.002  0.00  0.00    +0.051 C 
ATOM     12  C   UNL     1       0.718  -0.497  -1.257  0.00  0.00    +0.024 C 
ENDBRANCH   4  11
ENDBRANCH   1   7
BRANCH   1  13
ATOM     13  C   UNL     1       4.014  -2.821   4.891  0.00  0.00    +0.107 A 
ATOM     14  C   UNL     1       4.777  -1.871   5.543  0.00  0.00    +0.032 A 
ATOM     15  C   UNL     1       4.882  -1.889   6.922  0.00  0.00    +0.049 A 
ATOM     16  C   UNL     1       4.221  -2.862   7.654  0.00  0.00    +0.137 A 
ATOM     17  C   UNL     1       3.452  -3.820   6.997  0.00  0.00    +0.068 A 
ATOM     18  C   UNL     1       3.348  -3.792   5.614  0.00  0.00    +0.055 A 
BRANCH  17  19
ATOM     19  N   UNL     1       2.782  -4.806   7.731  0.00  0.00    -0.355 N 
ATOM     20  H   UNL     1       2.853  -4.822   8.699  0.00  0.00    +0.142 HD
ATOM     21  H   UNL     1       2.247  -5.473   7.273  0.00  0.00    +0.142 HD
ENDBRANCH  17  19
BRANCH  16  22
ATOM     22  O   UNL     1       4.323  -2.881   9.010  0.00  0.00    -0.505 OA
ATOM     23  H   UNL     1       3.645  -2.361   9.463  0.00  0.00    +0.292 HD
ENDBRANCH  16  22
ENDBRANCH   1  13
TORSDOF 5
