REMARK  Name = ZINC61122681
REMARK  4 active torsions:
REMARK  status: ('A' for Active; 'I' for Inactive)
REMARK    1  A    between atoms: C_1  and  C_2
REMARK    2  A    between atoms: C_2  and  C_3
REMARK    3  A    between atoms: C_7  and  N_21
REMARK    4  A    between atoms: N_11  and  C_12
REMARK                            x       y       z     vdW  Elec       q    Type
REMARK                         _______ _______ _______ _____ _____    ______ ____
ROOT
ATOM      1  C   UNL     1      -1.412  -0.526   0.013  0.00  0.00    +0.115 A 
ATOM      2  N   UNL     1      -2.103  -0.784   1.085  0.00  0.00    -0.232 NA
ATOM      3  C   UNL     1      -3.335  -1.237   0.737  0.00  0.00    +0.091 A 
ATOM      4  C   UNL     1      -4.450  -1.651   1.471  0.00  0.00    +0.052 A 
ATOM      5  C   UNL     1      -5.590  -2.068   0.810  0.00  0.00    +0.027 A 
ATOM      6  C   UNL     1      -5.632  -2.079  -0.583  0.00  0.00    +0.025 A 
ATOM      7  C   UNL     1      -4.538  -1.673  -1.317  0.00  0.00    +0.030 A 
ATOM      8  C   UNL     1      -3.387  -1.251  -0.667  0.00  0.00    +0.074 A 
ATOM      9  N   UNL     1      -2.155  -0.790  -1.098  0.00  0.00    -0.293 N 
ENDROOT
BRANCH   9  10
ATOM     10  C   UNL     1      -1.746  -0.627  -2.429  0.00  0.00    +0.089 A 
ATOM     11  C   UNL     1      -1.134  -1.676  -3.102  0.00  0.00    +0.067 A 
ATOM     12  C   UNL     1      -0.732  -1.515  -4.415  0.00  0.00    +0.128 A 
ATOM     13  C   UNL     1      -0.941  -0.308  -5.061  0.00  0.00    +0.079 A 
ATOM     14  C   UNL     1      -1.551   0.741  -4.394  0.00  0.00    +0.163 A 
ATOM     15  C   UNL     1      -1.960   0.582  -3.080  0.00  0.00    +0.182 A 
ATOM     16  F   UNL     1      -2.560   1.603  -2.430  0.00  0.00    -0.200 F 
ATOM     17  F   UNL     1      -1.753   1.917  -5.027  0.00  0.00    -0.202 F 
ATOM     18  F   UNL     1      -0.136  -2.536  -5.069  0.00  0.00    -0.205 F 
ENDBRANCH   9  10
BRANCH   5  19
ATOM     19  N   UNL     1      -6.707  -2.483   1.543  0.00  0.00    -0.358 N 
ATOM     20  H   UNL     1      -6.680  -2.477   2.513  0.00  0.00    +0.142 HD
ATOM     21  H   UNL     1      -7.508  -2.776   1.082  0.00  0.00    +0.142 HD
ENDBRANCH   5  19
BRANCH   1  23
ATOM     22  C   UNL     1      -0.019   1.526   0.010  0.00  0.00    +0.012 C 
ATOM     23  C   UNL     1       0.002  -0.004   0.002  0.00  0.00    +0.071 C 
ENDBRANCH   1  23
TORSDOF 3
