REMARK  Name = ZINC04210179
REMARK  6 active torsions:
REMARK  status: ('A' for Active; 'I' for Inactive)
REMARK    1  A    between atoms: C_9  and  O_30
REMARK    2  A    between atoms: C_10  and  C_11
REMARK    3  A    between atoms: N_12  and  N_13
REMARK    4  A    between atoms: C_14  and  C_16
REMARK    5  A    between atoms: N_18  and  C_19
REMARK    6  A    between atoms: C_20  and  C_28
REMARK                            x       y       z     vdW  Elec       q    Type
REMARK                         _______ _______ _______ _____ _____    ______ ____
ROOT
ATOM      1  N   UNL     1       7.322   0.146  -0.066  0.00  0.00    -0.199 N 
ATOM      2  C   UNL     1       8.490  -0.526  -0.080  0.00  0.00    +0.318 C 
ATOM      3  O   UNL     1       8.492  -1.741  -0.086  0.00  0.00    -0.263 OA
ATOM      4  H   UNL     1       7.320   1.116  -0.061  0.00  0.00    +0.178 HD
ENDROOT
BRANCH   2   5
ATOM      5  C   UNL     1       9.778   0.222  -0.088  0.00  0.00    +0.305 C 
ATOM      6  O   UNL     1       9.776   1.436  -0.082  0.00  0.00    -0.265 OA
ATOM      7  N   UNL     1      10.947  -0.450  -0.102  0.00  0.00    -0.271 N 
ATOM      8  H   UNL     1      10.949  -1.420  -0.107  0.00  0.00    +0.156 HD
BRANCH   7   9
ATOM      9  C   UNL     1      12.145   0.245  -0.110  0.00  0.00    +0.090 A 
ATOM     10  C   UNL     1      13.442  -0.254  -0.130  0.00  0.00    +0.084 A 
ATOM     11  C   UNL     1      14.536   0.702  -0.134  0.00  0.00    -0.018 A 
ATOM     12  C   UNL     1      14.188   2.009  -0.117  0.00  0.00    -0.004 A 
ATOM     13  S   UNL     1      12.416   2.008  -0.104  0.00  0.00    -0.077 S 
ATOM     14  C   UNL     1      15.107   3.191  -0.115  0.00  0.00    +0.043 C 
ATOM     15  C   UNL     1      16.520   2.707   0.239  0.00  0.00    +0.005 C 
ATOM     16  C   UNL     1      16.847   1.478  -0.615  0.00  0.00    +0.005 C 
ATOM     17  C   UNL     1      16.004   0.287  -0.156  0.00  0.00    +0.037 C 
BRANCH  10  18
ATOM     18  C   UNL     1      13.692  -1.663  -0.146  0.00  0.00    +0.102 C 
ATOM     19  N   UNL     1      13.890  -2.782  -0.159  0.00  0.00    -0.191 NA
ENDBRANCH  10  18
ENDBRANCH   7   9
ENDBRANCH   2   5
BRANCH   1  21
ATOM     20  C   UNL     1       4.981   0.091  -0.044  0.00  0.00    +0.142 C 
ATOM     21  N   UNL     1       6.110  -0.557  -0.058  0.00  0.00    -0.187 NA
BRANCH  20  31
ATOM     22  C   UNL     1      -0.016   1.358   0.009  0.00  0.00    +0.001 A 
ATOM     23  C   UNL     1       1.167   2.091   0.002  0.00  0.00    +0.001 A 
ATOM     24  C   UNL     1       2.379   1.465  -0.013  0.00  0.00    +0.009 A 
ATOM     25  C   UNL     1       2.435   0.067  -0.021  0.00  0.00    -0.006 A 
ATOM     26  C   UNL     1       1.233  -0.683  -0.013  0.00  0.00    -0.017 A 
ATOM     27  C   UNL     1       0.002  -0.004   0.002  0.00  0.00    +0.008 A 
ATOM     28  C   UNL     1       1.291  -2.087  -0.020  0.00  0.00    +0.012 A 
ATOM     29  C   UNL     1       2.487  -2.734  -0.034  0.00  0.00    +0.046 A 
ATOM     30  C   UNL     1       3.696  -2.042  -0.042  0.00  0.00    +0.126 A 
ATOM     31  C   UNL     1       3.711  -0.646  -0.036  0.00  0.00    +0.044 A 
BRANCH  30  32
ATOM     32  O   UNL     1       4.867  -2.729  -0.055  0.00  0.00    -0.506 OA
ATOM     33  H   UNL     1       5.198  -2.924  -0.942  0.00  0.00    +0.292 HD
ENDBRANCH  30  32
ENDBRANCH  20  31
ENDBRANCH   1  21
TORSDOF 6
