REMARK  Name = ZINC21011745
REMARK  6 active torsions:
REMARK  status: ('A' for Active; 'I' for Inactive)
REMARK    1  A    between atoms: C_1  and  C_2
REMARK    2  A    between atoms: C_4  and  N_21
REMARK    3  A    between atoms: C_5  and  S_9
REMARK    4  A    between atoms: C_7  and  C_8
REMARK    5  A    between atoms: S_9  and  N_12
REMARK    6  A    between atoms: N_12  and  C_13
REMARK                            x       y       z     vdW  Elec       q    Type
REMARK                         _______ _______ _______ _____ _____    ______ ____
ROOT
ATOM      1  S   UNL     1       0.172  -2.898  -2.723  0.00  0.00    +0.060 S 
ATOM      2  O   UNL     1      -0.931  -3.793  -2.744  0.00  0.00    -0.153 OA
ATOM      3  O   UNL     1       0.282  -1.803  -3.622  0.00  0.00    -0.153 OA
ENDROOT
BRANCH   1   8
ATOM      4  C   UNL     1       0.409  -0.590   2.852  0.00  0.00    +0.044 C 
ATOM      5  C   UNL     1       0.353  -1.164   1.460  0.00  0.00    -0.046 A 
ATOM      6  C   UNL     1       1.308  -0.806   0.527  0.00  0.00    +0.028 A 
ATOM      7  C   UNL     1       1.256  -1.336  -0.756  0.00  0.00    +0.051 A 
ATOM      8  C   UNL     1       0.243  -2.224  -1.097  0.00  0.00    +0.126 A 
ATOM      9  C   UNL     1      -0.705  -2.581  -0.158  0.00  0.00    +0.034 A 
ATOM     10  C   UNL     1      -0.653  -2.048   1.117  0.00  0.00    -0.046 A 
ATOM     11  C   UNL     1      -1.693  -2.436   2.136  0.00  0.00    +0.044 C 
BRANCH   7  12
ATOM     12  N   UNL     1       2.220  -0.977  -1.701  0.00  0.00    -0.356 N 
ATOM     13  H   UNL     1       2.177  -1.397  -2.716  0.00  0.00    +0.142 HD
ATOM     14  H   UNL     1       3.021  -0.274  -1.429  0.00  0.00    +0.142 HD
ENDBRANCH   7  12
ENDBRANCH   1   8
BRANCH   1  15
ATOM     15  N   UNL     1       1.532  -3.819  -2.931  0.00  0.00    -0.185 NA
ATOM     16  H   UNL     1       2.350  -3.437  -3.560  0.00  0.00    +0.148 HD
BRANCH  15  17
ATOM     17  C   UNL     1       1.736  -5.020  -2.116  0.00  0.00    +0.099 C 
ATOM     18  C   UNL     1       1.231  -6.251  -2.886  0.00  0.00    +0.044 C 
ATOM     19  C   UNL     1       1.737  -7.524  -2.149  0.00  0.00    +0.167 C 
ATOM     20  S   UNL     1       3.449  -7.002  -1.711  0.00  0.00    -0.029 S 
ATOM     21  O   UNL     1       4.337  -7.417  -2.740  0.00  0.00    -0.174 OA
ATOM     22  O   UNL     1       3.715  -7.373  -0.365  0.00  0.00    -0.174 OA
ATOM     23  C   UNL     1       3.242  -5.176  -1.798  0.00  0.00    +0.186 C 
ENDBRANCH  15  17
ENDBRANCH   1  15
TORSDOF 4
