REMARK  Name = ZINC67193574
REMARK  8 active torsions:
REMARK  status: ('A' for Active; 'I' for Inactive)
REMARK    1  A    between atoms: C_1  and  C_2
REMARK    2  A    between atoms: N_4  and  C_5
REMARK    3  A    between atoms: C_5  and  C_7
REMARK    4  A    between atoms: C_5  and  C_20
REMARK    5  A    between atoms: C_7  and  C_8
REMARK    6  A    between atoms: N_10  and  N_11
REMARK    7  A    between atoms: N_14  and  C_15
REMARK    8  A    between atoms: C_15  and  C_16
REMARK                            x       y       z     vdW  Elec       q    Type
REMARK                         _______ _______ _______ _____ _____    ______ ____
ROOT
ATOM      1  C   UNL     1      -0.204  -2.559  -1.105  0.00  0.00    +0.124 C 
ENDROOT
BRANCH   1   2
ATOM      2  C   UNL     1      -0.950  -2.279  -2.384  0.00  0.00    +0.231 C 
ATOM      3  O   UNL     1      -2.065  -1.802  -2.344  0.00  0.00    -0.274 OA
ATOM      4  N   UNL     1      -0.379  -2.558  -3.572  0.00  0.00    -0.233 N 
ATOM      5  H   UNL     1       0.512  -2.939  -3.604  0.00  0.00    +0.173 HD
BRANCH   4   6
ATOM      6  N   UNL     1      -1.073  -2.297  -4.761  0.00  0.00    -0.218 N 
ATOM      7  C   UNL     1      -0.502  -2.577  -5.950  0.00  0.00    +0.316 C 
ATOM      8  O   UNL     1      -1.104  -2.351  -6.981  0.00  0.00    -0.251 OA
ATOM      9  N   UNL     1       0.737  -3.107  -5.994  0.00  0.00    -0.290 N 
ATOM     10  H   UNL     1      -1.964  -1.916  -4.729  0.00  0.00    +0.174 HD
ATOM     11  H   UNL     1       1.217  -3.287  -5.171  0.00  0.00    +0.151 HD
BRANCH   9  12
ATOM     12  C   UNL     1       1.357  -3.410  -7.286  0.00  0.00    +0.219 C 
BRANCH  12  13
ATOM     13  C   UNL     1       2.751  -3.998  -7.057  0.00  0.00    +0.405 C 
ATOM     14  F   UNL     1       2.644  -5.172  -6.303  0.00  0.00    -0.169 F 
ATOM     15  F   UNL     1       3.344  -4.288  -8.290  0.00  0.00    -0.169 F 
ATOM     16  F   UNL     1       3.540  -3.072  -6.366  0.00  0.00    -0.169 F 
ENDBRANCH  12  13
ENDBRANCH   9  12
ENDBRANCH   4   6
ENDBRANCH   1   2
BRANCH   1  17
ATOM     17  C   UNL     1      -1.070  -2.154   0.090  0.00  0.00    +0.118 C 
BRANCH  17  18
ATOM     18  C   UNL     1      -0.376  -2.547   1.369  0.00  0.00    +0.043 A 
ATOM     19  C   UNL     1       0.711  -1.817   1.819  0.00  0.00    +0.131 A 
ATOM     20  C   UNL     1       1.348  -2.179   2.994  0.00  0.00    +0.039 A 
ATOM     21  C   UNL     1       0.898  -3.268   3.718  0.00  0.00    +0.006 A 
ATOM     22  C   UNL     1      -0.187  -3.997   3.269  0.00  0.00    +0.039 A 
ATOM     23  C   UNL     1      -0.829  -3.633   2.097  0.00  0.00    +0.131 A 
ATOM     24  F   UNL     1      -1.893  -4.342   1.662  0.00  0.00    -0.205 F 
ATOM     25  F   UNL     1       1.151  -0.754   1.112  0.00  0.00    -0.205 F 
ENDBRANCH  17  18
BRANCH  17  29
ATOM     26  C   UNL     1      -2.475   1.332   0.807  0.00  0.00    +0.109 C 
ATOM     27  C   UNL     1      -2.321  -0.165   0.735  0.00  0.00    +0.210 C 
ATOM     28  O   UNL     1      -3.135  -0.885   1.273  0.00  0.00    -0.276 OA
ATOM     29  N   UNL     1      -1.278  -0.704   0.073  0.00  0.00    -0.308 N 
ATOM     30  H   UNL     1      -0.666  -0.132  -0.416  0.00  0.00    +0.149 HD
ENDBRANCH  17  29
ENDBRANCH   1  17
TORSDOF 7
