REMARK  Name = ZINC36983473
REMARK  4 active torsions:
REMARK  status: ('A' for Active; 'I' for Inactive)
REMARK    1  A    between atoms: C_4  and  C_7
REMARK    2  A    between atoms: C_4  and  N_10
REMARK    3  A    between atoms: N_10  and  S_11
REMARK    4  A    between atoms: S_11  and  C_14
REMARK                            x       y       z     vdW  Elec       q    Type
REMARK                         _______ _______ _______ _____ _____    ______ ____
ROOT
ATOM      1  N   UNL     1       2.754  -0.789   0.492  0.00  0.00    -0.177 NA
ATOM      2  H   UNL     1       3.118  -0.131  -0.121  0.00  0.00    +0.149 HD
ENDROOT
BRANCH   1   6
ATOM      3  C   UNL     1       4.490   0.307   3.322  0.00  0.00    +0.000 C 
ATOM      4  C   UNL     1       4.104  -1.144   3.030  0.00  0.00    +0.002 C 
ATOM      5  C   UNL     1       2.584  -1.248   2.888  0.00  0.00    +0.035 C 
ATOM      6  C   UNL     1       2.117  -0.354   1.737  0.00  0.00    +0.140 C 
ATOM      7  C   UNL     1       2.503   1.097   2.030  0.00  0.00    +0.035 C 
ATOM      8  C   UNL     1       4.023   1.201   2.172  0.00  0.00    +0.002 C 
BRANCH   6   9
ATOM      9  C   UNL     1       0.620  -0.457   1.597  0.00  0.00    +0.377 C 
ATOM     10  O   UNL     1      -0.088  -0.440   2.590  0.00  0.00    -0.244 OA
ATOM     11  O   UNL     1       0.116  -0.557   0.492  0.00  0.00    -0.244 OA
ENDBRANCH   6   9
ENDBRANCH   1   6
BRANCH   1  12
ATOM     12  S   UNL     1       2.854  -2.402   0.131  0.00  0.00    +0.035 S 
ATOM     13  O   UNL     1       3.601  -2.458  -1.076  0.00  0.00    -0.158 OA
ATOM     14  O   UNL     1       3.349  -3.009   1.317  0.00  0.00    -0.158 OA
BRANCH  12  15
ATOM     15  C   UNL     1       1.141  -2.919  -0.168  0.00  0.00    +0.170 C 
ATOM     16  C   UNL     1       0.638  -2.287  -1.476  0.00  0.00    +0.052 C 
ATOM     17  C   UNL     1      -0.695  -2.984  -1.870  0.00  0.00    +0.168 C 
ATOM     18  S   UNL     1      -0.294  -4.735  -1.461  0.00  0.00    -0.029 S 
ATOM     19  O   UNL     1       0.218  -5.375  -2.621  0.00  0.00    -0.174 OA
ATOM     20  O   UNL     1      -1.395  -5.313  -0.772  0.00  0.00    -0.174 OA
ATOM     21  C   UNL     1       1.082  -4.462  -0.272  0.00  0.00    +0.193 C 
ENDBRANCH  12  15
ENDBRANCH   1  12
TORSDOF 4
