REMARK  Name = ZINC07783554
REMARK  7 active torsions:
REMARK  status: ('A' for Active; 'I' for Inactive)
REMARK    1  A    between atoms: C_5  and  O_7
REMARK    2  A    between atoms: O_7  and  C_8
REMARK    3  A    between atoms: C_8  and  C_9
REMARK    4  A    between atoms: C_9  and  S_10
REMARK    5  A    between atoms: S_10  and  C_11
REMARK    6  A    between atoms: C_14  and  C_17
REMARK    7  A    between atoms: N_15  and  N_16
REMARK                            x       y       z     vdW  Elec       q    Type
REMARK                         _______ _______ _______ _____ _____    ______ ____
ROOT
ATOM      1  C   UNL     1       2.041   0.776  -0.092  0.00  0.00    +0.209 A 
ATOM      2  N   UNL     1       1.187   1.760   0.082  0.00  0.00    -0.121 NA
ATOM      3  N   UNL     1      -0.011   1.299   0.139  0.00  0.00    -0.127 NA
ATOM      4  C   UNL     1       0.004  -0.006   0.005  0.00  0.00    +0.183 A 
ATOM      5  N   UNL     1       1.319  -0.382  -0.146  0.00  0.00    -0.224 N 
ENDROOT
BRANCH   4   6
ATOM      6  C   UNL     1      -1.171  -0.904   0.016  0.00  0.00    +0.040 A 
ATOM      7  C   UNL     1      -1.156  -2.068   0.787  0.00  0.00    +0.033 A 
ATOM      8  C   UNL     1      -2.256  -2.902   0.793  0.00  0.00    +0.042 A 
ATOM      9  C   UNL     1      -3.372  -2.586   0.036  0.00  0.00    +0.021 A 
ATOM     10  C   UNL     1      -3.393  -1.435  -0.729  0.00  0.00    +0.022 A 
ATOM     11  C   UNL     1      -2.302  -0.589  -0.740  0.00  0.00    +0.052 A 
ATOM     12 CL   UNL     1      -2.333   0.860  -1.696  0.00  0.00    -0.083 Cl
ATOM     13 CL   UNL     1      -2.240  -4.350   1.750  0.00  0.00    -0.084 Cl
ENDBRANCH   4   6
BRANCH   5  14
ATOM     14  N   UNL     1       1.801  -1.649  -0.317  0.00  0.00    -0.295 N 
ATOM     15  H   UNL     1       1.928  -1.858  -1.296  0.00  0.00    +0.163 HD
ATOM     16  H   UNL     1       2.660  -1.780   0.196  0.00  0.00    +0.163 HD
ENDBRANCH   5  14
BRANCH   1  17
ATOM     17  S   UNL     1       3.792   0.923  -0.229  0.00  0.00    -0.081 S 
BRANCH  17  18
ATOM     18  C   UNL     1       3.970   2.716  -0.062  0.00  0.00    +0.118 C 
BRANCH  18  19
ATOM     19  C   UNL     1       5.451   3.092  -0.153  0.00  0.00    +0.240 C 
BRANCH  19  20
ATOM     20  O   UNL     1       5.592   4.508  -0.021  0.00  0.00    -0.488 OA
BRANCH  20  25
ATOM     21  C   UNL     1       9.215   4.672  -0.319  0.00  0.00    +0.004 A 
ATOM     22  C   UNL     1       9.423   6.033  -0.199  0.00  0.00    +0.003 A 
ATOM     23  C   UNL     1       8.350   6.886  -0.019  0.00  0.00    +0.042 A 
ATOM     24  C   UNL     1       7.064   6.378   0.040  0.00  0.00    +0.165 A 
ATOM     25  C   UNL     1       6.854   5.011  -0.080  0.00  0.00    +0.156 A 
ATOM     26  C   UNL     1       7.934   4.158  -0.255  0.00  0.00    +0.048 A 
ATOM     27  F   UNL     1       6.016   7.211   0.216  0.00  0.00    -0.202 F 
ENDBRANCH  20  25
ENDBRANCH  19  20
ENDBRANCH  18  19
ENDBRANCH  17  18
ENDBRANCH   1  17
TORSDOF 7
