REMARK  Name = ZINC37288228
REMARK  5 active torsions:
REMARK  status: ('A' for Active; 'I' for Inactive)
REMARK    1  A    between atoms: C_1  and  C_2
REMARK    2  A    between atoms: C_2  and  C_4
REMARK    3  A    between atoms: C_2  and  O_12
REMARK    4  A    between atoms: O_12  and  C_13
REMARK    5  A    between atoms: C_14  and  N_21
REMARK                            x       y       z     vdW  Elec       q    Type
REMARK                         _______ _______ _______ _____ _____    ______ ____
ROOT
ATOM      1  O   UNL     1       0.671  -0.465  -1.174  0.00  0.00    -0.477 OA
ENDROOT
BRANCH   1   2
ATOM      2  C   UNL     1      -0.095  -0.675  -2.278  0.00  0.00    +0.156 A 
ATOM      3  C   UNL     1      -0.675  -1.923  -2.498  0.00  0.00    +0.069 A 
ATOM      4  C   UNL     1      -1.456  -2.132  -3.625  0.00  0.00    +0.046 A 
ATOM      5  C   UNL     1      -1.657  -1.102  -4.528  0.00  0.00    +0.044 A 
ATOM      6  C   UNL     1      -1.081   0.136  -4.309  0.00  0.00    +0.039 A 
ATOM      7  C   UNL     1      -0.305   0.352  -3.183  0.00  0.00    +0.063 A 
ATOM      8 BR   UNL     1       0.474   2.049  -2.884  0.00  0.00    -0.046 Br
ATOM      9 CL   UNL     1      -2.634  -1.366  -5.938  0.00  0.00    -0.083 Cl
BRANCH   3  10
ATOM     10  N   UNL     1      -0.470  -2.962  -1.584  0.00  0.00    -0.355 N 
ATOM     11  H   UNL     1       0.076  -2.815  -0.796  0.00  0.00    +0.142 HD
ATOM     12  H   UNL     1      -0.875  -3.830  -1.738  0.00  0.00    +0.142 HD
ENDBRANCH   3  10
ENDBRANCH   1   2
BRANCH   1  14
ATOM     13  C   UNL     1      -0.019   1.526   0.010  0.00  0.00    +0.062 C 
ATOM     14  C   UNL     1       0.002  -0.004   0.002  0.00  0.00    +0.256 C 
BRANCH  14  15
ATOM     15  C   UNL     1       0.731  -0.503   1.223  0.00  0.00    +0.256 C 
ATOM     16  O   UNL     1       1.774  -1.109   1.101  0.00  0.00    -0.272 OA
ATOM     17  N   UNL     1       0.223  -0.277   2.451  0.00  0.00    -0.298 N 
ATOM     18  C   UNL     1      -1.043   0.451   2.614  0.00  0.00    +0.108 C 
ATOM     19  C   UNL     1      -1.992  -0.397   3.467  0.00  0.00    +0.019 C 
ATOM     20  C   UNL     1      -1.301  -0.761   4.784  0.00  0.00    +0.003 C 
ATOM     21  C   UNL     1      -0.046  -1.586   4.492  0.00  0.00    +0.019 C 
ATOM     22  C   UNL     1       0.922  -0.757   3.650  0.00  0.00    +0.108 C 
ENDBRANCH  14  15
ENDBRANCH   1  14
TORSDOF 4
