REMARK  Name = ZINC20292141
REMARK  9 active torsions:
REMARK  status: ('A' for Active; 'I' for Inactive)
REMARK    1  A    between atoms: C_1  and  C_2
REMARK    2  A    between atoms: C_2  and  C_3
REMARK    3  A    between atoms: C_3  and  C_4
REMARK    4  A    between atoms: C_4  and  C_5
REMARK    5  A    between atoms: C_5  and  C_6
REMARK    6  A    between atoms: C_6  and  N_7
REMARK    7  A    between atoms: C_11  and  N_12
REMARK    8  A    between atoms: N_12  and  C_13
REMARK    9  A    between atoms: C_19  and  N_21
REMARK                            x       y       z     vdW  Elec       q    Type
REMARK                         _______ _______ _______ _____ _____    ______ ____
ROOT
ATOM      1  N   UNL     1       2.129  -4.896  -3.653  0.00  0.00    -0.222 N 
ATOM      2  C   UNL     1       1.450  -4.897  -4.819  0.00  0.00    +0.260 C 
ATOM      3  O   UNL     1       0.313  -4.470  -4.880  0.00  0.00    -0.269 OA
ATOM      4  C   UNL     1       2.124  -5.428  -6.017  0.00  0.00    +0.113 C 
ATOM      5  C   UNL     1       1.492  -5.460  -7.246  0.00  0.00    +0.086 C 
ATOM      6  C   UNL     1       3.502  -5.923  -5.847  0.00  0.00    +0.258 C 
ATOM      7  O   UNL     1       4.124  -6.376  -6.790  0.00  0.00    -0.270 OA
ATOM      8  N   UNL     1       4.056  -5.860  -4.619  0.00  0.00    -0.235 N 
ATOM      9  C   UNL     1       3.384  -5.358  -3.573  0.00  0.00    +0.315 C 
ATOM     10  O   UNL     1       3.942  -5.325  -2.493  0.00  0.00    -0.252 OA
ATOM     11  H   UNL     1       4.962  -6.182  -4.490  0.00  0.00    +0.159 HD
ENDROOT
BRANCH   5  12
ATOM     12  N   UNL     1       2.186  -5.796  -8.352  0.00  0.00    -0.348 N 
ATOM     13  H   UNL     1       3.144  -5.937  -8.299  0.00  0.00    +0.146 HD
BRANCH  12  14
ATOM     14  C   UNL     1       1.492  -5.948  -9.633  0.00  0.00    +0.055 C 
ATOM     15  C   UNL     1       1.363  -4.581 -10.308  0.00  0.00    +0.020 C 
ATOM     16  C   UNL     1       0.638  -4.740 -11.646  0.00  0.00    +0.002 C 
ATOM     17  C   UNL     1       1.437  -5.681 -12.550  0.00  0.00    -0.001 C 
ATOM     18  C   UNL     1       1.567  -7.048 -11.876  0.00  0.00    -0.014 C 
ATOM     19  C   UNL     1       2.291  -6.889 -10.537  0.00  0.00    -0.055 C 
BRANCH  19  20
ATOM     20  N   UNL     1       2.416  -8.202  -9.889  0.00  0.00    +0.381 N 
ATOM     21  H   UNL     1       1.497  -8.587  -9.731  0.00  0.00    -0.090 HD
ATOM     22  H   UNL     1       2.942  -8.822 -10.485  0.00  0.00    -0.090 HD
ATOM     23  H   UNL     1       2.893  -8.097  -9.007  0.00  0.00    -0.090 HD
ENDBRANCH  19  20
ENDBRANCH  12  14
ENDBRANCH   5  12
BRANCH   1  24
ATOM     24  C   UNL     1       1.480  -4.373  -2.448  0.00  0.00    +0.118 C 
BRANCH  24  25
ATOM     25  C   UNL     1       1.759  -2.873  -2.329  0.00  0.00    +0.019 C 
BRANCH  25  26
ATOM     26  C   UNL     1       1.082  -2.326  -1.071  0.00  0.00    +0.002 C 
BRANCH  26  27
ATOM     27  C   UNL     1       1.361  -0.827  -0.952  0.00  0.00    -0.000 C 
BRANCH  27  29
ATOM     28  C   UNL     1       0.962   1.220   0.425  0.00  0.00    +0.004 C 
ATOM     29  C   UNL     1       0.684  -0.280   0.306  0.00  0.00    -0.003 C 
ENDBRANCH  27  29
ENDBRANCH  26  27
ENDBRANCH  25  26
ENDBRANCH  24  25
ENDBRANCH   1  24
TORSDOF 8
