REMARK  Name = ZINC65077587
REMARK  7 active torsions:
REMARK  status: ('A' for Active; 'I' for Inactive)
REMARK    1  A    between atoms: C_1  and  C_2
REMARK    2  A    between atoms: C_7  and  N_8
REMARK    3  A    between atoms: C_9  and  C_11
REMARK    4  A    between atoms: C_11  and  C_13
REMARK    5  A    between atoms: C_11  and  C_14
REMARK    6  A    between atoms: C_14  and  S_15
REMARK    7  A    between atoms: S_15  and  C_18
REMARK                            x       y       z     vdW  Elec       q    Type
REMARK                         _______ _______ _______ _____ _____    ______ ____
ROOT
ATOM      1  S   UNL     1      -0.527  -0.053   7.592  0.00  0.00    -0.002 S 
ATOM      2  O   UNL     1       0.616   0.723   7.925  0.00  0.00    -0.169 OA
ATOM      3  O   UNL     1      -1.823   0.528   7.593  0.00  0.00    -0.169 OA
ENDROOT
BRANCH   1   4
ATOM      4  C   UNL     1      -0.594  -1.307   8.828  0.00  0.00    +0.090 A 
ATOM      5  C   UNL     1      -1.805  -1.895   9.146  0.00  0.00    +0.028 A 
ATOM      6  C   UNL     1      -1.869  -2.879  10.116  0.00  0.00    +0.018 A 
ATOM      7  C   UNL     1      -0.712  -3.274  10.768  0.00  0.00    +0.029 A 
ATOM      8  C   UNL     1       0.509  -2.683  10.447  0.00  0.00    +0.049 A 
ATOM      9  C   UNL     1       0.565  -1.701   9.472  0.00  0.00    +0.051 A 
ATOM     10  N   UNL     1       1.672  -3.098  11.113  0.00  0.00    -0.284 N 
ATOM     11  C   UNL     1       1.974  -4.400  11.199  0.00  0.00    +0.218 C 
ATOM     12  O   UNL     1       2.869  -4.755  11.937  0.00  0.00    -0.275 OA
ATOM     13  C   UNL     1       1.227  -5.426  10.401  0.00  0.00    +0.107 C 
ATOM     14  C   UNL     1       0.021  -5.955  11.197  0.00  0.00    +0.083 C 
ATOM     15  S   UNL     1      -0.762  -4.524  12.011  0.00  0.00    -0.123 S 
ATOM     16  H   UNL     1       2.260  -2.439  11.514  0.00  0.00    +0.155 HD
ENDBRANCH   1   4
BRANCH   1  17
ATOM     17  C   UNL     1      -0.245  -0.946   6.038  0.00  0.00    +0.184 C 
BRANCH  17  18
ATOM     18  C   UNL     1      -0.168   0.054   4.882  0.00  0.00    +0.093 C 
ATOM     19  C   UNL     1       1.060   0.949   5.063  0.00  0.00    +0.019 C 
BRANCH  18  21
ATOM     20  N   UNL     1       0.025  -0.014   2.417  0.00  0.00    -0.285 N 
ATOM     21  C   UNL     1      -0.056  -0.693   3.578  0.00  0.00    +0.222 C 
ATOM     22  O   UNL     1      -0.040  -1.906   3.574  0.00  0.00    -0.275 OA
ATOM     23  H   UNL     1       0.078   0.955   2.424  0.00  0.00    +0.155 HD
BRANCH  20  30
ATOM     24  C   UNL     1      -1.265   1.183   0.181  0.00  0.00    +0.045 C 
ATOM     25  C   UNL     1      -0.584  -0.158   0.084  0.00  0.00    -0.029 A 
ATOM     26  C   UNL     1      -0.569  -0.840  -1.117  0.00  0.00    +0.006 A 
ATOM     27  C   UNL     1       0.055  -2.071  -1.207  0.00  0.00    +0.020 A 
ATOM     28  C   UNL     1       0.667  -2.622  -0.095  0.00  0.00    +0.043 A 
ATOM     29  C   UNL     1       0.656  -1.944   1.109  0.00  0.00    +0.043 A 
ATOM     30  C   UNL     1       0.034  -0.706   1.201  0.00  0.00    +0.038 A 
ATOM     31 CL   UNL     1       1.450  -4.167  -0.213  0.00  0.00    -0.083 Cl
ENDBRANCH  20  30
ENDBRANCH  18  21
ENDBRANCH  17  18
ENDBRANCH   1  17
TORSDOF 5
