REMARK  Name = ZINC41038600
REMARK  5 active torsions:
REMARK  status: ('A' for Active; 'I' for Inactive)
REMARK    1  A    between atoms: C_1  and  C_2
REMARK    2  A    between atoms: C_2  and  C_3
REMARK    3  A    between atoms: C_6  and  C_9
REMARK    4  A    between atoms: C_6  and  N_21
REMARK    5  A    between atoms: C_11  and  C_14
REMARK                            x       y       z     vdW  Elec       q    Type
REMARK                         _______ _______ _______ _____ _____    ______ ____
ROOT
ATOM      1  C   UNL     1       0.742  -0.511   1.242  0.00  0.00    -0.011 C 
ATOM      2  C   UNL     1       2.210  -0.086   1.169  0.00  0.00    +0.002 C 
ATOM      3  C   UNL     1       2.950  -0.593   2.408  0.00  0.00    -0.003 C 
ATOM      4  C   UNL     1       2.863  -2.119   2.465  0.00  0.00    +0.010 C 
ATOM      5  C   UNL     1       1.395  -2.544   2.538  0.00  0.00    -0.003 C 
ATOM      6  C   UNL     1       0.655  -2.037   1.299  0.00  0.00    +0.002 C 
ENDROOT
BRANCH   4   7
ATOM      7  C   UNL     1       3.495  -2.705   1.228  0.00  0.00    +0.216 A 
ATOM      8  N   UNL     1       3.589  -3.974   0.950  0.00  0.00    -0.193 NA
ATOM      9  C   UNL     1       4.209  -4.141  -0.232  0.00  0.00    +0.202 A 
ATOM     10  N   UNL     1       4.515  -2.962  -0.715  0.00  0.00    -0.056 NA
ATOM     11  O   UNL     1       4.049  -2.008   0.228  0.00  0.00    -0.339 OA
BRANCH   9  12
ATOM     12  C   UNL     1       4.499  -5.444  -0.881  0.00  0.00    +0.023 A 
ATOM     13  C   UNL     1       4.115  -6.633  -0.263  0.00  0.00    +0.013 A 
ATOM     14  C   UNL     1       4.387  -7.842  -0.871  0.00  0.00    +0.016 A 
ATOM     15  C   UNL     1       5.040  -7.875  -2.091  0.00  0.00    +0.018 A 
ATOM     16  C   UNL     1       5.423  -6.696  -2.708  0.00  0.00    +0.016 A 
ATOM     17  C   UNL     1       5.150  -5.482  -2.112  0.00  0.00    +0.013 A 
ATOM     18 BR   UNL     1       5.409  -9.535  -2.917  0.00  0.00    -0.050 Br
ENDBRANCH   9  12
ENDBRANCH   4   7
BRANCH   4  19
ATOM     19  N   UNL     1       3.574  -2.606   3.655  0.00  0.00    +0.388 N 
ATOM     20  H   UNL     1       3.151  -2.214   4.483  0.00  0.00    -0.089 HD
ATOM     21  H   UNL     1       3.517  -3.612   3.693  0.00  0.00    -0.089 HD
ATOM     22  H   UNL     1       4.542  -2.325   3.607  0.00  0.00    -0.089 HD
ENDBRANCH   4  19
BRANCH   1  24
ATOM     23  C   UNL     1      -0.019   1.526   0.010  0.00  0.00    +0.004 C 
ATOM     24  C   UNL     1       0.002  -0.004   0.002  0.00  0.00    -0.000 C 
ENDBRANCH   1  24
TORSDOF 4
