REMARK  Name = ZINC01430908
REMARK  5 active torsions:
REMARK  status: ('A' for Active; 'I' for Inactive)
REMARK    1  A    between atoms: C_1  and  S_2
REMARK    2  A    between atoms: S_2  and  C_3
REMARK    3  A    between atoms: C_10  and  N_22
REMARK    4  A    between atoms: C_11  and  C_20
REMARK    5  A    between atoms: C_12  and  C_14
REMARK                            x       y       z     vdW  Elec       q    Type
REMARK                         _______ _______ _______ _____ _____    ______ ____
ROOT
ATOM      1  C   UNL     1       0.848  -0.411  -1.489  0.00  0.00    +0.193 A 
ATOM      2  N   UNL     1       1.285   0.567  -2.269  0.00  0.00    -0.207 NA
ATOM      3  C   UNL     1       1.929   0.296  -3.402  0.00  0.00    +0.128 A 
ATOM      4  C   UNL     1       2.137  -1.035  -3.757  0.00  0.00    +0.067 A 
ATOM      5  C   UNL     1       1.666  -2.030  -2.917  0.00  0.00    +0.232 A 
ATOM      6  N   UNL     1       1.035  -1.686  -1.796  0.00  0.00    -0.186 NA
ATOM      7  O   UNL     1       1.845  -3.335  -3.219  0.00  0.00    -0.423 OA
ATOM      8  C   UNL     1       2.138  -3.697  -4.480  0.00  0.00    +0.200 C 
ATOM      9  C   UNL     1       2.622  -2.818  -5.387  0.00  0.00    +0.098 C 
ATOM     10  C   UNL     1       2.860  -1.377  -5.029  0.00  0.00    +0.104 C 
ATOM     11  N   UNL     1       2.384   1.321  -4.216  0.00  0.00    -0.343 N 
ATOM     12  H   UNL     1       2.234   2.245  -3.962  0.00  0.00    +0.144 HD
ATOM     13  H   UNL     1       2.852   1.115  -5.040  0.00  0.00    +0.144 HD
ENDROOT
BRANCH  10  14
ATOM     14  C   UNL     1       4.338  -1.147  -4.841  0.00  0.00    -0.016 A 
ATOM     15  C   UNL     1       5.013  -0.235  -5.638  0.00  0.00    +0.007 A 
ATOM     16  C   UNL     1       6.372  -0.056  -5.429  0.00  0.00    +0.020 A 
ATOM     17  C   UNL     1       7.004  -0.788  -4.441  0.00  0.00    +0.111 A 
ATOM     18  N   UNL     1       6.330  -1.647  -3.702  0.00  0.00    -0.263 NA
ATOM     19  C   UNL     1       5.035  -1.838  -3.868  0.00  0.00    +0.115 A 
ENDBRANCH  10  14
BRANCH   8  20
ATOM     20  N   UNL     1       1.939  -5.001  -4.859  0.00  0.00    -0.328 N 
ATOM     21  H   UNL     1       1.593  -5.645  -4.221  0.00  0.00    +0.145 HD
ATOM     22  H   UNL     1       2.145  -5.280  -5.765  0.00  0.00    +0.145 HD
ENDBRANCH   8  20
BRANCH   1  24
ATOM     23  C   UNL     1      -0.022   1.810   0.012  0.00  0.00    +0.093 C 
ATOM     24  S   UNL     1       0.002  -0.004   0.002  0.00  0.00    -0.089 S 
ENDBRANCH   1  24
BRANCH   9  25
ATOM     25  C   UNL     1       2.913  -3.268  -6.715  0.00  0.00    +0.101 C 
ATOM     26  N   UNL     1       3.144  -3.625  -7.769  0.00  0.00    -0.191 NA
ENDBRANCH   9  25
TORSDOF 4
