REMARK  Name = ZINC05641836
REMARK  5 active torsions:
REMARK  status: ('A' for Active; 'I' for Inactive)
REMARK    1  A    between atoms: N_4  and  C1*_8
REMARK    2  A    between atoms: C2*_10  and  O2*_20
REMARK    3  A    between atoms: C3*_12  and  O3*_19
REMARK    4  A    between atoms: C4*_14  and  C5*_17
REMARK    5  A    between atoms: C5*_17  and  O5*_18
REMARK                            x       y       z     vdW  Elec       q    Type
REMARK                         _______ _______ _______ _____ _____    ______ ____
ROOT
ATOM      1  C1* UNL     1      -0.811   1.623  -1.200  0.00  0.00    +0.255 C 
ATOM      2  C2* UNL     1      -0.013   1.086   0.008  0.00  0.00    +0.195 C 
ATOM      3  C3* UNL     1      -0.788   1.610   1.237  0.00  0.00    +0.178 C 
ATOM      4  C4* UNL     1      -1.966   2.402   0.628  0.00  0.00    +0.177 C 
ATOM      5  O4* UNL     1      -2.148   1.838  -0.689  0.00  0.00    -0.346 OA
ENDROOT
BRANCH   1   9
ATOM      6  C   UNL     1      -0.788  -1.188  -4.278  0.00  0.00    +0.137 A 
ATOM      7  C   UNL     1      -2.010  -0.781  -3.732  0.00  0.00    +0.075 A 
ATOM      8  C   UNL     1      -2.012   0.137  -2.727  0.00  0.00    +0.114 A 
ATOM      9  N   UNL     1      -0.828   0.634  -2.281  0.00  0.00    -0.269 N 
ATOM     10  C   UNL     1       0.328   0.223  -2.833  0.00  0.00    +0.351 A 
ATOM     11  O   UNL     1       1.384   0.679  -2.428  0.00  0.00    -0.244 OA
ATOM     12  N   UNL     1       0.337  -0.681  -3.816  0.00  0.00    -0.200 NA
ATOM     13 CL   UNL     1      -3.503  -1.437  -4.328  0.00  0.00    -0.080 Cl
ENDBRANCH   1   9
BRANCH   3  14
ATOM     14  O3* UNL     1      -1.271   0.521   2.026  0.00  0.00    -0.386 OA
ATOM     15  H3* UNL     1      -1.766   0.793   2.812  0.00  0.00    +0.210 HD
ENDBRANCH   3  14
BRANCH   2  16
ATOM     16  O2* UNL     1       1.319   1.603  -0.002  0.00  0.00    -0.385 OA
ATOM     17  H2* UNL     1       1.856   1.321   0.751  0.00  0.00    +0.210 HD
ENDBRANCH   2  16
BRANCH   4  18
ATOM     18  C5* UNL     1      -3.229   2.211   1.471  0.00  0.00    +0.190 C 
BRANCH  18  19
ATOM     19  O5* UNL     1      -4.274   3.041   0.960  0.00  0.00    -0.392 OA
ATOM     20  H5* UNL     1      -5.106   2.970   1.447  0.00  0.00    +0.210 HD
ENDBRANCH  18  19
ENDBRANCH   4  18
TORSDOF 5
