REMARK  Name = ZINC40103960
REMARK  11 active torsions:
REMARK  status: ('A' for Active; 'I' for Inactive)
REMARK    1  A    between atoms: C_1  and  C_2
REMARK    2  A    between atoms: C_2  and  N_3
REMARK    3  A    between atoms: N_6  and  C_9
REMARK    4  A    between atoms: C_14  and  N_15
REMARK    5  A    between atoms: N_18  and  C_19
REMARK    6  A    between atoms: C_19  and  C_20
REMARK    7  A    between atoms: C_20  and  C_22
REMARK    8  A    between atoms: C_20  and  N_26
REMARK    9  A    between atoms: C_22  and  C_23
REMARK   10  A    between atoms: C_23  and  C_24
REMARK   11  A    between atoms: C_23  and  C_25
REMARK                            x       y       z     vdW  Elec       q    Type
REMARK                         _______ _______ _______ _____ _____    ______ ____
ROOT
ATOM      1  N   UNL     1       3.534  -2.880  -5.409  0.00  0.00    -0.268 N 
ATOM      2  C   UNL     1       3.897  -2.919  -6.706  0.00  0.00    +0.304 C 
ATOM      3  O   UNL     1       4.799  -3.652  -7.063  0.00  0.00    -0.253 OA
ATOM      4  N   UNL     1       3.259  -2.146  -7.608  0.00  0.00    -0.298 N 
ATOM      5  H   UNL     1       2.767  -2.352  -5.135  0.00  0.00    +0.156 HD
ATOM      6  H   UNL     1       2.540  -1.562  -7.323  0.00  0.00    +0.150 HD
ENDROOT
BRANCH   1  12
ATOM      7  C   UNL     1       4.416  -3.098  -3.162  0.00  0.00    +0.051 A 
ATOM      8  C   UNL     1       5.136  -3.819  -2.221  0.00  0.00    +0.025 A 
ATOM      9  C   UNL     1       5.704  -5.031  -2.566  0.00  0.00    +0.002 A 
ATOM     10  C   UNL     1       5.559  -5.527  -3.849  0.00  0.00    +0.002 A 
ATOM     11  C   UNL     1       4.844  -4.814  -4.793  0.00  0.00    +0.025 A 
ATOM     12  C   UNL     1       4.265  -3.601  -4.454  0.00  0.00    +0.056 A 
BRANCH   7  16
ATOM     13  N   UNL     1       3.105   0.345  -1.279  0.00  0.00    +0.382 N 
ATOM     14  C   UNL     1       4.510   0.174  -1.670  0.00  0.00    -0.060 C 
ATOM     15  C   UNL     1       4.581  -0.612  -2.984  0.00  0.00    +0.086 C 
ATOM     16  N   UNL     1       3.840  -1.871  -2.816  0.00  0.00    -0.332 N 
ATOM     17  C   UNL     1       2.474  -1.804  -2.272  0.00  0.00    +0.086 C 
ATOM     18  C   UNL     1       2.502  -0.962  -0.991  0.00  0.00    -0.060 C 
ATOM     19  H   UNL     1       2.601   0.788  -2.033  0.00  0.00    -0.082 HD
BRANCH  13  21
ATOM     20  C   UNL     1       3.545   2.594  -0.413  0.00  0.00    -0.017 C 
ATOM     21  C   UNL     1       3.032   1.191  -0.080  0.00  0.00    -0.082 C 
ENDBRANCH  13  21
ENDBRANCH   7  16
ENDBRANCH   1  12
BRANCH   4  22
ATOM     22  C   UNL     1       3.654  -2.189  -9.018  0.00  0.00    +0.124 C 
BRANCH  22  23
ATOM     23  C   UNL     1       2.865  -1.137  -9.800  0.00  0.00    +0.074 C 
BRANCH  23  24
ATOM     24  N   UNL     1       1.426  -1.351  -9.595  0.00  0.00    -0.294 NA
ATOM     25  C   UNL     1       1.019  -2.683 -10.067  0.00  0.00    +0.113 C 
ATOM     26  C   UNL     1      -0.471  -2.887  -9.780  0.00  0.00    +0.175 C 
ATOM     27  O   UNL     1      -1.218  -1.840 -10.405  0.00  0.00    -0.377 OA
ATOM     28  C   UNL     1      -0.849  -0.529  -9.969  0.00  0.00    +0.175 C 
ATOM     29  C   UNL     1       0.638  -0.302 -10.257  0.00  0.00    +0.113 C 
ENDBRANCH  23  24
BRANCH  23  30
ATOM     30  C   UNL     1       3.192  -1.259 -11.290  0.00  0.00    +0.023 C 
BRANCH  30  31
ATOM     31  C   UNL     1       4.671  -0.940 -11.516  0.00  0.00    -0.016 C 
ATOM     32  C   UNL     1       5.035  -1.215 -12.976  0.00  0.00    +0.007 C 
ATOM     33  C   UNL     1       4.930   0.533 -11.194  0.00  0.00    +0.007 C 
ENDBRANCH  30  31
ENDBRANCH  23  30
ENDBRANCH  22  23
ENDBRANCH   4  22
TORSDOF 8
