REMARK  Name = ZINC39664366
REMARK  7 active torsions:
REMARK  status: ('A' for Active; 'I' for Inactive)
REMARK    1  A    between atoms: C_1  and  C_2
REMARK    2  A    between atoms: C_6  and  C_9
REMARK    3  A    between atoms: C_13  and  C_22
REMARK    4  A    between atoms: N_24  and  C_25
REMARK    5  A    between atoms: C_25  and  C_26
REMARK    6  A    between atoms: C_26  and  C_28
REMARK    7  A    between atoms: C_26  and  N_34
REMARK                            x       y       z     vdW  Elec       q    Type
REMARK                         _______ _______ _______ _____ _____    ______ ____
ROOT
ATOM      1  C   UNL     1      -0.351  -2.268   2.031  0.00  0.00    +0.252 C 
ATOM      2  O   UNL     1       0.751  -2.425   2.520  0.00  0.00    -0.270 OA
ATOM      3  N   UNL     1      -1.446  -2.709   2.681  0.00  0.00    -0.296 N 
ATOM      4  C   UNL     1      -2.859  -2.616   2.245  0.00  0.00    +0.121 C 
ATOM      5  C   UNL     1      -3.486  -3.965   2.664  0.00  0.00    +0.100 C 
ATOM      6  C   UNL     1      -2.597  -4.471   3.812  0.00  0.00    -0.004 C 
ATOM      7  C   UNL     1      -1.508  -3.403   3.989  0.00  0.00    +0.115 C 
ATOM      8  C   UNL     1      -3.415  -4.612   5.092  0.00  0.00    -0.010 C 
ATOM      9  C   UNL     1      -2.523  -5.172   6.203  0.00  0.00    -0.082 C 
ATOM     10  N   UNL     1      -1.990  -6.477   5.794  0.00  0.00    +0.379 N 
ATOM     11  C   UNL     1      -1.129  -6.319   4.616  0.00  0.00    -0.082 C 
ATOM     12  C   UNL     1      -1.962  -5.807   3.437  0.00  0.00    -0.010 C 
ATOM     13  H   UNL     1      -1.452  -6.872   6.551  0.00  0.00    -0.086 HD
ATOM     14  H   UNL     1      -2.754  -7.096   5.570  0.00  0.00    -0.086 HD
ENDROOT
BRANCH   1  20
ATOM     15  C   UNL     1      -0.957   1.913  -0.630  0.00  0.00    +0.047 C 
ATOM     16  C   UNL     1      -0.781   0.418  -0.562  0.00  0.00    -0.014 A 
ATOM     17  C   UNL     1      -0.749  -0.327  -1.727  0.00  0.00    +0.009 A 
ATOM     18  C   UNL     1      -0.588  -1.699  -1.676  0.00  0.00    +0.039 A 
ATOM     19  C   UNL     1      -0.458  -2.339  -0.458  0.00  0.00    +0.138 A 
ATOM     20  C   UNL     1      -0.489  -1.594   0.726  0.00  0.00    +0.107 A 
ATOM     21  C   UNL     1      -0.646  -0.205   0.664  0.00  0.00    +0.141 A 
ATOM     22  F   UNL     1      -0.671   0.525   1.801  0.00  0.00    -0.204 F 
ATOM     23  F   UNL     1      -0.302  -3.680  -0.410  0.00  0.00    -0.205 F 
ENDBRANCH   1  20
BRANCH   5  24
ATOM     24  C   UNL     1      -3.463  -4.935   1.511  0.00  0.00    +0.218 C 
ATOM     25  O   UNL     1      -2.602  -4.846   0.661  0.00  0.00    -0.275 OA
ATOM     26  N   UNL     1      -4.398  -5.901   1.424  0.00  0.00    -0.313 N 
ATOM     27  H   UNL     1      -5.087  -5.972   2.104  0.00  0.00    +0.149 HD
BRANCH  26  28
ATOM     28  C   UNL     1      -4.375  -6.844   0.303  0.00  0.00    +0.127 C 
BRANCH  28  29
ATOM     29  C   UNL     1      -5.593  -7.767   0.388  0.00  0.00    +0.104 C 
BRANCH  29  30
ATOM     30  C   UNL     1      -5.506  -8.599   1.642  0.00  0.00    -0.029 A 
ATOM     31  C   UNL     1      -4.693  -9.716   1.675  0.00  0.00    +0.005 A 
ATOM     32  C   UNL     1      -4.613 -10.479   2.825  0.00  0.00    +0.000 A 
ATOM     33  C   UNL     1      -5.346 -10.124   3.942  0.00  0.00    +0.000 A 
ATOM     34  C   UNL     1      -6.158  -9.006   3.909  0.00  0.00    +0.000 A 
ATOM     35  C   UNL     1      -6.235  -8.241   2.761  0.00  0.00    +0.005 A 
ENDBRANCH  29  30
BRANCH  29  36
ATOM     36  N   UNL     1      -5.620  -8.651  -0.785  0.00  0.00    -0.290 NA
ATOM     37  C   UNL     1      -5.615  -7.872  -2.031  0.00  0.00    +0.113 C 
ATOM     38  C   UNL     1      -5.583  -8.830  -3.225  0.00  0.00    +0.175 C 
ATOM     39  O   UNL     1      -6.701  -9.719  -3.147  0.00  0.00    -0.377 OA
ATOM     40  C   UNL     1      -6.737 -10.494  -1.945  0.00  0.00    +0.175 C 
ATOM     41  C   UNL     1      -6.780  -9.552  -0.738  0.00  0.00    +0.113 C 
ENDBRANCH  29  36
ENDBRANCH  28  29
ENDBRANCH  26  28
ENDBRANCH   5  24
TORSDOF 6
