REMARK  Name = ZINC43756821
REMARK  4 active torsions:
REMARK  status: ('A' for Active; 'I' for Inactive)
REMARK    1  A    between atoms: C_1  and  C_2
REMARK    2  A    between atoms: C_12  and  O_15
REMARK    3  A    between atoms: C_16  and  C_28
REMARK    4  A    between atoms: C_19  and  O_27
REMARK                            x       y       z     vdW  Elec       q    Type
REMARK                         _______ _______ _______ _____ _____    ______ ____
ROOT
ATOM      1  C   UNL     1       0.221   1.526   0.185  0.00  0.00    +0.011 C 
ATOM      2  C   UNL     1       0.187  -0.003   0.136  0.00  0.00    -0.026 C 
ATOM      3  C   UNL     1       1.083  -0.491  -1.018  0.00  0.00    +0.007 C 
ATOM      4  C   UNL     1       2.514  -0.335  -0.454  0.00  0.00    +0.001 C 
ATOM      5  C   UNL     1       2.386  -0.354   1.081  0.00  0.00    +0.005 C 
ATOM      6  C   UNL     1       0.880  -0.565   1.391  0.00  0.00    +0.006 C 
ATOM      7  C   UNL     1       0.659  -2.075   1.491  0.00  0.00    +0.065 C 
ATOM      8  C   UNL     1      -0.834  -2.399   1.458  0.00  0.00    +0.034 C 
ATOM      9  C   UNL     1      -1.388  -1.967   0.096  0.00  0.00    +0.119 C 
ATOM     10  C   UNL     1      -1.242  -0.463  -0.025  0.00  0.00    +0.038 C 
ATOM     11  C   UNL     1      -1.041  -3.901   1.662  0.00  0.00    -0.023 C 
ATOM     12  C   UNL     1      -2.534  -4.217   1.539  0.00  0.00    +0.010 C 
ATOM     13  C   UNL     1      -2.765  -5.713   1.755  0.00  0.00    +0.032 C 
ATOM     14  C   UNL     1      -2.280  -6.102   3.154  0.00  0.00    +0.115 C 
ATOM     15  C   UNL     1      -0.786  -5.800   3.271  0.00  0.00    +0.035 C 
ATOM     16  C   UNL     1      -0.541  -4.305   3.050  0.00  0.00    +0.005 C 
ATOM     17  C   UNL     1       0.964  -4.032   3.160  0.00  0.00    +0.078 C 
ATOM     18  C   UNL     1       1.226  -2.593   2.793  0.00  0.00    +0.137 C 
ATOM     19  O   UNL     1       1.871  -1.877   3.521  0.00  0.00    -0.297 OA
ATOM     20  C   UNL     1      -0.263  -4.673   0.594  0.00  0.00    +0.012 C 
ENDROOT
BRANCH   9  21
ATOM     21  O   UNL     1      -0.641  -2.593  -0.949  0.00  0.00    -0.391 OA
ATOM     22  H   UNL     1      -0.941  -2.362  -1.839  0.00  0.00    +0.210 HD
ENDBRANCH   9  21
BRANCH  14  23
ATOM     23  O   UNL     1      -2.998  -5.350   4.134  0.00  0.00    -0.392 OA
ATOM     24  H   UNL     1      -3.954  -5.491   4.115  0.00  0.00    +0.210 HD
ENDBRANCH  14  23
TORSDOF 2
