REMARK  Name = ZINC03082214
REMARK  8 active torsions:
REMARK  status: ('A' for Active; 'I' for Inactive)
REMARK    1  A    between atoms: C_1  and  C_2
REMARK    2  A    between atoms: C_2  and  C_3
REMARK    3  A    between atoms: C_2  and  C_4
REMARK    4  A    between atoms: C_7  and  C_10
REMARK    5  A    between atoms: N_11  and  N_12
REMARK    6  A    between atoms: C_13  and  C_15
REMARK    7  A    between atoms: C_15  and  C_16
REMARK    8  A    between atoms: N_18  and  C_19
REMARK                            x       y       z     vdW  Elec       q    Type
REMARK                         _______ _______ _______ _____ _____    ______ ____
ROOT
ATOM      1  N   UNL     1      -3.503   4.665   6.102  0.00  0.00    -0.207 N 
ATOM      2  C   UNL     1      -3.636   5.987   6.327  0.00  0.00    +0.241 C 
ATOM      3  O   UNL     1      -3.185   6.786   5.533  0.00  0.00    -0.274 OA
ATOM      4  H   UNL     1      -3.863   4.026   6.737  0.00  0.00    +0.177 HD
ENDROOT
BRANCH   1   6
ATOM      5  C   UNL     1      -2.715   2.940   4.735  0.00  0.00    +0.138 C 
ATOM      6  N   UNL     1      -2.843   4.213   4.951  0.00  0.00    -0.188 NA
BRANCH   5  10
ATOM      7  C   UNL     1      -0.719   1.571   1.248  0.00  0.00    -0.045 A 
ATOM      8  C   UNL     1      -0.849   2.929   1.479  0.00  0.00    +0.004 A 
ATOM      9  C   UNL     1      -1.501   3.381   2.607  0.00  0.00    +0.010 A 
ATOM     10  C   UNL     1      -2.021   2.464   3.523  0.00  0.00    -0.005 A 
ATOM     11  C   UNL     1      -1.881   1.095   3.287  0.00  0.00    +0.010 A 
ATOM     12  C   UNL     1      -1.231   0.657   2.152  0.00  0.00    +0.004 A 
BRANCH   7  14
ATOM     13  C   UNL     1       1.428   1.607   0.008  0.00  0.00    +0.012 C 
ATOM     14  C   UNL     1      -0.010   1.085   0.010  0.00  0.00    +0.013 C 
ATOM     15  C   UNL     1      -0.742   1.599  -1.231  0.00  0.00    +0.012 C 
ENDBRANCH   7  14
ENDBRANCH   5  10
ENDBRANCH   1   6
BRANCH   2  16
ATOM     16  C   UNL     1      -4.345   6.473   7.564  0.00  0.00    +0.193 C 
BRANCH  16  17
ATOM     17  C   UNL     1      -4.357   7.980   7.577  0.00  0.00    +0.226 C 
ATOM     18  O   UNL     1      -3.841   8.598   6.670  0.00  0.00    -0.275 OA
ATOM     19  N   UNL     1      -4.942   8.641   8.596  0.00  0.00    -0.285 N 
ATOM     20  H   UNL     1      -5.413   8.148   9.287  0.00  0.00    +0.155 HD
BRANCH  19  21
ATOM     21  C   UNL     1      -4.870  10.037   8.658  0.00  0.00    +0.035 A 
ATOM     22  C   UNL     1      -4.777  10.675   9.888  0.00  0.00    +0.025 A 
ATOM     23  C   UNL     1      -4.699  12.052   9.947  0.00  0.00    +0.023 A 
ATOM     24  C   UNL     1      -4.726  12.799   8.782  0.00  0.00    +0.059 A 
ATOM     25  C   UNL     1      -4.824  12.166   7.554  0.00  0.00    +0.061 A 
ATOM     26  C   UNL     1      -4.896  10.787   7.490  0.00  0.00    +0.044 A 
ATOM     27 CL   UNL     1      -4.857  13.105   6.095  0.00  0.00    -0.082 Cl
ATOM     28 CL   UNL     1      -4.635  14.531   8.860  0.00  0.00    -0.082 Cl
ENDBRANCH  19  21
ENDBRANCH  16  17
ENDBRANCH   2  16
TORSDOF 6
