REMARK  Name = ZINC62001289
REMARK  8 active torsions:
REMARK  status: ('A' for Active; 'I' for Inactive)
REMARK    1  A    between atoms: C_1  and  C_2
REMARK    2  A    between atoms: N_4  and  C_5
REMARK    3  A    between atoms: C_7  and  O_31
REMARK    4  A    between atoms: C_9  and  O_30
REMARK    5  A    between atoms: C_11  and  C_28
REMARK    6  A    between atoms: C_14  and  O_16
REMARK    7  A    between atoms: O_16  and  C_17
REMARK    8  A    between atoms: C_28  and  O_29
REMARK                            x       y       z     vdW  Elec       q    Type
REMARK                         _______ _______ _______ _____ _____    ______ ____
ROOT
ATOM      1  C   UNL     1       0.020  -2.136  -1.177  0.00  0.00    +0.173 C 
ATOM      2  C   UNL     1       0.622  -2.633  -2.495  0.00  0.00    +0.172 C 
ATOM      3  C   UNL     1       0.566  -4.163  -2.525  0.00  0.00    +0.176 C 
ATOM      4  C   UNL     1      -0.885  -4.617  -2.341  0.00  0.00    +0.179 C 
ATOM      5  O   UNL     1      -1.393  -4.096  -1.111  0.00  0.00    -0.332 OA
ATOM      6  C   UNL     1      -1.409  -2.668  -1.044  0.00  0.00    +0.331 C 
ENDROOT
BRANCH   1  10
ATOM      7  C   UNL     1      -0.018   1.503   0.010  0.00  0.00    +0.109 C 
ATOM      8  C   UNL     1       0.002  -0.004   0.002  0.00  0.00    +0.210 C 
ATOM      9  O   UNL     1       0.020  -0.616   1.049  0.00  0.00    -0.276 OA
ATOM     10  N   UNL     1       0.000  -0.672  -1.169  0.00  0.00    -0.304 N 
ATOM     11  H   UNL     1      -0.015  -0.182  -2.006  0.00  0.00    +0.149 HD
ENDBRANCH   1  10
BRANCH   3  12
ATOM     12  O   UNL     1       1.059  -4.635  -3.780  0.00  0.00    -0.387 OA
ATOM     13  H   UNL     1       1.053  -5.598  -3.869  0.00  0.00    +0.210 HD
ENDBRANCH   3  12
BRANCH   2  14
ATOM     14  O   UNL     1       1.980  -2.201  -2.594  0.00  0.00    -0.387 OA
ATOM     15  H   UNL     1       2.424  -2.480  -3.406  0.00  0.00    +0.210 HD
ENDBRANCH   2  14
BRANCH   6  16
ATOM     16  O   UNL     1      -1.956  -2.256   0.211  0.00  0.00    -0.459 OA
BRANCH  16  17
ATOM     17  C   UNL     1      -3.260  -2.557   0.444  0.00  0.00    +0.150 A 
ATOM     18  C   UNL     1      -3.988  -3.230  -0.496  0.00  0.00    +0.049 A 
ATOM     19  C   UNL     1      -5.325  -3.548  -0.275  0.00  0.00    +0.024 A 
ATOM     20  C   UNL     1      -5.947  -3.195   0.885  0.00  0.00    +0.050 A 
ATOM     21  C   UNL     1      -5.231  -2.502   1.876  0.00  0.00    +0.022 A 
ATOM     22  C   UNL     1      -3.868  -2.181   1.660  0.00  0.00    +0.114 A 
ATOM     23  N   UNL     1      -3.182  -1.526   2.600  0.00  0.00    -0.251 NA
ATOM     24  C   UNL     1      -3.742  -1.174   3.732  0.00  0.00    +0.111 A 
ATOM     25  C   UNL     1      -5.076  -1.464   4.011  0.00  0.00    +0.020 A 
ATOM     26  C   UNL     1      -5.838  -2.120   3.087  0.00  0.00    +0.013 A 
ATOM     27 CL   UNL     1      -7.616  -3.600   1.139  0.00  0.00    -0.083 Cl
ENDBRANCH  16  17
ENDBRANCH   6  16
BRANCH   4  28
ATOM     28  C   UNL     1      -0.942  -6.146  -2.309  0.00  0.00    +0.190 C 
BRANCH  28  29
ATOM     29  O   UNL     1      -2.305  -6.571  -2.255  0.00  0.00    -0.392 OA
ATOM     30  H   UNL     1      -2.417  -7.531  -2.233  0.00  0.00    +0.210 HD
ENDBRANCH  28  29
ENDBRANCH   4  28
TORSDOF 7
