REMARK  Name = ZINC66510676
REMARK  5 active torsions:
REMARK  status: ('A' for Active; 'I' for Inactive)
REMARK    1  A    between atoms: C_3  and  N_21
REMARK    2  A    between atoms: C_6  and  C_7
REMARK    3  A    between atoms: C_7  and  O_9
REMARK    4  A    between atoms: O_9  and  C_10
REMARK    5  A    between atoms: C_25  and  C_28
REMARK                            x       y       z     vdW  Elec       q    Type
REMARK                         _______ _______ _______ _____ _____    ______ ____
ROOT
ATOM      1  C   UNL     1      -0.031   1.376   0.043  0.00  0.00    +0.017 A 
ATOM      2  C   UNL     1       1.136   2.096   0.035  0.00  0.00    +0.024 A 
ATOM      3  C   UNL     1       2.362   1.439  -0.003  0.00  0.00    +0.030 A 
ATOM      4  C   UNL     1       2.409   0.047  -0.033  0.00  0.00    +0.024 A 
ATOM      5  C   UNL     1       1.246  -0.679  -0.026  0.00  0.00    +0.017 A 
ATOM      6  C   UNL     1       0.013  -0.022   0.012  0.00  0.00    +0.060 A 
ENDROOT
BRANCH   3   7
ATOM      7  N   UNL     1       3.543   2.173  -0.011  0.00  0.00    -0.329 N 
ATOM      8  C   UNL     1       4.845   1.497   0.072  0.00  0.00    +0.105 C 
ATOM      9  C   UNL     1       5.643   2.105   1.230  0.00  0.00    +0.020 C 
ATOM     10  C   UNL     1       5.732   3.621   1.042  0.00  0.00    +0.016 C 
ATOM     11  C   UNL     1       4.325   4.222   1.057  0.00  0.00    +0.092 C 
ATOM     12  C   UNL     1       3.513   3.638  -0.108  0.00  0.00    +0.117 C 
BRANCH  11  13
ATOM     13  C   UNL     1       4.416   5.719   0.905  0.00  0.00    +0.215 C 
ATOM     14  O   UNL     1       3.882   6.267  -0.035  0.00  0.00    -0.276 OA
ATOM     15  N   UNL     1       5.092   6.449   1.815  0.00  0.00    -0.329 N 
ATOM     16  H   UNL     1       5.519   6.011   2.568  0.00  0.00    +0.145 HD
ATOM     17  H   UNL     1       5.150   7.412   1.718  0.00  0.00    +0.145 HD
ENDBRANCH  11  13
ENDBRANCH   3   7
BRANCH   6  18
ATOM     18  C   UNL     1      -1.239  -0.800   0.020  0.00  0.00    +0.344 C 
ATOM     19  O   UNL     1      -2.310  -0.227   0.053  0.00  0.00    -0.245 OA
BRANCH  18  20
ATOM     20  O   UNL     1      -1.196  -2.147  -0.009  0.00  0.00    -0.422 OA
BRANCH  20  21
ATOM     21  C   UNL     1      -2.372  -2.821  -0.107  0.00  0.00    +0.132 A 
ATOM     22  C   UNL     1      -2.902  -3.455   1.007  0.00  0.00    +0.048 A 
ATOM     23  C   UNL     1      -4.096  -4.141   0.909  0.00  0.00    +0.027 A 
ATOM     24  C   UNL     1      -4.767  -4.196  -0.306  0.00  0.00    +0.037 A 
ATOM     25  C   UNL     1      -4.236  -3.560  -1.420  0.00  0.00    -0.022 A 
ATOM     26  C   UNL     1      -3.044  -2.870  -1.320  0.00  0.00    +0.051 A 
ATOM     27  C   UNL     1      -4.966  -3.620  -2.737  0.00  0.00    +0.046 C 
ATOM     28  C   UNL     1      -5.673  -4.970  -2.869  0.00  0.00    +0.101 C 
ATOM     29  C   UNL     1      -6.447  -5.268  -1.613  0.00  0.00    +0.218 C 
ATOM     30  O   UNL     1      -7.505  -5.856  -1.686  0.00  0.00    -0.275 OA
ATOM     31  N   UNL     1      -5.978  -4.890  -0.409  0.00  0.00    -0.285 N 
ATOM     32  H   UNL     1      -6.483  -5.100   0.392  0.00  0.00    +0.155 HD
ENDBRANCH  20  21
ENDBRANCH  18  20
ENDBRANCH   6  18
TORSDOF 5
