REMARK  Name = ZINC24956297
REMARK  13 active torsions:
REMARK  status: ('A' for Active; 'I' for Inactive)
REMARK    1  A    between atoms: C_1  and  C_2
REMARK    2  A    between atoms: C_2  and  C_3
REMARK    3  A    between atoms: C_3  and  C_4
REMARK    4  A    between atoms: C_4  and  N_5
REMARK    5  A    between atoms: C_6  and  N_34
REMARK    6  A    between atoms: C_7  and  N_14
REMARK    7  A    between atoms: N_14  and  C_15
REMARK    8  A    between atoms: N_14  and  C_17
REMARK    9  A    between atoms: C_15  and  C_16
REMARK   10  A    between atoms: C_17  and  C_18
REMARK   11  A    between atoms: N_20  and  C_21
REMARK   12  A    between atoms: C_24  and  C_30
REMARK   13  A    between atoms: C_31  and  C_33
REMARK                            x       y       z     vdW  Elec       q    Type
REMARK                         _______ _______ _______ _____ _____    ______ ____
ROOT
ATOM      1  N   UNL     1      -2.433   0.975   0.019  0.00  0.00    -0.315 N 
ENDROOT
BRANCH   1   4
ATOM      2  N   UNL     1      -5.612   1.985  -1.513  0.00  0.00    -0.280 N 
ATOM      3  C   UNL     1      -4.408   1.345  -1.323  0.00  0.00    +0.127 A 
ATOM      4  C   UNL     1      -3.673   1.618  -0.201  0.00  0.00    +0.134 A 
ATOM      5  C   UNL     1      -4.172   2.544   0.733  0.00  0.00    +0.277 A 
ATOM      6  O   UNL     1      -3.538   2.799   1.743  0.00  0.00    -0.266 OA
ATOM      7  N   UNL     1      -5.353   3.151   0.502  0.00  0.00    -0.273 N 
ATOM      8  H   UNL     1      -5.745   3.883   1.223  0.00  0.00    +0.173 HD
ATOM      9  C   UNL     1      -6.063   2.870  -0.606  0.00  0.00    +0.331 A 
ATOM     10  O   UNL     1      -7.129   3.425  -0.790  0.00  0.00    -0.246 OA
BRANCH   3  11
ATOM     11  N   UNL     1      -3.947   0.440  -2.252  0.00  0.00    -0.343 N 
ATOM     12  H   UNL     1      -2.985  -0.069  -2.094  0.00  0.00    +0.144 HD
ATOM     13  H   UNL     1      -4.542   0.224  -3.151  0.00  0.00    +0.144 HD
ENDBRANCH   3  11
BRANCH   2  14
ATOM     14  C   UNL     1      -6.406   1.700  -2.711  0.00  0.00    +0.128 C 
BRANCH  14  15
ATOM     15  C   UNL     1      -7.359   0.537  -2.425  0.00  0.00    +0.021 C 
BRANCH  15  17
ATOM     16  C   UNL     1      -9.142  -0.923  -3.391  0.00  0.00    +0.004 C 
ATOM     17  C   UNL     1      -8.189   0.240  -3.676  0.00  0.00    -0.002 C 
ENDBRANCH  15  17
ENDBRANCH  14  15
ENDBRANCH   2  14
ENDBRANCH   1   4
BRANCH   1  18
ATOM     18  C   UNL     1      -2.455   0.202   1.268  0.00  0.00    +0.102 C 
ATOM     19  C   UNL     1      -3.447  -0.955   1.135  0.00  0.00    +0.024 C 
ENDBRANCH   1  18
BRANCH   1  20
ATOM     20  C   UNL     1      -1.330   1.944   0.019  0.00  0.00    +0.201 C 
BRANCH  20  21
ATOM     21  C   UNL     1      -0.014   1.209   0.009  0.00  0.00    +0.237 C 
ATOM     22  O   UNL     1       0.002  -0.004   0.002  0.00  0.00    -0.274 OA
ATOM     23  N   UNL     1       1.143   1.898   0.001  0.00  0.00    -0.254 N 
ATOM     24  H   UNL     1       1.129   2.998   0.007  0.00  0.00    +0.158 HD
BRANCH  23  25
ATOM     25  C   UNL     1       2.352   1.222  -0.014  0.00  0.00    +0.206 A 
ATOM     26  C   UNL     1       3.598   1.800  -0.023  0.00  0.00    +0.110 A 
ATOM     27  C   UNL     1       4.561   0.671  -0.037  0.00  0.00    +0.053 A 
ATOM     28  C   UNL     1       5.990   0.994  -0.049  0.00  0.00    +0.070 A 
ATOM     29  N   UNL     1       6.369   2.235  -0.046  0.00  0.00    -0.175 NA
ATOM     30  N   UNL     1       5.485   3.311  -0.033  0.00  0.00    -0.242 N 
ATOM     31  H   UNL     1       5.872   4.340  -0.031  0.00  0.00    +0.192 HD
ATOM     32  C   UNL     1       4.145   3.153  -0.022  0.00  0.00    +0.277 A 
ATOM     33  O   UNL     1       3.406   4.122  -0.010  0.00  0.00    -0.266 OA
ATOM     34  C   UNL     1       7.016  -0.110  -0.065  0.00  0.00    +0.068 C 
ATOM     35  C   UNL     1       3.810  -0.451  -0.036  0.00  0.00    +0.114 A 
ATOM     36  O   UNL     1       2.508  -0.110  -0.017  0.00  0.00    -0.445 OA
ATOM     37  C   UNL     1       4.345  -1.860  -0.049  0.00  0.00    +0.087 C 
ENDBRANCH  23  25
ENDBRANCH  20  21
ENDBRANCH   1  20
TORSDOF 9
