REMARK  Name = ZINC41993016
REMARK  4 active torsions:
REMARK  status: ('A' for Active; 'I' for Inactive)
REMARK    1  A    between atoms: C_1  and  C_2
REMARK    2  A    between atoms: C_3  and  S_8
REMARK    3  A    between atoms: S_8  and  C_9
REMARK    4  A    between atoms: C_9  and  C_19
REMARK                            x       y       z     vdW  Elec       q    Type
REMARK                         _______ _______ _______ _____ _____    ______ ____
ROOT
ATOM      1  C   UNL     1      -0.076  -1.483  -3.960  0.00  0.00    +0.154 C 
ATOM      2  C   UNL     1      -0.021  -0.983  -5.406  0.00  0.00    +0.075 C 
ATOM      3  C   UNL     1       0.222  -2.189  -6.323  0.00  0.00    +0.231 C 
ATOM      4  O   UNL     1       1.511  -2.727  -6.028  0.00  0.00    -0.492 OA
ATOM      5  C   UNL     1       1.818  -2.963  -4.726  0.00  0.00    +0.126 A 
ATOM      6  C   UNL     1       1.095  -2.393  -3.692  0.00  0.00    +0.021 A 
ATOM      7  C   UNL     1       1.447  -2.658  -2.378  0.00  0.00    +0.009 A 
ATOM      8  C   UNL     1       2.513  -3.490  -2.096  0.00  0.00    +0.001 A 
ATOM      9  C   UNL     1       3.234  -4.063  -3.127  0.00  0.00    +0.004 A 
ATOM     10  C   UNL     1       2.889  -3.801  -4.437  0.00  0.00    +0.046 A 
ENDROOT
BRANCH   1  11
ATOM     11  C   UNL     1      -1.360  -2.241  -3.741  0.00  0.00    +0.377 C 
ATOM     12  O   UNL     1      -2.157  -1.861  -2.901  0.00  0.00    -0.244 OA
ATOM     13  O   UNL     1      -1.602  -3.235  -4.405  0.00  0.00    -0.244 OA
ENDBRANCH   1  11
BRANCH   1  14
ATOM     14  S   UNL     1      -0.012  -0.066  -2.829  0.00  0.00    -0.093 S 
BRANCH  14  17
ATOM     15  C   UNL     1       1.335   2.645  -1.664  0.00  0.00    +0.067 C 
ATOM     16  C   UNL     1       2.111   1.798  -2.640  0.00  0.00    +0.061 A 
ATOM     17  C   UNL     1       1.564   0.657  -3.141  0.00  0.00    +0.071 A 
ATOM     18  S   UNL     1       2.888   0.094  -4.203  0.00  0.00    -0.046 S 
ATOM     19  C   UNL     1       4.024   1.433  -3.868  0.00  0.00    +0.157 A 
ATOM     20  N   UNL     1       3.324   2.162  -3.019  0.00  0.00    -0.229 NA
ATOM     21  N   UNL     1       5.301   1.652  -4.372  0.00  0.00    -0.337 N 
ATOM     22  H   UNL     1       5.688   1.023  -5.000  0.00  0.00    +0.144 HD
ATOM     23  H   UNL     1       5.804   2.433  -4.095  0.00  0.00    +0.144 HD
ENDBRANCH  14  17
ENDBRANCH   1  14
TORSDOF 3
