REMARK  Name = ZINC37627553
REMARK  5 active torsions:
REMARK  status: ('A' for Active; 'I' for Inactive)
REMARK    1  A    between atoms: C_3  and  N_9
REMARK    2  A    between atoms: C_10  and  C_12
REMARK    3  A    between atoms: C_12  and  C_14
REMARK    4  A    between atoms: C_12  and  N_18
REMARK    5  A    between atoms: C_14  and  C_15
REMARK                            x       y       z     vdW  Elec       q    Type
REMARK                         _______ _______ _______ _____ _____    ______ ____
ROOT
ATOM      1  N   UNL     1       3.584   2.126  -0.021  0.00  0.00    -0.286 N 
ATOM      2  C   UNL     1       3.568   3.470  -0.116  0.00  0.00    +0.203 C 
ATOM      3  O   UNL     1       2.512   4.067  -0.103  0.00  0.00    -0.277 OA
ATOM      4  H   UNL     1       4.430   1.654   0.034  0.00  0.00    +0.155 HD
ENDROOT
BRANCH   1   7
ATOM      5  C   UNL     1       0.075   1.243   0.633  0.00  0.00    +0.017 A 
ATOM      6  C   UNL     1       1.261   1.950   0.617  0.00  0.00    +0.025 A 
ATOM      7  C   UNL     1       2.381   1.411  -0.002  0.00  0.00    +0.047 A 
ATOM      8  C   UNL     1       2.304   0.161  -0.604  0.00  0.00    +0.040 A 
ATOM      9  C   UNL     1       1.115  -0.542  -0.584  0.00  0.00    +0.032 A 
ATOM     10  C   UNL     1       0.001  -0.002   0.034  0.00  0.00    +0.019 A 
ATOM     11 BR   UNL     1      -1.625  -0.966   0.059  0.00  0.00    -0.050 Br
ATOM     12 BR   UNL     1       3.826  -0.578  -1.449  0.00  0.00    -0.048 Br
ENDBRANCH   1   7
BRANCH   2  13
ATOM     13  C   UNL     1       4.862   4.233  -0.238  0.00  0.00    +0.022 C 
BRANCH  13  14
ATOM     14  N   UNL     1       4.595   5.566  -0.795  0.00  0.00    +0.386 N 
ATOM     15  H   UNL     1       3.966   6.066  -0.183  0.00  0.00    -0.089 HD
ATOM     16  H   UNL     1       5.461   6.076  -0.876  0.00  0.00    -0.089 HD
ATOM     17  H   UNL     1       4.173   5.471  -1.706  0.00  0.00    -0.089 HD
ENDBRANCH  13  14
BRANCH  13  18
ATOM     18  C   UNL     1       5.502   4.376   1.144  0.00  0.00    +0.088 C 
BRANCH  18  19
ATOM     19  C   UNL     1       6.853   5.029   1.007  0.00  0.00    +0.209 C 
ATOM     20  O   UNL     1       7.264   5.349  -0.089  0.00  0.00    -0.276 OA
ATOM     21  N   UNL     1       7.606   5.259   2.101  0.00  0.00    -0.329 N 
ATOM     22  H   UNL     1       7.277   5.003   2.978  0.00  0.00    +0.145 HD
ATOM     23  H   UNL     1       8.475   5.679   2.013  0.00  0.00    +0.145 HD
ENDBRANCH  18  19
ENDBRANCH  13  18
ENDBRANCH   2  13
TORSDOF 5
