REMARK  Name = ZINC36367272
REMARK  8 active torsions:
REMARK  status: ('A' for Active; 'I' for Inactive)
REMARK    1  A    between atoms: C_1  and  C_2
REMARK    2  A    between atoms: C_2  and  C_3
REMARK    3  A    between atoms: C_2  and  O_4
REMARK    4  A    between atoms: O_4  and  C_5
REMARK    5  A    between atoms: C_7  and  C_13
REMARK    6  A    between atoms: C_10  and  O_11
REMARK    7  A    between atoms: O_11  and  C_12
REMARK    8  A    between atoms: C_16  and  O_24
REMARK                            x       y       z     vdW  Elec       q    Type
REMARK                         _______ _______ _______ _____ _____    ______ ____
ROOT
ATOM      1  C   UNL     1       4.788  -0.134   1.427  0.00  0.00    +0.068 C 
ATOM      2  C   UNL     1       5.598  -1.374   1.839  0.00  0.00    +0.109 C 
ATOM      3  C   UNL     1       6.680  -0.999   2.809  0.00  0.00    +0.190 C 
ATOM      4  N   UNL     1       7.302   0.131   2.815  0.00  0.00    -0.197 NA
ATOM      5  C   UNL     1       6.949   1.126   1.908  0.00  0.00    +0.169 A 
ATOM      6  C   UNL     1       5.748   0.991   1.252  0.00  0.00    +0.045 A 
ATOM      7  S   UNL     1       5.693   2.431   0.229  0.00  0.00    -0.055 S 
ATOM      8  C   UNL     1       7.254   3.128   0.761  0.00  0.00    +0.158 A 
ATOM      9  N   UNL     1       7.666   2.221   1.632  0.00  0.00    -0.206 NA
ATOM     10  N   UNL     1       7.870   4.303   0.362  0.00  0.00    -0.337 N 
ATOM     11  H   UNL     1       7.445   4.874  -0.297  0.00  0.00    +0.144 HD
ATOM     12  H   UNL     1       8.726   4.555   0.742  0.00  0.00    +0.144 HD
ENDROOT
BRANCH   1  15
ATOM     13  C   UNL     1       2.027  -0.553  -1.118  0.00  0.00    +0.163 A 
ATOM     14  C   UNL     1       2.690  -0.309   0.074  0.00  0.00    +0.053 A 
ATOM     15  C   UNL     1       4.068  -0.399   0.130  0.00  0.00    -0.035 A 
ATOM     16  C   UNL     1       4.788  -0.732  -1.002  0.00  0.00    +0.008 A 
ATOM     17  C   UNL     1       4.133  -0.977  -2.195  0.00  0.00    +0.050 A 
ATOM     18  C   UNL     1       2.751  -0.894  -2.256  0.00  0.00    +0.162 A 
BRANCH  18  19
ATOM     19  O   UNL     1       2.105  -1.140  -3.427  0.00  0.00    -0.491 OA
ATOM     20  C   UNL     1       2.913  -1.484  -4.554  0.00  0.00    +0.277 C 
ENDBRANCH  18  19
BRANCH  13  21
ATOM     21  O   UNL     1       0.671  -0.465  -1.174  0.00  0.00    -0.486 OA
BRANCH  21  23
ATOM     22  C   UNL     1      -0.051   1.266   0.351  0.00  0.00    +0.051 C 
ATOM     23  C   UNL     1      -0.016  -0.236   0.058  0.00  0.00    +0.167 C 
ATOM     24  C   UNL     1      -1.446  -0.768  -0.049  0.00  0.00    +0.051 C 
ENDBRANCH  21  23
ENDBRANCH  13  21
ENDBRANCH   1  15
BRANCH   3  25
ATOM     25  O   UNL     1       7.028  -1.911   3.743  0.00  0.00    -0.495 OA
ATOM     26  H   UNL     1       7.729  -1.615   4.339  0.00  0.00    +0.293 HD
ENDBRANCH   3  25
TORSDOF 5
