REMARK  Name = ZINC38818895
REMARK  7 active torsions:
REMARK  status: ('A' for Active; 'I' for Inactive)
REMARK    1  A    between atoms: C_1  and  C_2
REMARK    2  A    between atoms: C_7  and  C_8
REMARK    3  A    between atoms: C_8  and  O_9
REMARK    4  A    between atoms: O_9  and  C_10
REMARK    5  A    between atoms: C_15  and  C_16
REMARK    6  A    between atoms: C_17  and  C_18
REMARK    7  A    between atoms: C_17  and  C_20
REMARK                            x       y       z     vdW  Elec       q    Type
REMARK                         _______ _______ _______ _____ _____    ______ ____
ROOT
ATOM      1  C   UNL     1      -0.701  -0.368   5.529  0.00  0.00    +0.128 A 
ATOM      2  C   UNL     1      -1.136   0.856   6.011  0.00  0.00    +0.046 A 
ATOM      3  C   UNL     1      -1.432   1.007   7.353  0.00  0.00    +0.004 A 
ATOM      4  C   UNL     1      -1.296  -0.060   8.225  0.00  0.00    +0.001 A 
ATOM      5  C   UNL     1      -0.864  -1.285   7.765  0.00  0.00    +0.011 A 
ATOM      6  C   UNL     1      -0.567  -1.454   6.408  0.00  0.00    +0.018 A 
ENDROOT
BRANCH   6   7
ATOM      7  C   UNL     1      -0.113  -2.759   5.907  0.00  0.00    +0.030 C 
ATOM      8  C   UNL     1       0.787  -3.477   6.613  0.00  0.00    +0.072 C 
BRANCH   8   9
ATOM      9  C   UNL     1       1.450  -2.872   7.824  0.00  0.00    +0.216 C 
ATOM     10  N   UNL     1       2.904  -3.065   7.751  0.00  0.00    -0.359 N 
ATOM     11  C   UNL     1       3.256  -3.771   8.787  0.00  0.00    +0.060 A 
ATOM     12  C   UNL     1       4.553  -4.278   9.256  0.00  0.00    +0.027 A 
ATOM     13  C   UNL     1       4.614  -4.999  10.393  0.00  0.00    +0.002 A 
ATOM     14  C   UNL     1       3.476  -5.296  11.164  0.00  0.00    +0.002 A 
ATOM     15  C   UNL     1       2.239  -4.881  10.824  0.00  0.00    +0.027 A 
ATOM     16  C   UNL     1       2.052  -4.085   9.603  0.00  0.00    +0.060 A 
ATOM     17  N   UNL     1       1.001  -3.560   9.041  0.00  0.00    -0.359 N 
ATOM     18  H   UNL     1       3.493  -2.729   7.058  0.00  0.00    +0.162 HD
ATOM     19  H   UNL     1       0.089  -3.614   9.367  0.00  0.00    +0.162 HD
ENDBRANCH   8   9
BRANCH   8  20
ATOM     20  C   UNL     1       1.110  -4.813   6.212  0.00  0.00    +0.099 C 
ATOM     21  N   UNL     1       1.367  -5.873   5.894  0.00  0.00    -0.191 NA
ENDBRANCH   8  20
ENDBRANCH   6   7
BRANCH   1  22
ATOM     22  O   UNL     1      -0.411  -0.517   4.212  0.00  0.00    -0.487 OA
BRANCH  22  23
ATOM     23  C   UNL     1      -0.571   0.632   3.378  0.00  0.00    +0.264 C 
BRANCH  23  30
ATOM     24  C   UNL     1      -0.731   2.635   1.302  0.00  0.00    +0.044 C 
ATOM     25  C   UNL     1      -0.281   1.236   0.966  0.00  0.00    -0.044 A 
ATOM     26  C   UNL     1       0.060   0.913  -0.334  0.00  0.00    +0.004 A 
ATOM     27  C   UNL     1       0.472  -0.369  -0.642  0.00  0.00    +0.000 A 
ATOM     28  C   UNL     1       0.544  -1.329   0.350  0.00  0.00    +0.000 A 
ATOM     29  C   UNL     1       0.204  -1.006   1.650  0.00  0.00    +0.007 A 
ATOM     30  C   UNL     1      -0.205   0.278   1.959  0.00  0.00    -0.007 A 
ENDBRANCH  23  30
ENDBRANCH  22  23
ENDBRANCH   1  22
TORSDOF 6
