REMARK  Name = ZINC38054371
REMARK  4 active torsions:
REMARK  status: ('A' for Active; 'I' for Inactive)
REMARK    1  A    between atoms: C_3  and  N_15
REMARK    2  A    between atoms: C_4  and  C_11
REMARK    3  A    between atoms: C_6  and  C_7
REMARK    4  A    between atoms: N_12  and  O_13
REMARK                            x       y       z     vdW  Elec       q    Type
REMARK                         _______ _______ _______ _____ _____    ______ ____
ROOT
ATOM      1  C   UNL     1      -0.044   1.329   0.031  0.00  0.00    +0.014 A 
ATOM      2  C   UNL     1       1.106   2.079   0.188  0.00  0.00    +0.029 A 
ATOM      3  C   UNL     1       2.348   1.462   0.152  0.00  0.00    +0.076 A 
ATOM      4  C   UNL     1       2.431   0.078  -0.043  0.00  0.00    +0.044 A 
ATOM      5  C   UNL     1       1.263  -0.668  -0.200  0.00  0.00    +0.026 A 
ATOM      6  C   UNL     1       0.035  -0.040  -0.162  0.00  0.00    +0.056 A 
ENDROOT
BRANCH   3   7
ATOM      7  N   UNL     1       3.513   2.220   0.309  0.00  0.00    -0.238 N 
ATOM      8  C   UNL     1       3.582   3.575   0.390  0.00  0.00    +0.129 A 
ATOM      9  C   UNL     1       4.885   3.910   0.539  0.00  0.00    +0.056 A 
ATOM     10  C   UNL     1       5.636   2.729   0.549  0.00  0.00    +0.150 A 
ATOM     11  N   UNL     1       4.816   1.718   0.418  0.00  0.00    -0.174 NA
ATOM     12 BR   UNL     1       5.570   5.665   0.703  0.00  0.00    -0.047 Br
ENDBRANCH   3   7
BRANCH   4  13
ATOM     13  C   UNL     1       3.750  -0.590  -0.084  0.00  0.00    +0.164 C 
ATOM     14  N   UNL     1       4.017  -1.554   0.748  0.00  0.00    -0.071 NA
ATOM     15  N   UNL     1       4.700  -0.189  -1.008  0.00  0.00    -0.340 N 
ATOM     16  H   UNL     1       4.501   0.529  -1.629  0.00  0.00    +0.144 HD
ATOM     17  H   UNL     1       5.566  -0.627  -1.035  0.00  0.00    +0.144 HD
BRANCH  14  18
ATOM     18  O   UNL     1       5.280  -2.193   0.710  0.00  0.00    -0.408 OA
ATOM     19  H   UNL     1       5.386  -2.896   1.365  0.00  0.00    +0.328 HD
ENDBRANCH  14  18
ENDBRANCH   4  13
BRANCH   6  20
ATOM     20  C   UNL     1      -1.226  -0.847  -0.331  0.00  0.00    +0.417 C 
ATOM     21  F   UNL     1      -2.336   0.001  -0.257  0.00  0.00    -0.166 F 
ATOM     22  F   UNL     1      -1.209  -1.484  -1.577  0.00  0.00    -0.166 F 
ATOM     23  F   UNL     1      -1.305  -1.808   0.683  0.00  0.00    -0.166 F 
ENDBRANCH   6  20
TORSDOF 4
