REMARK  Name = ZINC37368783
REMARK  2 active torsions:
REMARK  status: ('A' for Active; 'I' for Inactive)
REMARK    1  A    between atoms: C_1  and  C_2
REMARK    2  A    between atoms: C_7  and  N_8
REMARK                            x       y       z     vdW  Elec       q    Type
REMARK                         _______ _______ _______ _____ _____    ______ ____
ROOT
ATOM      1  N   UNL     1       0.025  -0.013   2.418  0.00  0.00    -0.280 N 
ATOM      2  C   UNL     1      -1.090   0.374   3.148  0.00  0.00    +0.075 A 
ATOM      3  C   UNL     1      -2.456   0.234   2.961  0.00  0.00    +0.029 A 
ATOM      4  C   UNL     1      -3.333   0.744   3.896  0.00  0.00    +0.017 A 
ATOM      5  C   UNL     1      -2.857   1.396   5.024  0.00  0.00    +0.020 A 
ATOM      6  C   UNL     1      -1.502   1.544   5.226  0.00  0.00    +0.045 A 
ATOM      7  C   UNL     1      -0.601   1.033   4.288  0.00  0.00    +0.092 A 
ATOM      8  N   UNL     1       0.756   1.020   4.208  0.00  0.00    -0.214 NA
ATOM      9  C   UNL     1       1.127   0.403   3.114  0.00  0.00    +0.199 A 
ATOM     10  N   UNL     1       2.434   0.204   2.721  0.00  0.00    -0.329 N 
ATOM     11 BR   UNL     1      -4.075   2.087   6.294  0.00  0.00    -0.050 Br
ATOM     12  H   UNL     1       2.626  -0.264   1.893  0.00  0.00    +0.145 HD
ATOM     13  H   UNL     1       3.162   0.531   3.273  0.00  0.00    +0.145 HD
ENDROOT
BRANCH   1  20
ATOM     14  C   UNL     1      -0.018   1.503   0.010  0.00  0.00    +0.046 C 
ATOM     15  C   UNL     1       0.002  -0.004   0.002  0.00  0.00    -0.026 A 
ATOM     16  C   UNL     1       0.006  -0.689  -1.198  0.00  0.00    +0.006 A 
ATOM     17  C   UNL     1       0.024  -2.071  -1.207  0.00  0.00    +0.015 A 
ATOM     18  C   UNL     1       0.039  -2.773  -0.014  0.00  0.00    +0.020 A 
ATOM     19  C   UNL     1       0.035  -2.094   1.189  0.00  0.00    +0.041 A 
ATOM     20  C   UNL     1       0.023  -0.705   1.200  0.00  0.00    +0.054 A 
ATOM     21 BR   UNL     1       0.063  -4.664  -0.031  0.00  0.00    -0.050 Br
ENDBRANCH   1  20
TORSDOF 1
