REMARK  Name = ZINC13110606
REMARK  10 active torsions:
REMARK  status: ('A' for Active; 'I' for Inactive)
REMARK    1  A    between atoms: C_1  and  C_2
REMARK    2  A    between atoms: N_9  and  N_10
REMARK    3  A    between atoms: N_10  and  C_11
REMARK    4  A    between atoms: C_11  and  N_13
REMARK    5  A    between atoms: N_16  and  C_17
REMARK    6  A    between atoms: C_19  and  O_32
REMARK    7  A    between atoms: C_21  and  O_31
REMARK    8  A    between atoms: C_23  and  O_30
REMARK    9  A    between atoms: C_25  and  C_28
REMARK   10  A    between atoms: C_28  and  O_29
REMARK                            x       y       z     vdW  Elec       q    Type
REMARK                         _______ _______ _______ _____ _____    ______ ____
ROOT
ATOM      1  C   UNL     1      -0.018   1.503   0.010  0.00  0.00    +0.044 C 
ATOM      2  C   UNL     1       0.002  -0.004   0.002  0.00  0.00    -0.039 A 
ATOM      3  C   UNL     1       0.006  -0.691  -1.196  0.00  0.00    +0.004 A 
ATOM      4  C   UNL     1       0.024  -2.075  -1.202  0.00  0.00    +0.002 A 
ATOM      5  C   UNL     1       0.039  -2.783  -0.017  0.00  0.00    +0.024 A 
ATOM      6  C   UNL     1       0.035  -2.109   1.199  0.00  0.00    +0.049 A 
ATOM      7  C   UNL     1       0.023  -0.708   1.200  0.00  0.00    +0.031 A 
ATOM      8  C   UNL     1       0.030  -0.292   2.622  0.00  0.00    +0.153 C 
ATOM      9  N   UNL     1       0.018   0.931   3.096  0.00  0.00    -0.175 NA
ATOM     10  C   UNL     1       0.054  -1.552   3.389  0.00  0.00    +0.273 C 
ATOM     11  O   UNL     1       0.067  -1.653   4.601  0.00  0.00    -0.268 OA
ATOM     12  N   UNL     1       0.047  -2.570   2.510  0.00  0.00    -0.236 N 
ENDROOT
BRANCH  12  13
ATOM     13  C   UNL     1       0.066  -3.985   2.888  0.00  0.00    +0.245 C 
ATOM     14  C   UNL     1       1.324  -4.277   3.711  0.00  0.00    +0.193 C 
ATOM     15  C   UNL     1       1.367  -5.770   4.050  0.00  0.00    +0.178 C 
ATOM     16  C   UNL     1       1.322  -6.580   2.750  0.00  0.00    +0.177 C 
ATOM     17  C   UNL     1       0.065  -6.199   1.964  0.00  0.00    +0.177 C 
ATOM     18  O   UNL     1       0.072  -4.793   1.709  0.00  0.00    -0.347 OA
BRANCH  16  19
ATOM     19  O   UNL     1       2.482  -6.290   1.967  0.00  0.00    -0.386 OA
ATOM     20  H   UNL     1       3.317  -6.503   2.406  0.00  0.00    +0.210 HD
ENDBRANCH  16  19
BRANCH  15  21
ATOM     21  O   UNL     1       2.574  -6.065   4.757  0.00  0.00    -0.386 OA
ATOM     22  H   UNL     1       2.668  -6.995   5.004  0.00  0.00    +0.210 HD
ENDBRANCH  15  21
BRANCH  14  23
ATOM     23  O   UNL     1       1.293  -3.513   4.918  0.00  0.00    -0.385 OA
ATOM     24  H   UNL     1       2.061  -3.649   5.489  0.00  0.00    +0.210 HD
ENDBRANCH  14  23
BRANCH  17  25
ATOM     25  C   UNL     1       0.043  -6.959   0.637  0.00  0.00    +0.190 C 
BRANCH  25  26
ATOM     26  O   UNL     1      -1.185  -6.694  -0.044  0.00  0.00    -0.392 OA
ATOM     27  H   UNL     1      -1.268  -7.144  -0.895  0.00  0.00    +0.210 HD
ENDBRANCH  25  26
ENDBRANCH  17  25
ENDBRANCH  12  13
BRANCH   9  28
ATOM     28  N   UNL     1       0.028   1.146   4.480  0.00  0.00    -0.218 N 
ATOM     29  H   UNL     1       0.044   0.390   5.088  0.00  0.00    +0.176 HD
BRANCH  28  30
ATOM     30  C   UNL     1       0.015   2.403   4.968  0.00  0.00    +0.147 C 
ATOM     31  S   UNL     1       0.027   2.665   6.659  0.00  0.00    -0.017 S 
BRANCH  30  32
ATOM     32  N   UNL     1      -0.007   3.453   4.123  0.00  0.00    -0.339 N 
ATOM     33  H   UNL     1      -0.013   3.304   3.164  0.00  0.00    +0.144 HD
ATOM     34  H   UNL     1      -0.016   4.357   4.473  0.00  0.00    +0.144 HD
ENDBRANCH  30  32
ENDBRANCH  28  30
ENDBRANCH   9  28
TORSDOF 9
