REMARK  Name = ZINC38102145
REMARK  4 active torsions:
REMARK  status: ('A' for Active; 'I' for Inactive)
REMARK    1  A    between atoms: C_4  and  N_19
REMARK    2  A    between atoms: C_5  and  C_7
REMARK    3  A    between atoms: N_12  and  S_15
REMARK    4  A    between atoms: S_15  and  N_18
REMARK                            x       y       z     vdW  Elec       q    Type
REMARK                         _______ _______ _______ _____ _____    ______ ____
ROOT
ATOM      1  C   UNL     1       1.620  -2.114   0.308  0.00  0.00    +0.248 C 
ATOM      2  O   UNL     1       2.752  -2.559   0.336  0.00  0.00    -0.270 OA
ATOM      3  N   UNL     1       0.566  -2.948   0.414  0.00  0.00    -0.295 N 
ATOM      4  C   UNL     1      -0.805  -2.443   0.254  0.00  0.00    +0.125 C 
ATOM      5  C   UNL     1      -1.502  -3.257  -0.843  0.00  0.00    +0.129 C 
ATOM      6  N   UNL     1      -1.300  -4.686  -0.568  0.00  0.00    -0.164 NA
ATOM      7  C   UNL     1       0.071  -5.191  -0.408  0.00  0.00    +0.129 C 
ATOM      8  C   UNL     1       0.768  -4.378   0.684  0.00  0.00    +0.125 C 
ENDROOT
BRANCH   1  13
ATOM      9  C   UNL     1       0.346   1.367   0.891  0.00  0.00    +0.001 A 
ATOM     10  C   UNL     1       0.987   2.066  -0.120  0.00  0.00    +0.002 A 
ATOM     11  C   UNL     1       1.833   1.413  -0.993  0.00  0.00    +0.023 A 
ATOM     12  C   UNL     1       2.048   0.047  -0.863  0.00  0.00    +0.037 A 
ATOM     13  C   UNL     1       1.401  -0.664   0.160  0.00  0.00    +0.057 A 
ATOM     14  C   UNL     1       0.547   0.011   1.036  0.00  0.00    +0.015 A 
BRANCH  12  15
ATOM     15  N   UNL     1       2.899  -0.612  -1.741  0.00  0.00    -0.357 N 
ATOM     16  H   UNL     1       3.416  -0.106  -2.386  0.00  0.00    +0.142 HD
ATOM     17  H   UNL     1       2.975  -1.579  -1.708  0.00  0.00    +0.142 HD
ENDBRANCH  12  15
ENDBRANCH   1  13
BRANCH   6  18
ATOM     18  S   UNL     1      -2.595  -5.710  -0.438  0.00  0.00    +0.095 S 
ATOM     19  O   UNL     1      -2.165  -6.813   0.348  0.00  0.00    -0.141 OA
ATOM     20  O   UNL     1      -3.713  -4.909  -0.080  0.00  0.00    -0.141 OA
BRANCH  18  21
ATOM     21  N   UNL     1      -2.905  -6.302  -1.954  0.00  0.00    -0.193 NA
ATOM     22  H   UNL     1      -2.356  -6.025  -2.704  0.00  0.00    +0.145 HD
ATOM     23  H   UNL     1      -3.635  -6.926  -2.091  0.00  0.00    +0.145 HD
ENDBRANCH  18  21
ENDBRANCH   6  18
TORSDOF 4
