REMARK  Name = ZINC09108814
REMARK  1 active torsions:
REMARK  status: ('A' for Active; 'I' for Inactive)
REMARK    1  A    between atoms: C_6  and  N_7
REMARK                            x       y       z     vdW  Elec       q    Type
REMARK                         _______ _______ _______ _____ _____    ______ ____
ROOT
ATOM      1  N   UNL     1      -1.343  -1.443   3.294  0.00  0.00    -0.210 N 
ATOM      2  C   UNL     1      -0.386  -0.489   3.026  0.00  0.00    +0.228 C 
ATOM      3  O   UNL     1       0.766  -0.465   3.405  0.00  0.00    -0.275 OA
ATOM      4  C   UNL     1      -1.046   0.475   2.176  0.00  0.00    +0.074 C 
ATOM      5  C   UNL     1      -0.769   1.601   1.255  0.00  0.00    -0.054 C 
ATOM      6  C   UNL     1      -0.013   1.086   0.008  0.00  0.00    -0.016 C 
ATOM      7  C   UNL     1      -0.787   1.610  -1.209  0.00  0.00    -0.020 C 
ATOM      8  C   UNL     1      -1.989   2.372  -0.631  0.00  0.00    -0.076 C 
ATOM      9  C   UNL     1      -2.919   0.598   0.753  0.00  0.00    +0.053 C 
ATOM     10  C   UNL     1      -2.006  -0.447   1.341  0.00  0.00    +0.089 C 
ATOM     11  C   UNL     1      -2.421  -1.354   2.456  0.00  0.00    +0.229 C 
ATOM     12  O   UNL     1      -3.495  -1.900   2.591  0.00  0.00    -0.275 OA
ATOM     13  C   UNL     1      -4.179   0.756   1.575  0.00  0.00    -0.026 A 
ATOM     14  C   UNL     1      -4.408   1.096   2.889  0.00  0.00    +0.019 A 
ATOM     15  C   UNL     1      -5.704   1.161   3.371  0.00  0.00    +0.018 A 
ATOM     16  C   UNL     1      -6.767   0.887   2.528  0.00  0.00    +0.017 A 
ATOM     17  C   UNL     1      -6.540   0.553   1.209  0.00  0.00    +0.024 A 
ATOM     18  C   UNL     1      -5.239   0.486   0.717  0.00  0.00    +0.036 A 
ATOM     19  N   UNL     1      -4.760   0.185  -0.560  0.00  0.00    -0.286 N 
ATOM     20  C   UNL     1      -3.417   0.237  -0.618  0.00  0.00    +0.212 C 
ATOM     21  O   UNL     1      -2.733   0.032  -1.599  0.00  0.00    -0.277 OA
ATOM     22 BR   UNL     1      -6.022   1.621   5.178  0.00  0.00    -0.050 Br
ATOM     23  H   UNL     1      -5.327  -0.036  -1.314  0.00  0.00    +0.155 HD
ATOM     24  N   UNL     1      -2.130   1.880   0.744  0.00  0.00    +0.395 N 
ATOM     25  H   UNL     1      -2.596   2.584   1.328  0.00  0.00    -0.079 HD
ENDROOT
BRANCH   1  31
ATOM     26  C   UNL     1      -0.095  -2.420   5.119  0.00  0.00    +0.027 A 
ATOM     27  C   UNL     1       0.020  -3.363   6.122  0.00  0.00    +0.041 A 
ATOM     28  C   UNL     1      -0.991  -4.288   6.324  0.00  0.00    +0.142 A 
ATOM     29  C   UNL     1      -2.119  -4.270   5.519  0.00  0.00    +0.078 A 
ATOM     30  C   UNL     1      -2.240  -3.324   4.519  0.00  0.00    +0.046 A 
ATOM     31  C   UNL     1      -1.225  -2.400   4.313  0.00  0.00    +0.045 A 
ATOM     32 CL   UNL     1      -3.385  -5.430   5.774  0.00  0.00    -0.081 Cl
ATOM     33  F   UNL     1      -0.876  -5.209   7.305  0.00  0.00    -0.204 F 
ENDBRANCH   1  31
TORSDOF 1
