REMARK  Name = ZINC20566780
REMARK  5 active torsions:
REMARK  status: ('A' for Active; 'I' for Inactive)
REMARK    1  A    between atoms: C_3  and  C_6
REMARK    2  A    between atoms: C_6  and  N_7
REMARK    3  A    between atoms: N_7  and  S_8
REMARK    4  A    between atoms: S_8  and  C_11
REMARK    5  A    between atoms: C_15  and  N_17
REMARK                            x       y       z     vdW  Elec       q    Type
REMARK                         _______ _______ _______ _____ _____    ______ ____
ROOT
ATOM      1  S   UNL     1      -2.784   3.987   0.050  0.00  0.00    +0.059 S 
ATOM      2  O   UNL     1      -3.738   3.091   0.605  0.00  0.00    -0.153 OA
ATOM      3  O   UNL     1      -2.531   5.270   0.604  0.00  0.00    -0.153 OA
ENDROOT
BRANCH   1   4
ATOM      4  C   UNL     1      -1.243   3.133   0.031  0.00  0.00    +0.107 A 
ATOM      5  C   UNL     1      -1.220   1.750   0.017  0.00  0.00    +0.030 A 
ATOM      6  C   UNL     1      -0.013   1.076   0.008  0.00  0.00    +0.024 A 
ATOM      7  C   UNL     1       1.175   1.782   0.000  0.00  0.00    +0.062 A 
ATOM      8  C   UNL     1       1.155   3.172   0.008  0.00  0.00    +0.045 A 
ATOM      9  C   UNL     1      -0.060   3.845   0.023  0.00  0.00    +0.052 A 
ATOM     10 CL   UNL     1       2.690   0.935  -0.019  0.00  0.00    -0.082 Cl
BRANCH   8  11
ATOM     11  N   UNL     1       2.354   3.890   0.001  0.00  0.00    -0.357 N 
ATOM     12  H   UNL     1       2.336   4.990   0.007  0.00  0.00    +0.142 HD
ATOM     13  H   UNL     1       3.315   3.356  -0.011  0.00  0.00    +0.142 HD
ENDBRANCH   8  11
ENDBRANCH   1   4
BRANCH   1  14
ATOM     14  N   UNL     1      -3.227   4.232  -1.527  0.00  0.00    -0.183 NA
ATOM     15  H   UNL     1      -3.130   5.237  -1.963  0.00  0.00    +0.148 HD
BRANCH  14  16
ATOM     16  C   UNL     1      -3.534   3.087  -2.388  0.00  0.00    +0.180 C 
BRANCH  16  19
ATOM     17  C   UNL     1      -4.704   4.314  -5.661  0.00  0.00    +0.041 A 
ATOM     18  C   UNL     1      -3.666   3.941  -4.777  0.00  0.00    +0.046 A 
ATOM     19  C   UNL     1      -4.250   3.566  -3.625  0.00  0.00    +0.120 A 
ATOM     20  O   UNL     1      -5.580   3.686  -3.765  0.00  0.00    -0.466 OA
ATOM     21  C   UNL     1      -5.861   4.145  -4.996  0.00  0.00    +0.195 A 
ENDBRANCH  16  19
ENDBRANCH  14  16
ENDBRANCH   1  14
TORSDOF 5
