REMARK  Name = ZINC37359121
REMARK  8 active torsions:
REMARK  status: ('A' for Active; 'I' for Inactive)
REMARK    1  A    between atoms: C_1  and  C_2
REMARK    2  A    between atoms: C_2  and  C_3
REMARK    3  A    between atoms: C_2  and  C_4
REMARK    4  A    between atoms: C_2  and  N_5
REMARK    5  A    between atoms: C_6  and  N_30
REMARK    6  A    between atoms: C_8  and  C_22
REMARK    7  A    between atoms: N_14  and  C_15
REMARK    8  A    between atoms: C_15  and  C_16
REMARK                            x       y       z     vdW  Elec       q    Type
REMARK                         _______ _______ _______ _____ _____    ______ ____
ROOT
ATOM      1  N   UNL     1       1.235  -0.523  -0.989  0.00  0.00    -0.243 N 
ATOM      2  C   UNL     1       1.139  -1.790  -1.427  0.00  0.00    +0.126 A 
ATOM      3  C   UNL     1       1.463  -1.792  -2.778  0.00  0.00    +0.086 A 
ATOM      4  C   UNL     1       1.553  -2.768  -3.796  0.00  0.00    +0.091 A 
ATOM      5  N   UNL     1       1.908  -2.376  -5.013  0.00  0.00    -0.214 NA
ATOM      6  C   UNL     1       2.178  -1.105  -5.296  0.00  0.00    +0.218 A 
ATOM      7  N   UNL     1       2.119  -0.133  -4.409  0.00  0.00    -0.193 NA
ATOM      8  C   UNL     1       1.770  -0.396  -3.134  0.00  0.00    +0.188 A 
ATOM      9  N   UNL     1       1.615   0.318  -2.041  0.00  0.00    -0.149 NA
ATOM     10  N   UNL     1       2.540  -0.786  -6.593  0.00  0.00    -0.309 N 
ATOM     11  H   UNL     1       2.592  -1.482  -7.267  0.00  0.00    +0.149 HD
ENDROOT
BRANCH   4  12
ATOM     12  C   UNL     1       1.260  -4.190  -3.513  0.00  0.00    +0.037 A 
ATOM     13  C   UNL     1       0.024  -4.557  -2.977  0.00  0.00    +0.016 A 
ATOM     14  C   UNL     1      -0.245  -5.883  -2.715  0.00  0.00    +0.039 A 
ATOM     15  C   UNL     1       0.709  -6.854  -2.981  0.00  0.00    +0.126 A 
ATOM     16  C   UNL     1       1.938  -6.497  -3.512  0.00  0.00    +0.077 A 
ATOM     17  C   UNL     1       2.216  -5.172  -3.785  0.00  0.00    +0.135 A 
ATOM     18  F   UNL     1       3.412  -4.825  -4.309  0.00  0.00    -0.205 F 
ATOM     19  F   UNL     1       0.440  -8.152  -2.722  0.00  0.00    -0.205 F 
ENDBRANCH   4  12
BRANCH   1  21
ATOM     20  C   UNL     1       1.182   1.427   0.486  0.00  0.00    +0.036 C 
ATOM     21  C   UNL     1       0.974  -0.085   0.385  0.00  0.00    +0.057 C 
ATOM     22  C   UNL     1       1.935  -0.798   1.338  0.00  0.00    +0.036 C 
ATOM     23  C   UNL     1      -0.468  -0.428   0.764  0.00  0.00    +0.036 C 
ENDBRANCH   1  21
BRANCH   2  24
ATOM     24  N   UNL     1       0.782  -2.891  -0.670  0.00  0.00    -0.343 N 
ATOM     25  H   UNL     1       0.470  -2.773   0.241  0.00  0.00    +0.144 HD
ATOM     26  H   UNL     1       0.843  -3.781  -1.050  0.00  0.00    +0.144 HD
ENDBRANCH   2  24
BRANCH  10  27
ATOM     27  C   UNL     1       2.846   0.602  -6.947  0.00  0.00    +0.139 C 
BRANCH  27  28
ATOM     28  C   UNL     1       3.209   0.679  -8.408  0.00  0.00    -0.030 A 
ATOM     29  C   UNL     1       4.525   0.525  -8.802  0.00  0.00    +0.005 A 
ATOM     30  C   UNL     1       4.859   0.596 -10.142  0.00  0.00    +0.000 A 
ATOM     31  C   UNL     1       3.876   0.819 -11.088  0.00  0.00    +0.000 A 
ATOM     32  C   UNL     1       2.559   0.971 -10.694  0.00  0.00    +0.000 A 
ATOM     33  C   UNL     1       2.225   0.896  -9.354  0.00  0.00    +0.005 A 
ENDBRANCH  27  28
ENDBRANCH  10  27
TORSDOF 5
