REMARK  Name = ZINC58157134
REMARK  9 active torsions:
REMARK  status: ('A' for Active; 'I' for Inactive)
REMARK    1  A    between atoms: C_1  and  C_2
REMARK    2  A    between atoms: C_2  and  C_4
REMARK    3  A    between atoms: C_2  and  N_14
REMARK    4  A    between atoms: C_4  and  C_6
REMARK    5  A    between atoms: C_4  and  O_13
REMARK    6  A    between atoms: N_17  and  C_18
REMARK    7  A    between atoms: C_18  and  C_19
REMARK    8  A    between atoms: C_24  and  O_25
REMARK    9  A    between atoms: O_25  and  C_26
REMARK                            x       y       z     vdW  Elec       q    Type
REMARK                         _______ _______ _______ _____ _____    ______ ____
ROOT
ATOM      1  N   UNL     1       0.688  -0.476  -1.203  0.00  0.00    -0.294 N 
ATOM      2  C   UNL     1       2.031  -0.587  -1.215  0.00  0.00    +0.300 C 
ATOM      3  O   UNL     1       2.674  -0.294  -0.225  0.00  0.00    -0.253 OA
ATOM      4  N   UNL     1       2.662  -1.022  -2.324  0.00  0.00    -0.295 N 
ATOM      5  H   UNL     1       0.175  -0.710  -1.993  0.00  0.00    +0.151 HD
ATOM      6  H   UNL     1       2.149  -1.255  -3.114  0.00  0.00    +0.151 HD
ENDROOT
BRANCH   1   8
ATOM      7  C   UNL     1      -0.019   1.526   0.010  0.00  0.00    +0.031 C 
ATOM      8  C   UNL     1       0.002  -0.004   0.002  0.00  0.00    +0.104 C 
BRANCH   8   9
ATOM      9  C   UNL     1      -1.433  -0.534   0.013  0.00  0.00    +0.164 C 
BRANCH   9  10
ATOM     10  C   UNL     1      -2.100  -0.151   1.309  0.00  0.00    -0.017 A 
ATOM     11  C   UNL     1      -2.702   1.087   1.437  0.00  0.00    +0.007 A 
ATOM     12  C   UNL     1      -3.314   1.438   2.626  0.00  0.00    +0.015 A 
ATOM     13  C   UNL     1      -3.324   0.550   3.687  0.00  0.00    +0.018 A 
ATOM     14  C   UNL     1      -2.722  -0.688   3.558  0.00  0.00    +0.015 A 
ATOM     15  C   UNL     1      -2.114  -1.040   2.368  0.00  0.00    +0.007 A 
ATOM     16 BR   UNL     1      -4.161   1.030   5.314  0.00  0.00    -0.050 Br
ENDBRANCH   9  10
BRANCH   9  17
ATOM     17  O   UNL     1      -2.158   0.032  -1.081  0.00  0.00    -0.385 OA
ATOM     18  H   UNL     1      -2.210   0.998  -1.061  0.00  0.00    +0.210 HD
ENDBRANCH   9  17
ENDBRANCH   8   9
ENDBRANCH   1   8
BRANCH   4  19
ATOM     19  C   UNL     1       4.122  -1.142  -2.336  0.00  0.00    +0.144 C 
BRANCH  19  20
ATOM     20  C   UNL     1       4.573  -1.645  -3.683  0.00  0.00    +0.011 A 
ATOM     21  C   UNL     1       4.884  -2.980  -3.854  0.00  0.00    +0.009 A 
ATOM     22  C   UNL     1       5.298  -3.442  -5.090  0.00  0.00    +0.001 A 
ATOM     23  C   UNL     1       5.402  -2.570  -6.157  0.00  0.00    +0.004 A 
ATOM     24  C   UNL     1       5.092  -1.234  -5.992  0.00  0.00    +0.046 A 
ATOM     25  C   UNL     1       4.670  -0.769  -4.755  0.00  0.00    +0.125 A 
BRANCH  25  26
ATOM     26  O   UNL     1       4.359   0.544  -4.591  0.00  0.00    -0.495 OA
ATOM     27  C   UNL     1       4.483   1.388  -5.737  0.00  0.00    +0.277 C 
ENDBRANCH  25  26
ENDBRANCH  19  20
ENDBRANCH   4  19
TORSDOF 7
