REMARK  Name = ZINC16024662
REMARK  6 active torsions:
REMARK  status: ('A' for Active; 'I' for Inactive)
REMARK    1  A    between atoms: C_1  and  C_2
REMARK    2  A    between atoms: C_2  and  C_3
REMARK    3  A    between atoms: C_2  and  C_4
REMARK    4  A    between atoms: C_2  and  N_5
REMARK    5  A    between atoms: C_10  and  C_27
REMARK    6  A    between atoms: C_27  and  C_28
REMARK                            x       y       z     vdW  Elec       q    Type
REMARK                         _______ _______ _______ _____ _____    ______ ____
ROOT
ATOM      1  N   UNL     1       0.688  -0.476  -1.203  0.00  0.00    -0.236 N 
ATOM      2  C   UNL     1       0.091  -1.247  -2.120  0.00  0.00    +0.228 C 
ATOM      3  O   UNL     1      -1.056  -1.636  -2.069  0.00  0.00    -0.275 OA
ATOM      4  C   UNL     1       1.070  -1.556  -3.231  0.00  0.00    +0.107 C 
ATOM      5  C   UNL     1       1.426  -3.058  -3.186  0.00  0.00    +0.076 C 
ATOM      6  N   UNL     1       2.906  -3.103  -3.322  0.00  0.00    -0.295 NA
ATOM      7  C   UNL     1       3.377  -1.952  -2.530  0.00  0.00    +0.136 C 
ATOM      8  C   UNL     1       2.360  -0.812  -2.788  0.00  0.00    +0.122 C 
ATOM      9  C   UNL     1       1.960  -0.168  -1.480  0.00  0.00    +0.229 C 
ATOM     10  O   UNL     1       2.681   0.518  -0.787  0.00  0.00    -0.275 OA
ATOM     11  C   UNL     1       4.767  -1.544  -2.926  0.00  0.00    +0.003 A 
ATOM     12  C   UNL     1       5.331  -1.124  -4.110  0.00  0.00    +0.008 A 
ATOM     13  C   UNL     1       6.678  -0.813  -4.164  0.00  0.00    +0.000 A 
ATOM     14  C   UNL     1       7.456  -0.924  -3.026  0.00  0.00    +0.002 A 
ATOM     15  C   UNL     1       6.895  -1.342  -1.837  0.00  0.00    +0.023 A 
ATOM     16  C   UNL     1       5.540  -1.658  -1.774  0.00  0.00    +0.039 A 
ATOM     17  N   UNL     1       4.754  -2.096  -0.707  0.00  0.00    -0.283 N 
ATOM     18  C   UNL     1       3.471  -2.293  -1.068  0.00  0.00    +0.243 C 
ATOM     19  O   UNL     1       2.567  -2.671  -0.353  0.00  0.00    -0.273 OA
ATOM     20  H   UNL     1       3.276  -3.968  -2.957  0.00  0.00    +0.124 HD
ATOM     21  H   UNL     1       5.092  -2.243   0.191  0.00  0.00    +0.155 HD
ENDROOT
BRANCH   1  23
ATOM     22  C   UNL     1      -0.019   1.526   0.010  0.00  0.00    +0.031 C 
ATOM     23  C   UNL     1       0.002  -0.004   0.002  0.00  0.00    +0.036 C 
ATOM     24  C   UNL     1       0.742  -0.511   1.242  0.00  0.00    +0.031 C 
ATOM     25  C   UNL     1      -1.433  -0.534   0.013  0.00  0.00    +0.031 C 
ENDBRANCH   1  23
BRANCH   5  26
ATOM     26  C   UNL     1       0.759  -3.798  -4.347  0.00  0.00    +0.115 C 
BRANCH  26  27
ATOM     27  C   UNL     1       1.018  -5.277  -4.215  0.00  0.00    +0.212 C 
ATOM     28  O   UNL     1       1.671  -5.697  -3.284  0.00  0.00    -0.276 OA
ATOM     29  N   UNL     1       0.524  -6.132  -5.132  0.00  0.00    -0.329 N 
ATOM     30  H   UNL     1       0.001  -5.796  -5.877  0.00  0.00    +0.145 HD
ATOM     31  H   UNL     1       0.690  -7.084  -5.047  0.00  0.00    +0.145 HD
ENDBRANCH  26  27
ENDBRANCH   5  26
TORSDOF 3
