REMARK  Name = ZINC44490471
REMARK  5 active torsions:
REMARK  status: ('A' for Active; 'I' for Inactive)
REMARK    1  A    between atoms: C_1  and  C_2
REMARK    2  A    between atoms: C_2  and  C_3
REMARK    3  A    between atoms: C_8  and  N_9
REMARK    4  A    between atoms: C_10  and  C_12
REMARK    5  A    between atoms: C_17  and  O_18
REMARK                            x       y       z     vdW  Elec       q    Type
REMARK                         _______ _______ _______ _____ _____    ______ ____
ROOT
ATOM      1  N   UNL     1      -1.506  -0.314  -2.391  0.00  0.00    -0.281 N 
ATOM      2  C   UNL     1      -1.776  -1.021  -3.506  0.00  0.00    +0.252 C 
ATOM      3  O   UNL     1      -2.614  -1.902  -3.480  0.00  0.00    -0.270 OA
ATOM      4  H   UNL     1      -0.886   0.431  -2.427  0.00  0.00    +0.155 HD
ENDROOT
BRANCH   2   5
ATOM      5  C   UNL     1      -1.056  -0.726  -4.758  0.00  0.00    +0.078 A 
ATOM      6  C   UNL     1      -0.088   0.282  -4.792  0.00  0.00    +0.018 A 
ATOM      7  C   UNL     1       0.581   0.553  -5.965  0.00  0.00    +0.016 A 
ATOM      8  C   UNL     1       0.300  -0.170  -7.114  0.00  0.00    +0.021 A 
ATOM      9  C   UNL     1      -0.655  -1.169  -7.095  0.00  0.00    +0.061 A 
ATOM     10  C   UNL     1      -1.333  -1.459  -5.921  0.00  0.00    +0.130 A 
ATOM     11 BR   UNL     1       1.227   0.214  -8.717  0.00  0.00    -0.050 Br
BRANCH  10  12
ATOM     12  O   UNL     1      -2.266  -2.443  -5.899  0.00  0.00    -0.506 OA
ATOM     13  H   UNL     1      -3.160  -2.143  -6.113  0.00  0.00    +0.292 HD
ENDBRANCH  10  12
ENDBRANCH   2   5
BRANCH   1  19
ATOM     14  C   UNL     1      -1.426  -0.516   0.014  0.00  0.00    -0.026 A 
ATOM     15  C   UNL     1      -2.037  -0.848   1.208  0.00  0.00    +0.005 A 
ATOM     16  C   UNL     1      -3.335  -1.323   1.213  0.00  0.00    +0.000 A 
ATOM     17  C   UNL     1      -4.027  -1.468   0.024  0.00  0.00    +0.002 A 
ATOM     18  C   UNL     1      -3.422  -1.139  -1.173  0.00  0.00    +0.023 A 
ATOM     19  C   UNL     1      -2.119  -0.655  -1.181  0.00  0.00    +0.037 A 
BRANCH  14  21
ATOM     20  C   UNL     1      -0.028   1.531   0.012  0.00  0.00    +0.009 C 
ATOM     21  C   UNL     1      -0.011   0.001   0.009  0.00  0.00    +0.033 C 
ENDBRANCH  14  21
ENDBRANCH   1  19
TORSDOF 4
