REMARK  Name = ZINC43396232
REMARK  5 active torsions:
REMARK  status: ('A' for Active; 'I' for Inactive)
REMARK    1  A    between atoms: C_1  and  C_2
REMARK    2  A    between atoms: C_5  and  C_20
REMARK    3  A    between atoms: C_6  and  N_8
REMARK    4  A    between atoms: C_17  and  C_19
REMARK    5  A    between atoms: C_20  and  N_22
REMARK                            x       y       z     vdW  Elec       q    Type
REMARK                         _______ _______ _______ _____ _____    ______ ____
ROOT
ATOM      1  C   UNL     1       2.469  -0.468  -1.181  0.00  0.00    +0.065 C 
ATOM      2  C   UNL     1       1.177  -0.934  -0.560  0.00  0.00    +0.040 A 
ATOM      3  C   UNL     1      -0.016  -0.708  -1.224  0.00  0.00    +0.024 A 
ATOM      4  C   UNL     1      -1.203  -1.134  -0.656  0.00  0.00    +0.015 A 
ATOM      5  C   UNL     1      -1.152  -1.785   0.583  0.00  0.00    +0.043 A 
ATOM      6  C   UNL     1       0.099  -1.978   1.195  0.00  0.00    +0.136 A 
ATOM      7  N   UNL     1       1.205  -1.553   0.604  0.00  0.00    -0.236 NA
ENDROOT
BRANCH   6   8
ATOM      8  N   UNL     1       0.175  -2.618   2.419  0.00  0.00    -0.282 N 
ATOM      9  C   UNL     1       0.369  -4.003   2.487  0.00  0.00    +0.039 A 
ATOM     10  C   UNL     1       0.203  -4.768   1.337  0.00  0.00    +0.024 A 
ATOM     11  C   UNL     1       0.394  -6.134   1.382  0.00  0.00    +0.002 A 
ATOM     12  C   UNL     1       0.751  -6.742   2.572  0.00  0.00    +0.000 A 
ATOM     13  C   UNL     1       0.914  -5.985   3.716  0.00  0.00    +0.005 A 
ATOM     14  C   UNL     1       0.723  -4.614   3.680  0.00  0.00    -0.026 A 
ATOM     15  C   UNL     1       0.900  -3.820   4.948  0.00  0.00    +0.039 C 
ATOM     16  C   UNL     1       1.149  -2.346   4.626  0.00  0.00    +0.027 C 
ATOM     17  C   UNL     1       0.059  -1.855   3.670  0.00  0.00    +0.078 C 
ATOM     18  C   UNL     1       0.253  -0.364   3.387  0.00  0.00    +0.028 C 
ENDBRANCH   6   8
BRANCH   5  19
ATOM     19  C   UNL     1      -2.385  -2.259   1.232  0.00  0.00    +0.080 C 
ATOM     20  S   UNL     1      -2.295  -3.190   2.666  0.00  0.00    -0.035 S 
BRANCH  19  21
ATOM     21  N   UNL     1      -3.586  -1.960   0.698  0.00  0.00    -0.352 N 
ATOM     22  H   UNL     1      -3.638  -1.432  -0.114  0.00  0.00    +0.143 HD
ATOM     23  H   UNL     1      -4.399  -2.272   1.126  0.00  0.00    +0.143 HD
ENDBRANCH  19  21
ENDBRANCH   5  19
TORSDOF 3
