REMARK  Name = ZINC42169910
REMARK  4 active torsions:
REMARK  status: ('A' for Active; 'I' for Inactive)
REMARK    1  A    between atoms: C_3  and  C_7
REMARK    2  A    between atoms: C_7  and  C_8
REMARK    3  A    between atoms: C_14  and  C_17
REMARK    4  A    between atoms: C_17  and  N_18
REMARK                            x       y       z     vdW  Elec       q    Type
REMARK                         _______ _______ _______ _____ _____    ______ ____
ROOT
ATOM      1  C   UNL     1       4.143  -0.414  -1.553  0.00  0.00    +0.214 C 
ATOM      2  O   UNL     1       3.439  -0.916  -2.403  0.00  0.00    -0.276 OA
ATOM      3  N   UNL     1       5.445  -0.752  -1.470  0.00  0.00    -0.301 N 
ATOM      4  C   UNL     1       6.309  -0.156  -0.442  0.00  0.00    +0.108 C 
ATOM      5  C   UNL     1       6.994  -1.282   0.340  0.00  0.00    +0.019 C 
ATOM      6  C   UNL     1       7.725  -2.204  -0.638  0.00  0.00    +0.008 C 
ATOM      7  C   UNL     1       6.715  -2.831  -1.603  0.00  0.00    +0.024 C 
ATOM      8  C   UNL     1       6.026  -1.727  -2.403  0.00  0.00    +0.112 C 
ENDROOT
BRANCH   1   9
ATOM      9  C   UNL     1       3.562   0.588  -0.589  0.00  0.00    +0.080 C 
BRANCH   9  12
ATOM     10  C   UNL     1      -0.019   1.539   0.011  0.00  0.00    -0.021 C 
ATOM     11  C   UNL     1       1.488   1.909  -0.002  0.00  0.00    -0.017 C 
ATOM     12  C   UNL     1       2.077   0.791  -0.898  0.00  0.00    -0.063 C 
ATOM     13  N   UNL     1       1.306  -0.420  -0.547  0.00  0.00    +0.381 N 
ATOM     14  C   UNL     1       0.002  -0.004   0.002  0.00  0.00    -0.082 C 
ATOM     15  H   UNL     1       1.163  -0.983  -1.372  0.00  0.00    -0.086 HD
ATOM     16  H   UNL     1       1.810  -0.955   0.144  0.00  0.00    -0.086 HD
ENDBRANCH   9  12
ENDBRANCH   1   9
BRANCH   7  17
ATOM     17  C   UNL     1       7.443  -3.779  -2.559  0.00  0.00    +0.110 C 
BRANCH  17  18
ATOM     18  N   UNL     1       8.002  -4.901  -1.802  0.00  0.00    -0.299 N 
ATOM     19  C   UNL     1       8.691  -5.868  -2.440  0.00  0.00    +0.297 C 
ATOM     20  O   UNL     1       8.847  -5.809  -3.644  0.00  0.00    -0.253 OA
ATOM     21  N   UNL     1       9.205  -6.901  -1.743  0.00  0.00    -0.313 N 
ATOM     22  H   UNL     1       7.877  -4.948  -0.841  0.00  0.00    +0.150 HD
ATOM     23  H   UNL     1       9.080  -6.948  -0.782  0.00  0.00    +0.146 HD
ATOM     24  H   UNL     1       9.700  -7.597  -2.202  0.00  0.00    +0.146 HD
ENDBRANCH  17  18
ENDBRANCH   7  17
TORSDOF 4
