REMARK  Name = ZINC63520997
REMARK  7 active torsions:
REMARK  status: ('A' for Active; 'I' for Inactive)
REMARK    1  A    between atoms: C_1  and  C_2
REMARK    2  A    between atoms: C_2  and  O_3
REMARK    3  A    between atoms: O_3  and  C_4
REMARK    4  A    between atoms: C_7  and  C_19
REMARK    5  A    between atoms: C_9  and  N_10
REMARK    6  A    between atoms: C_19  and  S_20
REMARK    7  A    between atoms: S_20  and  C_21
REMARK                            x       y       z     vdW  Elec       q    Type
REMARK                         _______ _______ _______ _____ _____    ______ ____
ROOT
ATOM      1  C   UNL     1      -1.498  -1.848   0.006  0.00  0.00    +0.147 A 
ATOM      2  C   UNL     1      -0.389  -2.679  -0.003  0.00  0.00    +0.048 A 
ATOM      3  C   UNL     1      -0.553  -4.051  -0.009  0.00  0.00    +0.008 A 
ATOM      4  C   UNL     1      -1.823  -4.600  -0.006  0.00  0.00    -0.035 A 
ATOM      5  C   UNL     1      -2.934  -3.780   0.004  0.00  0.00    +0.037 A 
ATOM      6  C   UNL     1      -2.778  -2.400   0.016  0.00  0.00    +0.128 A 
ENDROOT
BRANCH   6   7
ATOM      7  N   UNL     1      -3.903  -1.566   0.031  0.00  0.00    -0.146 N 
ATOM      8  N   UNL     1      -3.836  -0.280   0.033  0.00  0.00    -0.147 NA
ATOM      9  C   UNL     1      -5.065   0.212   0.049  0.00  0.00    +0.113 A 
ATOM     10  C   UNL     1      -5.652   1.489   0.058  0.00  0.00    +0.032 A 
ATOM     11  C   UNL     1      -7.006   1.604   0.076  0.00  0.00    +0.002 A 
ATOM     12  C   UNL     1      -7.837   0.483   0.084  0.00  0.00    +0.002 A 
ATOM     13  C   UNL     1      -7.334  -0.779   0.076  0.00  0.00    +0.032 A 
ATOM     14  C   UNL     1      -5.941  -0.970   0.058  0.00  0.00    +0.113 A 
ATOM     15  N   UNL     1      -5.114  -2.003   0.041  0.00  0.00    -0.147 NA
ENDBRANCH   6   7
BRANCH   1  16
ATOM     16  O   UNL     1      -1.339  -0.499   0.012  0.00  0.00    -0.490 OA
BRANCH  16  18
ATOM     17  C   UNL     1      -0.019   1.526   0.010  0.00  0.00    +0.048 C 
ATOM     18  C   UNL     1       0.002  -0.004   0.002  0.00  0.00    +0.226 C 
ENDBRANCH  16  18
ENDBRANCH   1  16
BRANCH   4  19
ATOM     19  C   UNL     1      -1.995  -6.097  -0.013  0.00  0.00    +0.108 C 
BRANCH  19  20
ATOM     20  S   UNL     1      -2.055  -6.707   1.694  0.00  0.00    -0.110 S 
BRANCH  20  21
ATOM     21  C   UNL     1      -2.261  -8.500   1.512  0.00  0.00    +0.236 C 
ATOM     22  N   UNL     1      -1.166  -9.055   0.707  0.00  0.00    -0.355 N 
ATOM     23  C   UNL     1      -1.695  -9.598  -0.351  0.00  0.00    +0.061 A 
ATOM     24  C   UNL     1      -1.121 -10.300  -1.507  0.00  0.00    +0.027 A 
ATOM     25  C   UNL     1      -1.936 -10.767  -2.474  0.00  0.00    +0.002 A 
ATOM     26  C   UNL     1      -3.333 -10.611  -2.429  0.00  0.00    +0.002 A 
ATOM     27  C   UNL     1      -3.962  -9.983  -1.415  0.00  0.00    +0.027 A 
ATOM     28  C   UNL     1      -3.174  -9.433  -0.303  0.00  0.00    +0.061 A 
ATOM     29  N   UNL     1      -3.501  -8.793   0.782  0.00  0.00    -0.355 N 
ATOM     30  H   UNL     1      -0.221  -9.022   0.923  0.00  0.00    +0.162 HD
ATOM     31  H   UNL     1      -4.400  -8.555   1.059  0.00  0.00    +0.162 HD
ENDBRANCH  20  21
ENDBRANCH  19  20
ENDBRANCH   4  19
TORSDOF 6
