REMARK  Name = ZINC38766350
REMARK  7 active torsions:
REMARK  status: ('A' for Active; 'I' for Inactive)
REMARK    1  A    between atoms: C_1  and  C_2
REMARK    2  A    between atoms: C_3  and  C_24
REMARK    3  A    between atoms: C_4  and  C_8
REMARK    4  A    between atoms: C_11  and  O_15
REMARK    5  A    between atoms: C_13  and  O_14
REMARK    6  A    between atoms: O_15  and  C_16
REMARK    7  A    between atoms: C_16  and  C_17
REMARK                            x       y       z     vdW  Elec       q    Type
REMARK                         _______ _______ _______ _____ _____    ______ ____
ROOT
ATOM      1  C   UNL     1      -0.966  -2.939  -1.248  0.00  0.00    +0.022 A 
ATOM      2  C   UNL     1      -0.098  -3.061  -2.316  0.00  0.00    +0.013 A 
ATOM      3  C   UNL     1      -0.491  -3.738  -3.454  0.00  0.00    +0.046 A 
ATOM      4  C   UNL     1      -1.759  -4.297  -3.528  0.00  0.00    +0.124 A 
ATOM      5  C   UNL     1      -2.632  -4.176  -2.458  0.00  0.00    +0.091 A 
ATOM      6  C   UNL     1      -2.233  -3.501  -1.314  0.00  0.00    +0.126 A 
ENDROOT
BRANCH   1  10
ATOM      7  C   UNL     1      -0.018   1.503   0.010  0.00  0.00    +0.068 C 
ATOM      8  C   UNL     1       0.002  -0.004   0.002  0.00  0.00    +0.064 C 
ATOM      9  C   UNL     1      -1.100  -0.790   0.003  0.00  0.00    +0.011 C 
ATOM     10  C   UNL     1      -0.534  -2.200  -0.007  0.00  0.00    +0.164 C 
ATOM     11  N   UNL     1       0.920  -1.969  -0.013  0.00  0.00    -0.297 N 
ATOM     12  N   UNL     1       1.113  -0.751  -0.013  0.00  0.00    -0.182 NA
ATOM     13  H   UNL     1       1.606  -2.655  -0.020  0.00  0.00    +0.183 HD
BRANCH   9  14
ATOM     14  C   UNL     1      -2.513  -0.376   0.012  0.00  0.00    -0.018 A 
ATOM     15  C   UNL     1      -3.324  -0.670   1.113  0.00  0.00    +0.010 A 
ATOM     16  C   UNL     1      -4.646  -0.279   1.114  0.00  0.00    +0.020 A 
ATOM     17  C   UNL     1      -5.171   0.402   0.029  0.00  0.00    +0.041 A 
ATOM     18  C   UNL     1      -4.374   0.696  -1.065  0.00  0.00    +0.020 A 
ATOM     19  C   UNL     1      -3.048   0.317  -1.078  0.00  0.00    +0.010 A 
ATOM     20 CL   UNL     1      -6.837   0.890   0.039  0.00  0.00    -0.084 Cl
ENDBRANCH   9  14
ENDBRANCH   1  10
BRANCH   6  21
ATOM     21  O   UNL     1      -3.084  -3.385  -0.261  0.00  0.00    -0.506 OA
ATOM     22  H   UNL     1      -3.647  -2.599  -0.294  0.00  0.00    +0.292 HD
ENDBRANCH   6  21
BRANCH   4  23
ATOM     23  O   UNL     1      -2.145  -4.963  -4.648  0.00  0.00    -0.487 OA
BRANCH  23  24
ATOM     24  C   UNL     1      -1.194  -5.048  -5.712  0.00  0.00    +0.267 C 
BRANCH  24  25
ATOM     25  C   UNL     1      -1.795  -5.816  -6.861  0.00  0.00    +0.025 A 
ATOM     26  C   UNL     1      -3.085  -6.302  -6.769  0.00  0.00    +0.010 A 
ATOM     27  C   UNL     1      -3.636  -7.006  -7.823  0.00  0.00    +0.001 A 
ATOM     28  C   UNL     1      -2.897  -7.224  -8.971  0.00  0.00    +0.003 A 
ATOM     29  C   UNL     1      -1.607  -6.739  -9.066  0.00  0.00    +0.039 A 
ATOM     30  C   UNL     1      -1.056  -6.029  -8.013  0.00  0.00    +0.130 A 
ATOM     31  F   UNL     1       0.204  -5.549  -8.106  0.00  0.00    -0.205 F 
ENDBRANCH  24  25
ENDBRANCH  23  24
ENDBRANCH   4  23
TORSDOF 6
