REMARK  Name = ZINC04529827
REMARK  4 active torsions:
REMARK  status: ('A' for Active; 'I' for Inactive)
REMARK    1  A    between atoms: C_5  and  O_18
REMARK    2  A    between atoms: N_10  and  N_11
REMARK    3  A    between atoms: N_11  and  C_12
REMARK    4  A    between atoms: C_12  and  N_14
REMARK                            x       y       z     vdW  Elec       q    Type
REMARK                         _______ _______ _______ _____ _____    ______ ____
ROOT
ATOM      1  C   UNL     1      -0.019   1.523   0.010  0.00  0.00    +0.013 C 
ATOM      2  C   UNL     1       1.416   2.065  -0.000  0.00  0.00    +0.038 C 
ATOM      3  C   UNL     1       2.130   1.566  -1.263  0.00  0.00    +0.044 C 
ATOM      4  C   UNL     1       2.142   0.039  -1.284  0.00  0.00    +0.068 C 
ATOM      5  C   UNL     1       2.881  -0.514  -0.067  0.00  0.00    +0.044 C 
ATOM      6  C   UNL     1       2.182  -0.058   1.220  0.00  0.00    +0.038 C 
ATOM      7  C   UNL     1       2.132   1.477   1.206  0.00  0.00    +0.043 C 
ATOM      8  N   UNL     1       2.657   2.206   2.118  0.00  0.00    -0.189 NA
ATOM      9  C   UNL     1       0.737  -0.572   1.216  0.00  0.00    +0.013 C 
ATOM     10  C   UNL     1       0.002  -0.004   0.002  0.00  0.00    -0.007 C 
ATOM     11  C   UNL     1       0.704  -0.484  -1.288  0.00  0.00    +0.038 C 
ENDROOT
BRANCH   8  12
ATOM     12  N   UNL     1       3.304   1.608   3.207  0.00  0.00    -0.219 N 
ATOM     13  H   UNL     1       3.354   0.642   3.271  0.00  0.00    +0.176 HD
BRANCH  12  14
ATOM     14  C   UNL     1       3.857   2.376   4.167  0.00  0.00    +0.147 C 
ATOM     15  S   UNL     1       4.648   1.645   5.498  0.00  0.00    -0.017 S 
BRANCH  14  16
ATOM     16  N   UNL     1       3.788   3.719   4.079  0.00  0.00    -0.339 N 
ATOM     17  H   UNL     1       3.340   4.133   3.325  0.00  0.00    +0.144 HD
ATOM     18  H   UNL     1       4.186   4.271   4.769  0.00  0.00    +0.144 HD
ENDBRANCH  14  16
ENDBRANCH  12  14
ENDBRANCH   8  12
BRANCH   4  19
ATOM     19  O   UNL     1       2.810  -0.410  -2.465  0.00  0.00    -0.389 OA
ATOM     20  H   UNL     1       3.728  -0.115  -2.534  0.00  0.00    +0.210 HD
ENDBRANCH   4  19
TORSDOF 4
