REMARK  Name = ZINC44882415
REMARK  7 active torsions:
REMARK  status: ('A' for Active; 'I' for Inactive)
REMARK    1  A    between atoms: C_1  and  C_2
REMARK    2  A    between atoms: C_2  and  C_3
REMARK    3  A    between atoms: C_3  and  C_5
REMARK    4  A    between atoms: C_3  and  N_8
REMARK    5  A    between atoms: N_8  and  C_9
REMARK    6  A    between atoms: N_12  and  C_13
REMARK    7  A    between atoms: C_13  and  C_20
REMARK                            x       y       z     vdW  Elec       q    Type
REMARK                         _______ _______ _______ _____ _____    ______ ____
ROOT
ATOM      1  N   UNL     1      -2.105  -0.148  -1.230  0.00  0.00    -0.275 N 
ATOM      2  C   UNL     1      -1.573  -0.596  -2.520  0.00  0.00    +0.134 C 
ATOM      3  C   UNL     1      -3.214   0.618  -1.188  0.00  0.00    +0.303 C 
ATOM      4  O   UNL     1      -3.655   0.989  -0.118  0.00  0.00    -0.253 OA
ATOM      5  N   UNL     1      -3.832   0.972  -2.332  0.00  0.00    -0.292 N 
ATOM      6  H   UNL     1      -3.479   0.676  -3.186  0.00  0.00    +0.151 HD
ENDROOT
BRANCH   5   7
ATOM      7  C   UNL     1      -5.037   1.805  -2.286  0.00  0.00    +0.054 C 
ATOM      8  C   UNL     1      -4.715   3.090  -1.525  0.00  0.00    +0.049 C 
ATOM      9  C   UNL     1      -4.212   4.186  -2.506  0.00  0.00    +0.168 C 
ATOM     10  S   UNL     1      -5.350   3.872  -3.927  0.00  0.00    -0.029 S 
ATOM     11  O   UNL     1      -4.667   4.147  -5.142  0.00  0.00    -0.174 OA
ATOM     12  O   UNL     1      -6.602   4.492  -3.668  0.00  0.00    -0.174 OA
ATOM     13  C   UNL     1      -5.523   2.050  -3.728  0.00  0.00    +0.191 C 
ATOM     14  C   UNL     1      -6.125   1.047  -1.523  0.00  0.00    +0.033 C 
ENDBRANCH   5   7
BRANCH   1  15
ATOM     15  C   UNL     1      -1.433  -0.534   0.013  0.00  0.00    +0.190 C 
BRANCH  15  16
ATOM     16  C   UNL     1      -1.414  -2.036   0.129  0.00  0.00    +0.376 C 
ATOM     17  O   UNL     1      -1.427  -2.563   1.228  0.00  0.00    -0.244 OA
ATOM     18  O   UNL     1      -1.384  -2.724  -0.877  0.00  0.00    -0.244 OA
ENDBRANCH  15  16
BRANCH  15  20
ATOM     19  C   UNL     1      -0.019   1.526   0.010  0.00  0.00    +0.006 C 
ATOM     20  C   UNL     1       0.002  -0.004   0.002  0.00  0.00    +0.031 C 
ENDBRANCH  15  20
ENDBRANCH   1  15
TORSDOF 4
