REMARK  Name = ZINC47792284
REMARK  12 active torsions:
REMARK  status: ('A' for Active; 'I' for Inactive)
REMARK    1  A    between atoms: C_1  and  C_2
REMARK    2  A    between atoms: C_2  and  O_3
REMARK    3  A    between atoms: O_3  and  C_4
REMARK    4  A    between atoms: C_11  and  C_13
REMARK    5  A    between atoms: C_13  and  C_15
REMARK    6  A    between atoms: C_13  and  N_16
REMARK    7  A    between atoms: N_19  and  C_20
REMARK    8  A    between atoms: C_20  and  C_21
REMARK    9  A    between atoms: C_21  and  C_23
REMARK   10  A    between atoms: C_21  and  N_28
REMARK   11  A    between atoms: N_28  and  C_29
REMARK   12  A    between atoms: N_28  and  C_30
REMARK                            x       y       z     vdW  Elec       q    Type
REMARK                         _______ _______ _______ _____ _____    ______ ____
ROOT
ATOM      1  N   UNL     1      -7.040  -2.014  -1.729  0.00  0.00    -0.290 N 
ATOM      2  C   UNL     1      -8.298  -1.675  -2.074  0.00  0.00    +0.300 C 
ATOM      3  O   UNL     1      -9.221  -2.424  -1.821  0.00  0.00    -0.253 OA
ATOM      4  N   UNL     1      -8.532  -0.504  -2.701  0.00  0.00    -0.301 N 
ATOM      5  H   UNL     1      -6.303  -1.417  -1.931  0.00  0.00    +0.151 HD
ATOM      6  H   UNL     1      -7.795   0.093  -2.903  0.00  0.00    +0.150 HD
ENDROOT
BRANCH   1   7
ATOM      7  C   UNL     1      -6.786  -3.287  -1.048  0.00  0.00    +0.137 C 
ATOM      8  C   UNL     1      -6.995  -3.110   0.457  0.00  0.00    +0.036 C 
BRANCH   7  16
ATOM      9  C   UNL     1      -1.835  -3.221  -1.727  0.00  0.00    +0.163 A 
ATOM     10  C   UNL     1      -0.878  -4.183  -1.998  0.00  0.00    +0.049 A 
ATOM     11  C   UNL     1      -1.237  -5.514  -2.148  0.00  0.00    +0.004 A 
ATOM     12  C   UNL     1      -2.555  -5.896  -2.028  0.00  0.00    +0.012 A 
ATOM     13  C   UNL     1      -3.531  -4.938  -1.754  0.00  0.00    +0.024 A 
ATOM     14  C   UNL     1      -3.172  -3.590  -1.597  0.00  0.00    +0.177 A 
ATOM     15  O   UNL     1      -4.303  -2.902  -1.336  0.00  0.00    -0.454 OA
ATOM     16  C   UNL     1      -5.367  -3.722  -1.311  0.00  0.00    +0.126 A 
ATOM     17  C   UNL     1      -4.986  -4.981  -1.565  0.00  0.00    +0.055 A 
BRANCH   9  18
ATOM     18  O   UNL     1      -1.470  -1.919  -1.583  0.00  0.00    -0.489 OA
BRANCH  18  20
ATOM     19  C   UNL     1       0.133  -0.112  -1.535  0.00  0.00    +0.048 C 
ATOM     20  C   UNL     1      -0.082  -1.614  -1.730  0.00  0.00    +0.226 C 
ENDBRANCH  18  20
ENDBRANCH   9  18
ENDBRANCH   7  16
ENDBRANCH   1   7
BRANCH   4  21
ATOM     21  C   UNL     1      -9.899  -0.135  -3.076  0.00  0.00    +0.098 C 
BRANCH  21  22
ATOM     22  C   UNL     1      -9.904   1.284  -3.650  0.00  0.00    +0.016 C 
BRANCH  22  23
ATOM     23  C   UNL     1      -9.127   1.305  -4.941  0.00  0.00    +0.093 A 
ATOM     24  C   UNL     1      -9.656   1.283  -6.178  0.00  0.00    +0.043 A 
ATOM     25  C   UNL     1      -8.573   1.317  -7.087  0.00  0.00    +0.041 A 
ATOM     26  C   UNL     1      -7.448   1.357  -6.351  0.00  0.00    +0.195 A 
ATOM     27  O   UNL     1      -7.790   1.356  -5.053  0.00  0.00    -0.469 OA
ENDBRANCH  22  23
BRANCH  22  28
ATOM     28  N   UNL     1      -9.282   2.204  -2.689  0.00  0.00    +0.384 N 
ATOM     29  C   UNL     1      -9.279   3.564  -3.244  0.00  0.00    -0.096 C 
ATOM     30  C   UNL     1     -10.045   2.189  -1.434  0.00  0.00    -0.096 C 
ATOM     31  H   UNL     1      -8.333   1.912  -2.509  0.00  0.00    -0.082 HD
ENDBRANCH  22  28
ENDBRANCH  21  22
ENDBRANCH   4  21
TORSDOF 8
