REMARK  Name = ZINC24784676
REMARK  9 active torsions:
REMARK  status: ('A' for Active; 'I' for Inactive)
REMARK    1  A    between atoms: C_1  and  C_2
REMARK    2  A    between atoms: C_2  and  C_4
REMARK    3  A    between atoms: C_2  and  N_12
REMARK    4  A    between atoms: C_13  and  C_15
REMARK    5  A    between atoms: C_15  and  O_16
REMARK    6  A    between atoms: O_16  and  C_17
REMARK    7  A    between atoms: C_17  and  C_19
REMARK    8  A    between atoms: C_22  and  S_25
REMARK    9  A    between atoms: S_25  and  N_28
REMARK                            x       y       z     vdW  Elec       q    Type
REMARK                         _______ _______ _______ _____ _____    ______ ____
ROOT
ATOM      1  C   UNL     1       2.371   1.126  -0.015  0.00  0.00    +0.328 C 
ENDROOT
BRANCH   1   3
ATOM      2  N   UNL     1       4.806   1.562  -0.035  0.00  0.00    -0.306 N 
ATOM      3  C   UNL     1       3.554   2.060  -0.021  0.00  0.00    +0.251 C 
ATOM      4  O   UNL     1       3.379   3.260  -0.013  0.00  0.00    -0.272 OA
ATOM      5  H   UNL     1       4.965   0.473  -0.043  0.00  0.00    +0.149 HD
BRANCH   2   7
ATOM      6  C   UNL     1       6.264   2.892  -1.479  0.00  0.00    +0.033 C 
ATOM      7  C   UNL     1       5.956   2.470  -0.042  0.00  0.00    +0.102 C 
BRANCH   7   8
ATOM      8  C   UNL     1       7.154   1.768   0.544  0.00  0.00    -0.009 A 
ATOM      9  C   UNL     1       7.230   0.388   0.510  0.00  0.00    +0.008 A 
ATOM     10  C   UNL     1       8.331  -0.257   1.042  0.00  0.00    +0.020 A 
ATOM     11  C   UNL     1       9.352   0.478   1.618  0.00  0.00    +0.042 A 
ATOM     12  C   UNL     1       9.274   1.859   1.657  0.00  0.00    +0.040 A 
ATOM     13  C   UNL     1       8.174   2.504   1.119  0.00  0.00    +0.047 A 
ATOM     14 CL   UNL     1       8.073   4.236   1.168  0.00  0.00    -0.083 Cl
ATOM     15 CL   UNL     1      10.732  -0.331   2.291  0.00  0.00    -0.083 Cl
ENDBRANCH   7   8
ENDBRANCH   2   7
ENDBRANCH   1   3
BRANCH   1  16
ATOM     16  O   UNL     1       1.143   1.900   0.001  0.00  0.00    -0.452 OA
BRANCH  16  17
ATOM     17  C   UNL     1      -0.014   1.210   0.009  0.00  0.00    +0.340 C 
ATOM     18  O   UNL     1       0.002  -0.004   0.002  0.00  0.00    -0.245 OA
BRANCH  17  19
ATOM     19  C   UNL     1      -1.304   1.932   0.019  0.00  0.00    +0.059 A 
ATOM     20  C   UNL     1      -1.326   3.328   0.032  0.00  0.00    +0.017 A 
ATOM     21  C   UNL     1      -2.534   3.995   0.036  0.00  0.00    +0.029 A 
ATOM     22  C   UNL     1      -3.720   3.284   0.037  0.00  0.00    +0.105 A 
ATOM     23  C   UNL     1      -3.705   1.900   0.030  0.00  0.00    +0.029 A 
ATOM     24  C   UNL     1      -2.505   1.220   0.021  0.00  0.00    +0.017 A 
BRANCH  22  25
ATOM     25  S   UNL     1      -5.258   4.144   0.049  0.00  0.00    +0.056 S 
ATOM     26  O   UNL     1      -5.007   5.432  -0.496  0.00  0.00    -0.153 OA
ATOM     27  O   UNL     1      -6.223   3.258  -0.503  0.00  0.00    -0.153 OA
BRANCH  25  28
ATOM     28  N   UNL     1      -5.679   4.374   1.634  0.00  0.00    -0.204 NA
ATOM     29  H   UNL     1      -6.638   4.911   1.685  0.00  0.00    +0.144 HD
ATOM     30  H   UNL     1      -4.900   4.966   2.137  0.00  0.00    +0.144 HD
ENDBRANCH  25  28
ENDBRANCH  22  25
ENDBRANCH  17  19
ENDBRANCH  16  17
ENDBRANCH   1  16
TORSDOF 8
