REMARK  Name = ZINC56727511
REMARK  6 active torsions:
REMARK  status: ('A' for Active; 'I' for Inactive)
REMARK    1  A    between atoms: C_1  and  C_2
REMARK    2  A    between atoms: C_5  and  S_26
REMARK    3  A    between atoms: C_6  and  N_8
REMARK    4  A    between atoms: N_11  and  C_12
REMARK    5  A    between atoms: N_21  and  C_23
REMARK    6  A    between atoms: S_26  and  C_29
REMARK                            x       y       z     vdW  Elec       q    Type
REMARK                         _______ _______ _______ _____ _____    ______ ____
ROOT
ATOM      1  N   UNL     1       0.051  -2.797   2.393  0.00  0.00    -0.268 N 
ATOM      2  C   UNL     1       0.149  -2.135   3.562  0.00  0.00    +0.304 C 
ATOM      3  O   UNL     1       0.133  -0.919   3.575  0.00  0.00    -0.252 OA
ATOM      4  N   UNL     1       0.266  -2.819   4.717  0.00  0.00    -0.296 N 
ATOM      5  H   UNL     1      -0.002  -3.766   2.387  0.00  0.00    +0.156 HD
ATOM      6  H   UNL     1       0.279  -3.789   4.707  0.00  0.00    +0.151 HD
ENDROOT
BRANCH   4   7
ATOM      7  C   UNL     1       0.372  -2.100   5.986  0.00  0.00    +0.077 C 
ATOM      8  C   UNL     1      -1.020  -1.784   6.537  0.00  0.00    -0.007 C 
ATOM      9  C   UNL     1      -0.884  -0.937   7.797  0.00  0.00    +0.003 C 
ATOM     10  C   UNL     1      -0.012  -1.594   8.855  0.00  0.00    +0.001 C 
ATOM     11  C   UNL     1       1.290  -2.151   8.302  0.00  0.00    +0.003 C 
ATOM     12  C   UNL     1       1.090  -2.962   7.027  0.00  0.00    -0.007 C 
ATOM     13  C   UNL     1       0.303  -4.237   7.290  0.00  0.00    -0.073 C 
ATOM     14  N   UNL     1      -1.079  -3.991   7.688  0.00  0.00    +0.382 N 
ATOM     15  C   UNL     1      -1.786  -3.070   6.805  0.00  0.00    -0.073 C 
ATOM     16  H   UNL     1      -1.115  -3.660   8.640  0.00  0.00    -0.081 HD
BRANCH  14  17
ATOM     17  C   UNL     1      -1.792  -5.275   7.671  0.00  0.00    -0.069 C 
ATOM     18  C   UNL     1      -2.581  -5.662   8.924  0.00  0.00    -0.017 C 
ATOM     19  C   UNL     1      -1.274  -6.383   8.590  0.00  0.00    -0.017 C 
ENDBRANCH  14  17
ENDBRANCH   4   7
BRANCH   1  25
ATOM     20  C   UNL     1      -1.306   1.188  -0.147  0.00  0.00    +0.044 C 
ATOM     21  C   UNL     1      -0.625  -0.154  -0.073  0.00  0.00    -0.049 A 
ATOM     22  C   UNL     1      -0.022  -0.687  -1.198  0.00  0.00    +0.005 A 
ATOM     23  C   UNL     1       0.604  -1.918  -1.135  0.00  0.00    +0.029 A 
ATOM     24  C   UNL     1       0.630  -2.620   0.055  0.00  0.00    +0.109 A 
ATOM     25  C   UNL     1       0.026  -2.088   1.187  0.00  0.00    +0.060 A 
ATOM     26  C   UNL     1      -0.597  -0.849   1.120  0.00  0.00    +0.028 A 
BRANCH  24  27
ATOM     27  S   UNL     1       1.428  -4.189   0.135  0.00  0.00    -0.004 S 
ATOM     28  O   UNL     1       0.468  -5.054   0.725  0.00  0.00    -0.170 OA
ATOM     29  O   UNL     1       1.901  -4.423  -1.185  0.00  0.00    -0.170 OA
ATOM     30  C   UNL     1       2.826  -3.944   1.265  0.00  0.00    +0.200 C 
ENDBRANCH  24  27
ENDBRANCH   1  25
TORSDOF 4
