REMARK  Name = ZINC20086721
REMARK  4 active torsions:
REMARK  status: ('A' for Active; 'I' for Inactive)
REMARK    1  A    between atoms: C_1  and  C_2
REMARK    2  A    between atoms: C_6  and  C_7
REMARK    3  A    between atoms: C_9  and  C_25
REMARK    4  A    between atoms: C_10  and  N_24
REMARK                            x       y       z     vdW  Elec       q    Type
REMARK                         _______ _______ _______ _____ _____    ______ ____
ROOT
ATOM      1  C   UNL     1       0.030  -0.179   2.581  0.00  0.00    +0.109 C 
ATOM      2  C   UNL     1       1.275  -0.650   3.278  0.00  0.00    +0.099 C 
ATOM      3  C   UNL     1       1.227  -1.681   4.157  0.00  0.00    +0.199 C 
ATOM      4  O   UNL     1       0.073  -2.311   4.430  0.00  0.00    -0.437 OA
ATOM      5  C   UNL     1      -1.109  -1.705   4.176  0.00  0.00    +0.185 C 
ATOM      6  C   UNL     1      -1.193  -0.684   3.304  0.00  0.00    +0.059 C 
ATOM      7  C   UNL     1      -2.485  -0.036   3.038  0.00  0.00    +0.194 C 
ATOM      8  O   UNL     1      -2.548   0.887   2.249  0.00  0.00    -0.287 OA
ATOM      9  C   UNL     1      -3.709  -0.503   3.723  0.00  0.00    +0.033 A 
ATOM     10  C   UNL     1      -4.937   0.098   3.478  0.00  0.00    +0.012 A 
ATOM     11  C   UNL     1      -6.070  -0.359   4.134  0.00  0.00    +0.001 A 
ATOM     12  C   UNL     1      -5.987  -1.408   5.029  0.00  0.00    +0.001 A 
ATOM     13  C   UNL     1      -4.768  -2.017   5.285  0.00  0.00    +0.012 A 
ATOM     14  C   UNL     1      -3.623  -1.570   4.635  0.00  0.00    +0.036 A 
ATOM     15  C   UNL     1      -2.320  -2.194   4.884  0.00  0.00    +0.229 C 
ATOM     16  O   UNL     1      -2.233  -3.116   5.670  0.00  0.00    -0.283 OA
ENDROOT
BRANCH   1  22
ATOM     17  C   UNL     1      -0.018   1.503   0.010  0.00  0.00    +0.044 C 
ATOM     18  C   UNL     1       0.002  -0.004   0.002  0.00  0.00    -0.039 A 
ATOM     19  C   UNL     1       0.006  -0.699  -1.193  0.00  0.00    +0.011 A 
ATOM     20  C   UNL     1       0.024  -2.054  -1.165  0.00  0.00    +0.046 A 
ATOM     21  S   UNL     1       0.037  -2.387   0.589  0.00  0.00    -0.100 S 
ATOM     22  C   UNL     1       0.023  -0.698   1.166  0.00  0.00    +0.005 A 
ENDBRANCH   1  22
BRANCH   3  23
ATOM     23  N   UNL     1       2.381  -2.089   4.780  0.00  0.00    -0.328 N 
ATOM     24  H   UNL     1       3.219  -1.641   4.589  0.00  0.00    +0.145 HD
ATOM     25  H   UNL     1       2.357  -2.826   5.410  0.00  0.00    +0.145 HD
ENDBRANCH   3  23
BRANCH   2  26
ATOM     26  C   UNL     1       2.525  -0.003   3.011  0.00  0.00    +0.101 C 
ATOM     27  N   UNL     1       3.516   0.510   2.799  0.00  0.00    -0.191 NA
ENDBRANCH   2  26
TORSDOF 3
