REMARK  Name = ZINC50633645
REMARK  3 active torsions:
REMARK  status: ('A' for Active; 'I' for Inactive)
REMARK    1  A    between atoms: C_3  and  S_8
REMARK    2  A    between atoms: S_8  and  N_11
REMARK    3  A    between atoms: N_11  and  C_12
REMARK                            x       y       z     vdW  Elec       q    Type
REMARK                         _______ _______ _______ _____ _____    ______ ____
ROOT
ATOM      1  S   UNL     1       3.919   2.184  -0.024  0.00  0.00    +0.095 S 
ATOM      2  O   UNL     1       4.689   1.591  -1.060  0.00  0.00    -0.148 OA
ATOM      3  O   UNL     1       3.634   3.576   0.013  0.00  0.00    -0.148 OA
ENDROOT
BRANCH   1   6
ATOM      4  C   UNL     1      -0.017   1.376   0.010  0.00  0.00    +0.019 A 
ATOM      5  C   UNL     1       1.185   2.073   0.002  0.00  0.00    +0.034 A 
ATOM      6  C   UNL     1       2.365   1.353  -0.013  0.00  0.00    +0.148 A 
ATOM      7  C   UNL     1       2.310  -0.038  -0.020  0.00  0.00    +0.121 A 
ATOM      8  N   UNL     1       1.144  -0.665  -0.012  0.00  0.00    -0.348 N 
ATOM      9  C   UNL     1       0.002  -0.004   0.002  0.00  0.00    +0.084 A 
ATOM     10  N   UNL     1       3.489  -0.774  -0.036  0.00  0.00    -0.343 N 
ATOM     11  H   UNL     1       4.345  -0.319  -0.042  0.00  0.00    +0.144 HD
ATOM     12  H   UNL     1       3.455  -1.744  -0.041  0.00  0.00    +0.144 HD
ATOM     13  H   UNL     1       1.129  -1.635  -0.018  0.00  0.00    +0.167 HD
ENDBRANCH   1   6
BRANCH   1  14
ATOM     14  N   UNL     1       4.680   1.819   1.400  0.00  0.00    -0.095 NA
BRANCH  14  15
ATOM     15  C   UNL     1       5.947   2.346   1.672  0.00  0.00    +0.109 A 
ATOM     16  C   UNL     1       6.565   3.180   0.750  0.00  0.00    +0.030 A 
ATOM     17  C   UNL     1       7.817   3.699   1.020  0.00  0.00    +0.017 A 
ATOM     18  C   UNL     1       8.455   3.389   2.208  0.00  0.00    +0.021 A 
ATOM     19  C   UNL     1       7.843   2.557   3.129  0.00  0.00    +0.055 A 
ATOM     20  C   UNL     1       6.588   2.040   2.868  0.00  0.00    +0.149 A 
ATOM     21  F   UNL     1       5.987   1.233   3.769  0.00  0.00    -0.203 F 
ATOM     22 BR   UNL     1      10.168   4.102   2.573  0.00  0.00    -0.050 Br
ENDBRANCH  14  15
ENDBRANCH   1  14
TORSDOF 3
