REMARK  Name = ZINC66122198
REMARK  5 active torsions:
REMARK  status: ('A' for Active; 'I' for Inactive)
REMARK    1  A    between atoms: C_6  and  C_7
REMARK    2  A    between atoms: C_10  and  N_12
REMARK    3  A    between atoms: C_19  and  C_22
REMARK    4  A    between atoms: C_22  and  C_23
REMARK    5  A    between atoms: C_23  and  C_24
REMARK                            x       y       z     vdW  Elec       q    Type
REMARK                         _______ _______ _______ _____ _____    ______ ____
ROOT
ATOM      1  N   UNL     1      -0.544  -1.792  -2.216  0.00  0.00    -0.296 N 
ATOM      2  C   UNL     1      -0.889  -2.167  -3.464  0.00  0.00    +0.302 C 
ATOM      3  O   UNL     1      -2.026  -2.526  -3.699  0.00  0.00    -0.253 OA
ATOM      4  N   UNL     1       0.028  -2.145  -4.451  0.00  0.00    -0.285 N 
ATOM      5  C   UNL     1       1.434  -1.831  -4.161  0.00  0.00    +0.109 C 
ATOM      6  C   UNL     1       2.316  -2.951  -4.721  0.00  0.00    +0.019 C 
ATOM      7  C   UNL     1       2.009  -3.142  -6.208  0.00  0.00    +0.006 C 
ATOM      8  C   UNL     1       0.543  -3.549  -6.380  0.00  0.00    +0.007 C 
ATOM      9  C   UNL     1      -0.358  -2.442  -5.838  0.00  0.00    +0.112 C 
ATOM     10  H   UNL     1       0.379  -1.575  -2.012  0.00  0.00    +0.151 HD
ENDROOT
BRANCH   1  13
ATOM     11  C   UNL     1      -1.297  -0.767   0.006  0.00  0.00    +0.041 C 
ATOM     12  C   UNL     1      -1.211  -2.281   0.208  0.00  0.00    +0.033 C 
ATOM     13  C   UNL     1      -1.564  -1.711  -1.168  0.00  0.00    +0.082 C 
BRANCH  11  19
ATOM     14  C   UNL     1      -0.028   1.391  -0.000  0.00  0.00    +0.005 A 
ATOM     15  C   UNL     1       1.157   2.102  -0.010  0.00  0.00    +0.015 A 
ATOM     16  C   UNL     1       2.366   1.431  -0.023  0.00  0.00    +0.018 A 
ATOM     17  C   UNL     1       2.389   0.047  -0.027  0.00  0.00    +0.015 A 
ATOM     18  C   UNL     1       1.203  -0.663  -0.017  0.00  0.00    +0.005 A 
ATOM     19  C   UNL     1      -0.005   0.008  -0.004  0.00  0.00    -0.042 A 
ATOM     20 BR   UNL     1       3.988   2.403  -0.036  0.00  0.00    -0.050 Br
ENDBRANCH  11  19
ENDBRANCH   1  13
BRANCH   8  21
ATOM     21  C   UNL     1       0.246  -3.773  -7.864  0.00  0.00    +0.014 C 
BRANCH  21  22
ATOM     22  C   UNL     1      -1.182  -4.299  -8.024  0.00  0.00    +0.096 C 
BRANCH  22  23
ATOM     23  C   UNL     1      -1.474  -4.519  -9.486  0.00  0.00    +0.210 C 
ATOM     24  O   UNL     1      -0.625  -4.279 -10.318  0.00  0.00    -0.276 OA
ATOM     25  N   UNL     1      -2.680  -4.984  -9.869  0.00  0.00    -0.329 N 
ATOM     26  H   UNL     1      -3.360  -5.176  -9.204  0.00  0.00    +0.145 HD
ATOM     27  H   UNL     1      -2.869  -5.125 -10.810  0.00  0.00    +0.145 HD
ENDBRANCH  22  23
ENDBRANCH  21  22
ENDBRANCH   8  21
TORSDOF 5
