REMARK  Name = ZINC19517833
REMARK  4 active torsions:
REMARK  status: ('A' for Active; 'I' for Inactive)
REMARK    1  A    between atoms: C_10  and  O_12
REMARK    2  A    between atoms: O_12  and  C_13
REMARK    3  A    between atoms: C_14  and  C_19
REMARK    4  A    between atoms: N_20  and  O_21
REMARK                            x       y       z     vdW  Elec       q    Type
REMARK                         _______ _______ _______ _____ _____    ______ ____
ROOT
ATOM      1  C   UNL     1      -0.135   4.253   0.020  0.00  0.00    +0.226 A 
ATOM      2  C   UNL     1       1.081   3.556   0.011  0.00  0.00    +0.079 A 
ATOM      3  C   UNL     1       2.274   4.284   0.003  0.00  0.00    +0.018 A 
ATOM      4  C   UNL     1       2.202   5.667   0.011  0.00  0.00    +0.021 A 
ATOM      5  C   UNL     1       0.964   6.282   0.027  0.00  0.00    +0.114 A 
ATOM      6  N   UNL     1      -0.150   5.574   0.034  0.00  0.00    -0.221 NA
ENDROOT
BRANCH   2   7
ATOM      7  C   UNL     1       1.101   2.078   0.003  0.00  0.00    +0.168 C 
ATOM      8  N   UNL     1      -0.017   1.412   0.010  0.00  0.00    -0.071 NA
ATOM      9  N   UNL     1       2.309   1.402  -0.013  0.00  0.00    -0.340 N 
ATOM     10  H   UNL     1       2.324   0.302  -0.018  0.00  0.00    +0.144 HD
ATOM     11  H   UNL     1       3.255   1.965  -0.019  0.00  0.00    +0.144 HD
BRANCH   8  12
ATOM     12  O   UNL     1       0.002  -0.004   0.002  0.00  0.00    -0.408 OA
ATOM     13  H   UNL     1      -0.943  -0.567   0.008  0.00  0.00    +0.328 HD
ENDBRANCH   8  12
ENDBRANCH   2   7
BRANCH   1  14
ATOM     14  O   UNL     1      -1.304   3.567   0.022  0.00  0.00    -0.468 OA
BRANCH  14  24
ATOM     15  C   UNL     1      -3.591   5.152  -4.025  0.00  0.00    +0.000 A 
ATOM     16  C   UNL     1      -2.274   5.233  -3.613  0.00  0.00    +0.000 A 
ATOM     17  C   UNL     1      -1.948   4.965  -2.300  0.00  0.00    +0.007 A 
ATOM     18  C   UNL     1      -2.933   4.612  -1.387  0.00  0.00    -0.004 A 
ATOM     19  C   UNL     1      -4.245   4.527  -1.797  0.00  0.00    -0.041 A 
ATOM     20  C   UNL     1      -4.571   4.800  -3.119  0.00  0.00    +0.004 A 
ATOM     21  C   UNL     1      -5.363   4.141  -0.864  0.00  0.00    +0.035 C 
ATOM     22  C   UNL     1      -4.926   4.299   0.591  0.00  0.00    +0.009 C 
ATOM     23  C   UNL     1      -3.594   3.563   0.778  0.00  0.00    +0.050 C 
ATOM     24  C   UNL     1      -2.508   4.337   0.032  0.00  0.00    +0.206 C 
ENDBRANCH  14  24
ENDBRANCH   1  14
TORSDOF 4
