REMARK  Name = ZINC64870074
REMARK  9 active torsions:
REMARK  status: ('A' for Active; 'I' for Inactive)
REMARK    1  A    between atoms: C_1  and  C_2
REMARK    2  A    between atoms: C_2  and  O_3
REMARK    3  A    between atoms: O_3  and  C_4
REMARK    4  A    between atoms: C_7  and  C_12
REMARK    5  A    between atoms: C_9  and  O_10
REMARK    6  A    between atoms: O_10  and  C_11
REMARK    7  A    between atoms: C_15  and  C_19
REMARK    8  A    between atoms: N_29  and  C_32
REMARK    9  A    between atoms: C_35  and  C_38
REMARK                            x       y       z     vdW  Elec       q    Type
REMARK                         _______ _______ _______ _____ _____    ______ ____
ROOT
ATOM      1  C   UNL     1      -0.780  -7.868  -2.854  0.00  0.00    -0.000 A 
ATOM      2  C   UNL     1       0.493  -7.340  -3.004  0.00  0.00    +0.008 A 
ATOM      3  C   UNL     1       1.259  -7.666  -4.104  0.00  0.00    +0.016 A 
ATOM      4  C   UNL     1       0.743  -8.532  -5.066  0.00  0.00    +0.063 A 
ATOM      5  C   UNL     1      -0.548  -9.067  -4.912  0.00  0.00    +0.056 A 
ATOM      6  C   UNL     1      -1.300  -8.731  -3.797  0.00  0.00    +0.034 A 
ATOM      7  N   UNL     1      -1.034  -9.927  -5.886  0.00  0.00    -0.307 N 
ATOM      8  H   UNL     1      -1.924 -10.303  -5.793  0.00  0.00    +0.170 HD
ATOM      9  C   UNL     1      -0.286 -10.243  -6.957  0.00  0.00    +0.334 A 
ATOM     10  O   UNL     1      -0.750 -10.999  -7.788  0.00  0.00    -0.246 OA
ATOM     11  N   UNL     1       0.951  -9.758  -7.148  0.00  0.00    -0.229 N 
ATOM     12  C   UNL     1       1.518  -8.914  -6.260  0.00  0.00    +0.269 A 
ATOM     13  O   UNL     1       2.639  -8.479  -6.441  0.00  0.00    -0.266 OA
ENDROOT
BRANCH   1  16
ATOM     14  C   UNL     1      -2.611  -5.711  -0.526  0.00  0.00    +0.180 C 
ATOM     15  N   UNL     1      -1.388  -6.076  -1.279  0.00  0.00    -0.265 NA
ATOM     16  C   UNL     1      -1.602  -7.500  -1.645  0.00  0.00    +0.242 C 
ATOM     17  O   UNL     1      -3.014  -7.558  -1.948  0.00  0.00    -0.274 OA
ATOM     18  N   UNL     1      -3.651  -6.670  -0.956  0.00  0.00    -0.177 NA
ATOM     19  H   UNL     1      -1.286  -5.502  -2.103  0.00  0.00    +0.127 HD
ATOM     20  H   UNL     1      -4.003  -7.198  -0.171  0.00  0.00    +0.156 HD
BRANCH  14  24
ATOM     21  C   UNL     1      -3.794  -1.716  -1.488  0.00  0.00    +0.162 A 
ATOM     22  C   UNL     1      -2.454  -2.069  -1.508  0.00  0.00    +0.050 A 
ATOM     23  C   UNL     1      -2.075  -3.361  -1.197  0.00  0.00    +0.010 A 
ATOM     24  C   UNL     1      -3.030  -4.304  -0.864  0.00  0.00    -0.010 A 
ATOM     25  C   UNL     1      -4.369  -3.959  -0.842  0.00  0.00    +0.056 A 
ATOM     26  C   UNL     1      -4.755  -2.663  -1.147  0.00  0.00    +0.162 A 
BRANCH  26  27
ATOM     27  O   UNL     1      -6.071  -2.321  -1.120  0.00  0.00    -0.491 OA
ATOM     28  C   UNL     1      -7.001  -3.345  -0.762  0.00  0.00    +0.277 C 
ENDBRANCH  26  27
BRANCH  21  29
ATOM     29  O   UNL     1      -4.169  -0.445  -1.793  0.00  0.00    -0.489 OA
BRANCH  29  31
ATOM     30  C   UNL     1      -3.739   1.843  -2.444  0.00  0.00    +0.048 C 
ATOM     31  C   UNL     1      -3.129   0.474  -2.133  0.00  0.00    +0.226 C 
ENDBRANCH  29  31
ENDBRANCH  21  29
ENDBRANCH  14  24
ENDBRANCH   1  16
BRANCH  11  32
ATOM     32  C   UNL     1       1.667 -10.136  -8.292  0.00  0.00    +0.054 A 
ATOM     33  C   UNL     1       1.567  -9.385  -9.455  0.00  0.00    +0.026 A 
ATOM     34  C   UNL     1       2.275  -9.760 -10.581  0.00  0.00    +0.005 A 
ATOM     35  C   UNL     1       3.082 -10.882 -10.549  0.00  0.00    -0.050 A 
ATOM     36  C   UNL     1       3.184 -11.632  -9.392  0.00  0.00    +0.005 A 
ATOM     37  C   UNL     1       2.484 -11.259  -8.262  0.00  0.00    +0.026 A 
ATOM     38  C   UNL     1       3.853 -11.288 -11.779  0.00  0.00    +0.044 C 
ENDBRANCH  11  32
TORSDOF 6
