REMARK  Name = ZINC21145733
REMARK  8 active torsions:
REMARK  status: ('A' for Active; 'I' for Inactive)
REMARK    1  A    between atoms: C_1  and  C_2
REMARK    2  A    between atoms: C_3  and  C_7
REMARK    3  A    between atoms: C_10  and  S_13
REMARK    4  A    between atoms: N_11  and  N_12
REMARK    5  A    between atoms: S_13  and  C_14
REMARK    6  A    between atoms: C_14  and  C_16
REMARK    7  A    between atoms: C_14  and  C_17
REMARK    8  A    between atoms: N_19  and  C_20
REMARK                            x       y       z     vdW  Elec       q    Type
REMARK                         _______ _______ _______ _____ _____    ______ ____
ROOT
ATOM      1  S   UNL     1      -3.393  -2.699  -0.909  0.00  0.00    -0.072 S 
ENDROOT
BRANCH   1   5
ATOM      2  C   UNL     1      -6.800  -4.524  -1.483  0.00  0.00    +0.185 A 
ATOM      3  N   UNL     1      -7.171  -3.372  -0.977  0.00  0.00    -0.127 NA
ATOM      4  N   UNL     1      -6.138  -2.647  -0.731  0.00  0.00    -0.121 NA
ATOM      5  C   UNL     1      -5.045  -3.292  -1.064  0.00  0.00    +0.209 A 
ATOM      6  N   UNL     1      -5.427  -4.508  -1.561  0.00  0.00    -0.224 N 
BRANCH   2   9
ATOM      7  C   UNL     1      -9.930  -4.556  -1.304  0.00  0.00    +0.087 C 
ATOM      8  C   UNL     1      -9.049  -5.661  -1.827  0.00  0.00    +0.112 A 
ATOM      9  C   UNL     1      -7.691  -5.630  -1.898  0.00  0.00    +0.061 A 
ATOM     10  C   UNL     1      -7.292  -6.924  -2.465  0.00  0.00    +0.053 A 
ATOM     11  C   UNL     1      -8.432  -7.600  -2.684  0.00  0.00    +0.196 A 
ATOM     12  O   UNL     1      -9.471  -6.841  -2.304  0.00  0.00    -0.467 OA
ENDBRANCH   2   9
BRANCH   6  13
ATOM     13  N   UNL     1      -4.615  -5.499  -2.032  0.00  0.00    -0.295 N 
ATOM     14  H   UNL     1      -3.524  -5.359  -2.040  0.00  0.00    +0.163 HD
ATOM     15  H   UNL     1      -5.052  -6.438  -2.404  0.00  0.00    +0.163 HD
ENDBRANCH   6  13
ENDBRANCH   1   5
BRANCH   1  16
ATOM     16  C   UNL     1      -3.711  -1.064  -0.202  0.00  0.00    +0.137 C 
ATOM     17  C   UNL     1      -4.331  -1.221   1.188  0.00  0.00    +0.029 C 
BRANCH  16  18
ATOM     18  C   UNL     1      -2.414  -0.304  -0.090  0.00  0.00    +0.230 C 
ATOM     19  O   UNL     1      -1.359  -0.901  -0.099  0.00  0.00    -0.274 OA
ATOM     20  N   UNL     1      -2.428   1.039   0.019  0.00  0.00    -0.283 N 
ATOM     21  H   UNL     1      -3.385   1.573   0.118  0.00  0.00    +0.155 HD
BRANCH  20  22
ATOM     22  C   UNL     1      -1.225   1.755   0.006  0.00  0.00    +0.052 A 
ATOM     23  C   UNL     1      -0.102   1.218  -0.610  0.00  0.00    +0.026 A 
ATOM     24  C   UNL     1       1.082   1.928  -0.626  0.00  0.00    +0.022 A 
ATOM     25  C   UNL     1       1.153   3.172  -0.025  0.00  0.00    +0.042 A 
ATOM     26  C   UNL     1       0.038   3.708   0.596  0.00  0.00    +0.041 A 
ATOM     27  C   UNL     1      -1.149   3.002   0.616  0.00  0.00    +0.064 A 
ATOM     28 CL   UNL     1      -2.548   3.674   1.394  0.00  0.00    -0.082 Cl
ATOM     29 CL   UNL     1       2.643   4.062  -0.048  0.00  0.00    -0.083 Cl
ENDBRANCH  20  22
ENDBRANCH  16  18
ENDBRANCH   1  16
TORSDOF 6
