REMARK  Name = ZINC20374201
REMARK  4 active torsions:
REMARK  status: ('A' for Active; 'I' for Inactive)
REMARK    1  A    between atoms: C_1  and  N_2
REMARK    2  A    between atoms: N_2  and  C_3
REMARK    3  A    between atoms: C_6  and  N_9
REMARK    4  A    between atoms: C_10  and  C_12
REMARK                            x       y       z     vdW  Elec       q    Type
REMARK                         _______ _______ _______ _____ _____    ______ ____
ROOT
ATOM      1  C   UNL     1       0.030  -2.821  -0.181  0.00  0.00    +0.138 C 
ATOM      2  N   UNL     1      -1.246  -2.107  -0.100  0.00  0.00    -0.270 N 
ATOM      3  C   UNL     1      -1.271  -0.760  -0.159  0.00  0.00    +0.252 C 
ATOM      4  O   UNL     1      -2.312  -0.162   0.030  0.00  0.00    -0.270 OA
ENDROOT
BRANCH   3   5
ATOM      5  C   UNL     1      -0.032  -0.012  -0.454  0.00  0.00    +0.055 A 
ATOM      6  C   UNL     1       1.201  -0.489  -0.004  0.00  0.00    +0.014 A 
ATOM      7  C   UNL     1       2.353   0.214  -0.283  0.00  0.00    +0.001 A 
ATOM      8  C   UNL     1       2.292   1.392  -1.008  0.00  0.00    +0.001 A 
ATOM      9  C   UNL     1       1.075   1.872  -1.457  0.00  0.00    +0.021 A 
ATOM     10  C   UNL     1      -0.088   1.178  -1.185  0.00  0.00    +0.053 A 
ATOM     11 CL   UNL     1      -1.614   1.778  -1.756  0.00  0.00    -0.083 Cl
ENDBRANCH   3   5
BRANCH   2  12
ATOM     12  C   UNL     1      -2.442  -2.823   0.040  0.00  0.00    +0.036 A 
ATOM     13  C   UNL     1      -3.661  -2.163  -0.043  0.00  0.00    +0.025 A 
ATOM     14  C   UNL     1      -4.839  -2.870   0.089  0.00  0.00    +0.024 A 
ATOM     15  C   UNL     1      -4.805  -4.240   0.316  0.00  0.00    +0.025 A 
ATOM     16  C   UNL     1      -3.586  -4.899   0.404  0.00  0.00    +0.024 A 
ATOM     17  C   UNL     1      -2.408  -4.193   0.266  0.00  0.00    +0.025 A 
BRANCH  15  18
ATOM     18  N   UNL     1      -5.999  -4.956   0.454  0.00  0.00    -0.358 N 
ATOM     19  H   UNL     1      -5.972  -6.041   0.634  0.00  0.00    +0.142 HD
ATOM     20  H   UNL     1      -6.965  -4.434   0.384  0.00  0.00    +0.142 HD
ENDBRANCH  15  18
ENDBRANCH   2  12
TORSDOF 3
