REMARK  Name = ZINC63572884
REMARK  5 active torsions:
REMARK  status: ('A' for Active; 'I' for Inactive)
REMARK    1  A    between atoms: C_1  and  C_2
REMARK    2  A    between atoms: C_2  and  C_3
REMARK    3  A    between atoms: C_8  and  N_9
REMARK    4  A    between atoms: C_25  and  C_27
REMARK    5  A    between atoms: C_30  and  C_33
REMARK                            x       y       z     vdW  Elec       q    Type
REMARK                         _______ _______ _______ _____ _____    ______ ____
ROOT
ATOM      1  N   UNL     1      -2.123   1.397  -2.807  0.00  0.00    -0.269 N 
ATOM      2  C   UNL     1      -2.546   0.583  -3.795  0.00  0.00    +0.307 C 
ATOM      3  O   UNL     1      -3.642   0.062  -3.726  0.00  0.00    -0.252 OA
ATOM      4  N   UNL     1      -1.753   0.347  -4.859  0.00  0.00    -0.276 N 
ATOM      5  C   UNL     1      -0.385   0.876  -4.876  0.00  0.00    +0.114 C 
ATOM      6  C   UNL     1       0.611  -0.285  -5.053  0.00  0.00    +0.052 C 
ATOM      7  C   UNL     1       0.066  -1.159  -6.155  0.00  0.00    -0.035 C 
ATOM      8  C   UNL     1       0.626  -1.623  -7.265  0.00  0.00    +0.001 A 
ATOM      9  C   UNL     1       2.006  -1.548  -7.771  0.00  0.00    +0.030 A 
ATOM     10  C   UNL     1       2.234  -2.127  -8.981  0.00  0.00    +0.042 A 
ATOM     11  C   UNL     1       1.237  -2.765  -9.728  0.00  0.00    +0.022 A 
ATOM     12  C   UNL     1      -0.056  -2.888  -9.335  0.00  0.00    +0.027 A 
ATOM     13  C   UNL     1      -0.415  -2.326  -8.075  0.00  0.00    +0.043 A 
ATOM     14  N   UNL     1      -1.557  -2.318  -7.453  0.00  0.00    -0.375 N 
ATOM     15  C   UNL     1      -1.370  -1.669  -6.155  0.00  0.00    +0.131 C 
ATOM     16  C   UNL     1      -2.267  -0.444  -5.988  0.00  0.00    +0.134 C 
ATOM     17 CL   UNL     1       3.842  -2.072  -9.631  0.00  0.00    -0.084 Cl
ATOM     18  H   UNL     1      -1.280   1.870  -2.895  0.00  0.00    +0.156 HD
ATOM     19  H   UNL     1      -2.390  -2.680  -7.792  0.00  0.00    +0.160 HD
ENDROOT
BRANCH  16  20
ATOM     20  C   UNL     1      -3.679  -0.884  -5.702  0.00  0.00    -0.025 A 
ATOM     21  C   UNL     1      -3.917  -1.893  -4.787  0.00  0.00    +0.006 A 
ATOM     22  C   UNL     1      -5.213  -2.297  -4.524  0.00  0.00    +0.004 A 
ATOM     23  C   UNL     1      -6.271  -1.691  -5.176  0.00  0.00    -0.050 A 
ATOM     24  C   UNL     1      -6.033  -0.682  -6.090  0.00  0.00    +0.004 A 
ATOM     25  C   UNL     1      -4.738  -0.276  -6.350  0.00  0.00    +0.006 A 
ATOM     26  C   UNL     1      -7.684  -2.132  -4.891  0.00  0.00    +0.044 C 
ENDBRANCH  16  20
BRANCH   1  32
ATOM     27  C   UNL     1      -2.291   1.847  -0.440  0.00  0.00    -0.026 A 
ATOM     28  C   UNL     1      -3.062   2.013   0.695  0.00  0.00    +0.005 A 
ATOM     29  C   UNL     1      -4.437   1.890   0.623  0.00  0.00    +0.000 A 
ATOM     30  C   UNL     1      -5.046   1.600  -0.585  0.00  0.00    +0.002 A 
ATOM     31  C   UNL     1      -4.281   1.432  -1.723  0.00  0.00    +0.023 A 
ATOM     32  C   UNL     1      -2.900   1.561  -1.655  0.00  0.00    +0.038 A 
BRANCH  27  34
ATOM     33  C   UNL     1      -0.388   3.409  -0.732  0.00  0.00    +0.009 C 
ATOM     34  C   UNL     1      -0.792   1.981  -0.361  0.00  0.00    +0.033 C 
ENDBRANCH  27  34
ENDBRANCH   1  32
TORSDOF 3
