REMARK  Name = ZINC65383485
REMARK  3 active torsions:
REMARK  status: ('A' for Active; 'I' for Inactive)
REMARK    1  A    between atoms: C_6  and  N_7
REMARK    2  A    between atoms: C_17  and  C_19
REMARK    3  A    between atoms: C_22  and  N_25
REMARK                            x       y       z     vdW  Elec       q    Type
REMARK                         _______ _______ _______ _____ _____    ______ ____
ROOT
ATOM      1  C   UNL     1      -0.017   1.385   0.010  0.00  0.00    +0.024 A 
ATOM      2  C   UNL     1       1.170   2.093   0.002  0.00  0.00    +0.007 A 
ATOM      3  C   UNL     1       2.378   1.423  -0.017  0.00  0.00    -0.022 A 
ATOM      4  C   UNL     1       2.404   0.034  -0.037  0.00  0.00    +0.039 A 
ATOM      5  C   UNL     1       1.214  -0.680  -0.020  0.00  0.00    +0.047 A 
ATOM      6  C   UNL     1       0.002  -0.004   0.002  0.00  0.00    +0.041 A 
ATOM      7  N   UNL     1       3.623  -0.646  -0.095  0.00  0.00    -0.285 N 
ATOM      8  C   UNL     1       4.759   0.004  -0.401  0.00  0.00    +0.218 C 
ATOM      9  O   UNL     1       5.820  -0.580  -0.341  0.00  0.00    -0.275 OA
ATOM     10  C   UNL     1       4.727   1.451  -0.817  0.00  0.00    +0.104 C 
ATOM     11  C   UNL     1       3.669   2.200  -0.007  0.00  0.00    +0.033 C 
ATOM     12  H   UNL     1       3.650  -1.598   0.089  0.00  0.00    +0.155 HD
ENDROOT
BRANCH   6  13
ATOM     13  N   UNL     1      -1.200  -0.721   0.017  0.00  0.00    -0.234 N 
ATOM     14  C   UNL     1      -2.558  -0.143   0.036  0.00  0.00    +0.158 C 
ATOM     15  C   UNL     1      -3.437  -1.361  -0.336  0.00  0.00    +0.253 C 
ATOM     16  O   UNL     1      -2.605  -2.466   0.067  0.00  0.00    -0.448 OA
ATOM     17  C   UNL     1      -1.325  -2.062   0.011  0.00  0.00    +0.407 C 
ATOM     18  O   UNL     1      -0.380  -2.825  -0.035  0.00  0.00    -0.226 OA
ENDBRANCH   6  13
BRANCH  11  19
ATOM     19  C   UNL     1       4.153   2.365   1.435  0.00  0.00    -0.003 C 
ATOM     20  C   UNL     1       5.463   3.155   1.447  0.00  0.00    +0.002 C 
ATOM     21  C   UNL     1       5.947   3.319   2.889  0.00  0.00    -0.016 C 
ATOM     22  C   UNL     1       4.890   4.073   3.699  0.00  0.00    -0.075 C 
ATOM     23  C   UNL     1       3.579   3.283   3.687  0.00  0.00    -0.016 C 
ATOM     24  C   UNL     1       3.096   3.119   2.245  0.00  0.00    +0.002 C 
BRANCH  22  25
ATOM     25  N   UNL     1       4.669   5.397   3.102  0.00  0.00    +0.380 N 
ATOM     26  H   UNL     1       4.350   5.289   2.151  0.00  0.00    -0.090 HD
ATOM     27  H   UNL     1       3.972   5.894   3.636  0.00  0.00    -0.090 HD
ATOM     28  H   UNL     1       5.533   5.918   3.110  0.00  0.00    -0.090 HD
ENDBRANCH  22  25
ENDBRANCH  11  19
TORSDOF 3
