REMARK  Name = ZINC62943404
REMARK  7 active torsions:
REMARK  status: ('A' for Active; 'I' for Inactive)
REMARK    1  A    between atoms: C_1  and  C_2
REMARK    2  A    between atoms: C_2  and  C_3
REMARK    3  A    between atoms: C_3  and  C_4
REMARK    4  A    between atoms: C_3  and  C_6
REMARK    5  A    between atoms: C_3  and  C_10
REMARK    6  A    between atoms: C_4  and  C_5
REMARK    7  A    between atoms: N_7  and  O_8
REMARK                            x       y       z     vdW  Elec       q    Type
REMARK                         _______ _______ _______ _____ _____    ______ ____
ROOT
ATOM      1  C   UNL     1       2.032   0.150  -1.428  0.00  0.00    +0.229 C 
ATOM      2  O   UNL     1       2.312   0.696  -2.474  0.00  0.00    -0.275 OA
ATOM      3  N   UNL     1       2.927   0.121  -0.421  0.00  0.00    -0.302 N 
ATOM      4  C   UNL     1       2.694  -0.642   0.830  0.00  0.00    +0.106 C 
ATOM      5  C   UNL     1       3.389  -1.959   0.729  0.00  0.00    +0.000 C 
ATOM      6  C   UNL     1       4.914  -1.827   0.488  0.00  0.00    -0.077 C 
ATOM      7  N   UNL     1       5.119  -1.451  -0.869  0.00  0.00    +0.383 N 
ATOM      8  C   UNL     1       6.169  -2.057  -1.679  0.00  0.00    -0.078 C 
ATOM      9  C   UNL     1       6.122  -1.238  -3.000  0.00  0.00    -0.020 C 
ATOM     10  C   UNL     1       5.482   0.121  -2.612  0.00  0.00    -0.016 C 
ATOM     11  C   UNL     1       5.281   0.021  -1.104  0.00  0.00    -0.051 C 
ATOM     12  C   UNL     1       4.197   0.832  -0.485  0.00  0.00    +0.092 C 
ATOM     13  H   UNL     1       4.263  -1.689  -1.347  0.00  0.00    -0.081 HD
ENDROOT
BRANCH   1  14
ATOM     14  C   UNL     1       0.682  -0.497  -1.254  0.00  0.00    +0.105 C 
BRANCH  14  15
ATOM     15  C   UNL     1      -0.104  -0.371  -2.534  0.00  0.00    +0.147 C 
ATOM     16  N   UNL     1      -1.192   0.326  -2.558  0.00  0.00    -0.076 NA
ATOM     17  N   UNL     1       0.337  -0.999  -3.677  0.00  0.00    -0.343 N 
ATOM     18  H   UNL     1       1.112  -1.581  -3.643  0.00  0.00    +0.144 HD
ATOM     19  H   UNL     1      -0.128  -0.860  -4.517  0.00  0.00    +0.144 HD
BRANCH  16  20
ATOM     20  O   UNL     1      -1.930   0.444  -3.760  0.00  0.00    -0.408 OA
ATOM     21  H   UNL     1      -2.728   0.984  -3.680  0.00  0.00    +0.328 HD
ENDBRANCH  16  20
ENDBRANCH  14  15
BRANCH  14  23
ATOM     22  C   UNL     1      -0.128   1.703  -0.391  0.00  0.00    +0.005 C 
ATOM     23  C   UNL     1      -0.075   0.198  -0.120  0.00  0.00    +0.020 C 
ENDBRANCH  14  23
BRANCH  14  24
ATOM     24  C   UNL     1       0.866  -1.977  -0.912  0.00  0.00    +0.020 C 
ATOM     25  C   UNL     1      -0.499  -2.669  -0.889  0.00  0.00    +0.005 C 
ENDBRANCH  14  24
ENDBRANCH   1  14
TORSDOF 5
