REMARK  Name = ZINC61951818
REMARK  7 active torsions:
REMARK  status: ('A' for Active; 'I' for Inactive)
REMARK    1  A    between atoms: C_1  and  N_2
REMARK    2  A    between atoms: N_2  and  C_3
REMARK    3  A    between atoms: N_2  and  C_13
REMARK    4  A    between atoms: C_3  and  C_4
REMARK    5  A    between atoms: C_9  and  O_10
REMARK    6  A    between atoms: O_10  and  C_11
REMARK    7  A    between atoms: C_16  and  C_19
REMARK                            x       y       z     vdW  Elec       q    Type
REMARK                         _______ _______ _______ _____ _____    ______ ____
ROOT
ATOM      1  C   UNL     1       0.270  -0.462  -1.163  0.00  0.00    +0.030 A 
ATOM      2  C   UNL     1       0.300  -1.849  -1.284  0.00  0.00    +0.024 A 
ATOM      3  C   UNL     1       0.491  -2.429  -2.518  0.00  0.00    +0.013 A 
ATOM      4  C   UNL     1       0.654  -1.625  -3.649  0.00  0.00    +0.012 A 
ATOM      5  C   UNL     1       0.623  -0.234  -3.524  0.00  0.00    +0.013 A 
ATOM      6  C   UNL     1       0.426   0.341  -2.289  0.00  0.00    +0.024 A 
ENDROOT
BRANCH   4   7
ATOM      7  C   UNL     1       0.859  -2.244  -4.973  0.00  0.00    +0.094 C 
ATOM      8  N   UNL     1       1.014  -1.476  -6.052  0.00  0.00    -0.387 N 
ATOM      9  N   UNL     1       0.889  -3.572  -5.091  0.00  0.00    -0.345 N 
ATOM     10  H   UNL     1       1.149  -1.883  -6.922  0.00  0.00    +0.157 HD
ATOM     11  H   UNL     1       0.776  -4.131  -4.306  0.00  0.00    +0.144 HD
ATOM     12  H   UNL     1       1.024  -3.979  -5.961  0.00  0.00    +0.144 HD
ATOM     13  H   UNL     1       0.993  -0.510  -5.966  0.00  0.00    +0.157 HD
ENDBRANCH   4   7
BRANCH   1  15
ATOM     14  C   UNL     1      -0.084   1.573   0.198  0.00  0.00    +0.129 C 
ATOM     15  N   UNL     1       0.076   0.121   0.085  0.00  0.00    -0.328 N 
BRANCH  15  16
ATOM     16  C   UNL     1       0.032  -0.716   1.286  0.00  0.00    +0.143 C 
BRANCH  16  17
ATOM     17  C   UNL     1       1.435  -0.964   1.777  0.00  0.00    +0.012 A 
ATOM     18  C   UNL     1       2.062  -2.164   1.503  0.00  0.00    +0.024 A 
ATOM     19  C   UNL     1       3.350  -2.392   1.954  0.00  0.00    +0.018 A 
ATOM     20  C   UNL     1       4.013  -1.419   2.679  0.00  0.00    +0.019 A 
ATOM     21  C   UNL     1       3.391  -0.217   2.955  0.00  0.00    +0.047 A 
ATOM     22  C   UNL     1       2.101   0.016   2.499  0.00  0.00    +0.125 A 
ATOM     23 BR   UNL     1       4.204  -4.037   1.578  0.00  0.00    -0.050 Br
BRANCH  22  24
ATOM     24  O   UNL     1       1.489   1.200   2.765  0.00  0.00    -0.495 OA
ATOM     25  C   UNL     1       2.234   2.162   3.514  0.00  0.00    +0.277 C 
ENDBRANCH  22  24
ENDBRANCH  16  17
ENDBRANCH  15  16
ENDBRANCH   1  15
TORSDOF 5
