REMARK  Name = ZINC14563325
REMARK  8 active torsions:
REMARK  status: ('A' for Active; 'I' for Inactive)
REMARK    1  A    between atoms: C_1  and  C_2
REMARK    2  A    between atoms: C_7  and  C_8
REMARK    3  A    between atoms: C_8  and  C_9
REMARK    4  A    between atoms: N_11  and  C_12
REMARK    5  A    between atoms: C_12  and  N_14
REMARK    6  A    between atoms: N_14  and  N_15
REMARK    7  A    between atoms: C_16  and  C_18
REMARK    8  A    between atoms: C_18  and  C_19
REMARK                            x       y       z     vdW  Elec       q    Type
REMARK                         _______ _______ _______ _____ _____    ______ ____
ROOT
ATOM      1  N   UNL     1       3.478   1.930  -0.021  0.00  0.00    -0.246 N 
ATOM      2  H   UNL     1       4.324   1.456  -0.031  0.00  0.00    +0.172 HD
ENDROOT
BRANCH   1   3
ATOM      3  N   UNL     1       3.459   3.331  -0.013  0.00  0.00    -0.235 N 
ATOM      4  C   UNL     1       4.617   4.020  -0.020  0.00  0.00    +0.233 C 
ATOM      5  O   UNL     1       5.675   3.428  -0.034  0.00  0.00    -0.274 OA
ATOM      6  H   UNL     1       2.612   3.804  -0.003  0.00  0.00    +0.173 HD
BRANCH   4   7
ATOM      7  C   UNL     1       4.596   5.527  -0.012  0.00  0.00    +0.133 C 
BRANCH   7   8
ATOM      8  C   UNL     1       6.010   6.049  -0.023  0.00  0.00    -0.031 A 
ATOM      9  C   UNL     1       6.628   6.375   1.145  0.00  0.00    +0.005 A 
ATOM     10  C   UNL     1       7.934   6.859   1.155  0.00  0.00    +0.001 A 
ATOM     11  C   UNL     1       8.631   7.019  -0.003  0.00  0.00    +0.008 A 
ATOM     12  C   UNL     1       8.027   6.692  -1.229  0.00  0.00    -0.018 A 
ATOM     13  C   UNL     1       6.699   6.195  -1.238  0.00  0.00    -0.014 A 
ATOM     14  C   UNL     1       6.094   5.872  -2.465  0.00  0.00    +0.009 A 
ATOM     15  C   UNL     1       6.790   6.032  -3.623  0.00  0.00    +0.001 A 
ATOM     16  C   UNL     1       8.097   6.516  -3.613  0.00  0.00    +0.001 A 
ATOM     17  C   UNL     1       8.715   6.843  -2.445  0.00  0.00    +0.008 A 
ENDBRANCH   7   8
ENDBRANCH   4   7
ENDBRANCH   1   3
BRANCH   1  18
ATOM     18  C   UNL     1       2.320   1.240  -0.013  0.00  0.00    +0.153 C 
ATOM     19  S   UNL     1       2.343  -0.472  -0.023  0.00  0.00    -0.017 S 
BRANCH  18  22
ATOM     20  C   UNL     1      -0.014   1.208   0.009  0.00  0.00    +0.223 C 
ATOM     21  O   UNL     1       0.002  -0.004   0.002  0.00  0.00    -0.275 OA
ATOM     22  N   UNL     1       1.143   1.898   0.001  0.00  0.00    -0.266 N 
ATOM     23  H   UNL     1       1.130   2.868   0.007  0.00  0.00    +0.157 HD
BRANCH  20  24
ATOM     24  C   UNL     1      -1.330   1.944   0.019  0.00  0.00    +0.131 C 
BRANCH  24  31
ATOM     25  C   UNL     1      -2.259   0.813   2.510  0.00  0.00    +0.044 C 
ATOM     26  C   UNL     1      -2.906   0.408   1.210  0.00  0.00    -0.047 A 
ATOM     27  C   UNL     1      -3.945  -0.504   1.210  0.00  0.00    +0.003 A 
ATOM     28  C   UNL     1      -4.539  -0.875   0.019  0.00  0.00    +0.000 A 
ATOM     29  C   UNL     1      -4.094  -0.334  -1.173  0.00  0.00    +0.000 A 
ATOM     30  C   UNL     1      -3.059   0.582  -1.173  0.00  0.00    +0.004 A 
ATOM     31  C   UNL     1      -2.462   0.949   0.019  0.00  0.00    -0.036 A 
ENDBRANCH  24  31
ENDBRANCH  20  24
ENDBRANCH  18  22
ENDBRANCH   1  18
TORSDOF 7
