REMARK  Name = ZINC66577224
REMARK  6 active torsions:
REMARK  status: ('A' for Active; 'I' for Inactive)
REMARK    1  A    between atoms: C_4  and  O_23
REMARK    2  A    between atoms: C_5  and  C_7
REMARK    3  A    between atoms: N_9  and  N_10
REMARK    4  A    between atoms: N_10  and  S_11
REMARK    5  A    between atoms: S_11  and  C_14
REMARK    6  A    between atoms: C_15  and  C_16
REMARK                            x       y       z     vdW  Elec       q    Type
REMARK                         _______ _______ _______ _____ _____    ______ ____
ROOT
ATOM      1  N   UNL     1       0.121  -4.255  -0.022  0.00  0.00    -0.108 NA
ATOM      2  H   UNL     1       0.605  -4.727  -0.718  0.00  0.00    +0.172 HD
ENDROOT
BRANCH   1   5
ATOM      3  C   UNL     1       1.250  -2.159  -0.022  0.00  0.00    +0.262 C 
ATOM      4  O   UNL     1       2.314  -2.748  -0.036  0.00  0.00    -0.269 OA
ATOM      5  N   UNL     1       0.095  -2.855  -0.014  0.00  0.00    -0.228 N 
ATOM      6  H   UNL     1      -0.754  -2.385  -0.003  0.00  0.00    +0.171 HD
BRANCH   3  11
ATOM      7  C   UNL     1      -0.017   1.374   0.010  0.00  0.00    +0.001 A 
ATOM      8  C   UNL     1       1.170   2.089   0.002  0.00  0.00    +0.004 A 
ATOM      9  C   UNL     1       2.383   1.429  -0.013  0.00  0.00    +0.046 A 
ATOM     10  C   UNL     1       2.420   0.043  -0.021  0.00  0.00    +0.129 A 
ATOM     11  C   UNL     1       1.222  -0.684  -0.013  0.00  0.00    +0.079 A 
ATOM     12  C   UNL     1       0.002  -0.004   0.002  0.00  0.00    +0.017 A 
BRANCH  10  13
ATOM     13  O   UNL     1       3.611  -0.606  -0.037  0.00  0.00    -0.506 OA
ATOM     14  H   UNL     1       3.966  -0.799   0.842  0.00  0.00    +0.292 HD
ENDBRANCH  10  13
ENDBRANCH   3  11
ENDBRANCH   1   5
BRANCH   1  15
ATOM     15  S   UNL     1      -0.674  -5.105   1.155  0.00  0.00    +0.067 S 
ATOM     16  O   UNL     1      -0.585  -6.477   0.797  0.00  0.00    -0.152 OA
ATOM     17  O   UNL     1      -0.202  -4.611   2.401  0.00  0.00    -0.152 OA
BRANCH  15  18
ATOM     18  C   UNL     1      -2.378  -4.668   1.054  0.00  0.00    +0.155 C 
ATOM     19  C   UNL     1      -3.277  -5.580   0.715  0.00  0.00    +0.028 C 
BRANCH  19  20
ATOM     20  C   UNL     1      -4.707  -5.213   0.629  0.00  0.00    -0.024 A 
ATOM     21  C   UNL     1      -5.111  -3.905   0.899  0.00  0.00    +0.009 A 
ATOM     22  C   UNL     1      -6.447  -3.569   0.817  0.00  0.00    +0.016 A 
ATOM     23  C   UNL     1      -7.384  -4.526   0.468  0.00  0.00    +0.018 A 
ATOM     24  C   UNL     1      -6.989  -5.825   0.200  0.00  0.00    +0.016 A 
ATOM     25  C   UNL     1      -5.656  -6.172   0.273  0.00  0.00    +0.009 A 
ATOM     26 BR   UNL     1      -9.213  -4.056   0.359  0.00  0.00    -0.050 Br
ENDBRANCH  19  20
ENDBRANCH  15  18
ENDBRANCH   1  15
TORSDOF 6
