REMARK  Name = ZINC39296829
REMARK  2 active torsions:
REMARK  status: ('A' for Active; 'I' for Inactive)
REMARK    1  A    between atoms: C_4  and  C_7
REMARK    2  A    between atoms: C_7  and  C_9
REMARK                            x       y       z     vdW  Elec       q    Type
REMARK                         _______ _______ _______ _____ _____    ______ ____
ROOT
ATOM      1  C   UNL     1       3.598  -1.687   2.404  0.00  0.00    +0.085 C 
ATOM      2  C   UNL     1       4.350  -2.094   3.487  0.00  0.00    +0.094 C 
ATOM      3  N   UNL     1       4.324  -1.352   4.659  0.00  0.00    -0.320 N 
ATOM      4  C   UNL     1       4.524  -2.150   5.868  0.00  0.00    +0.142 C 
ATOM      5  C   UNL     1       5.890  -2.849   5.656  0.00  0.00    +0.110 C 
ATOM      6  C   UNL     1       6.503  -3.316   6.951  0.00  0.00    +0.016 C 
ATOM      7  C   UNL     1       6.311  -4.804   7.143  0.00  0.00    +0.005 C 
ATOM      8  C   UNL     1       5.248  -5.166   8.167  0.00  0.00    +0.000 C 
ATOM      9  C   UNL     1       5.654  -4.492   9.489  0.00  0.00    +0.001 C 
ATOM     10  C   UNL     1       5.418  -3.000   9.307  0.00  0.00    +0.014 C 
ATOM     11  C   UNL     1       6.101  -2.417   8.124  0.00  0.00    +0.052 C 
ATOM     12  S   UNL     1       4.953  -1.148   7.344  0.00  0.00    -0.134 S 
ATOM     13  C   UNL     1       5.859  -3.684   4.444  0.00  0.00    +0.224 C 
ATOM     14  N   UNL     1       5.114  -3.237   3.395  0.00  0.00    -0.273 N 
ATOM     15  O   UNL     1       6.469  -4.730   4.383  0.00  0.00    -0.275 OA
ATOM     16  H   UNL     1       4.187  -0.392   4.675  0.00  0.00    +0.148 HD
ATOM     17  H   UNL     1       5.125  -3.733   2.562  0.00  0.00    +0.156 HD
ENDROOT
BRANCH   1  18
ATOM     18  C   UNL     1       2.719  -0.616   2.531  0.00  0.00    +0.162 C 
ATOM     19  O   UNL     1       2.535  -0.105   3.620  0.00  0.00    -0.292 OA
BRANCH  18  23
ATOM     20  C   UNL     1      -0.340   1.201   0.105  0.00  0.00    +0.000 C 
ATOM     21  C   UNL     1       0.989   1.942   0.266  0.00  0.00    +0.001 C 
ATOM     22  C   UNL     1       1.726   1.407   1.496  0.00  0.00    +0.011 C 
ATOM     23  C   UNL     1       1.994  -0.089   1.319  0.00  0.00    +0.060 C 
ATOM     24  C   UNL     1       0.665  -0.830   1.158  0.00  0.00    +0.011 C 
ATOM     25  C   UNL     1      -0.072  -0.295  -0.071  0.00  0.00    +0.001 C 
ENDBRANCH  18  23
ENDBRANCH   1  18
TORSDOF 2
