REMARK  Name = ZINC13079057
REMARK  11 active torsions:
REMARK  status: ('A' for Active; 'I' for Inactive)
REMARK    1  A    between atoms: C_1  and  C_2
REMARK    2  A    between atoms: C_4  and  C_30
REMARK    3  A    between atoms: C_6  and  S_9
REMARK    4  A    between atoms: C_7  and  C_8
REMARK    5  A    between atoms: S_9  and  N_12
REMARK    6  A    between atoms: N_12  and  N_13
REMARK    7  A    between atoms: C_14  and  C_16
REMARK    8  A    between atoms: C_23  and  C_26
REMARK    9  A    between atoms: C_26  and  C_27
REMARK   10  A    between atoms: C_26  and  C_28
REMARK   11  A    between atoms: C_26  and  C_29
REMARK                            x       y       z     vdW  Elec       q    Type
REMARK                         _______ _______ _______ _____ _____    ______ ____
ROOT
ATOM      1  N   UNL     1      -2.558   0.965   2.358  0.00  0.00    -0.227 N 
ATOM      2  C   UNL     1      -3.820   1.232   2.749  0.00  0.00    +0.265 C 
ATOM      3  O   UNL     1      -4.667   0.359   2.709  0.00  0.00    -0.268 OA
ATOM      4  H   UNL     1      -1.883   1.661   2.390  0.00  0.00    +0.171 HD
ENDROOT
BRANCH   2   5
ATOM      5  C   UNL     1      -4.172   2.574   3.221  0.00  0.00    +0.076 A 
ATOM      6  C   UNL     1      -5.393   3.051   3.661  0.00  0.00    +0.024 A 
ATOM      7  C   UNL     1      -5.473   4.375   4.060  0.00  0.00    -0.036 A 
ATOM      8  C   UNL     1      -4.324   5.111   3.985  0.00  0.00    -0.006 A 
ATOM      9  S   UNL     1      -3.136   4.018   3.385  0.00  0.00    -0.088 S 
ATOM     10  C   UNL     1      -4.149   6.552   4.353  0.00  0.00    +0.043 C 
ATOM     11  C   UNL     1      -5.539   7.192   4.481  0.00  0.00    +0.009 C 
ATOM     12  C   UNL     1      -6.423   6.282   5.338  0.00  0.00    -0.001 C 
ATOM     13  C   UNL     1      -6.767   5.009   4.565  0.00  0.00    +0.040 C 
BRANCH  12  14
ATOM     14  C   UNL     1      -7.713   7.021   5.700  0.00  0.00    -0.035 C 
ATOM     15  C   UNL     1      -8.592   6.118   6.567  0.00  0.00    +0.011 C 
ATOM     16  C   UNL     1      -7.370   8.296   6.474  0.00  0.00    +0.011 C 
ATOM     17  C   UNL     1      -8.465   7.389   4.420  0.00  0.00    +0.011 C 
ENDBRANCH  12  14
ENDBRANCH   2   5
BRANCH   1  18
ATOM     18  N   UNL     1      -2.221  -0.318   1.907  0.00  0.00    -0.108 NA
ATOM     19  H   UNL     1      -2.393  -1.090   2.469  0.00  0.00    +0.172 HD
BRANCH  18  20
ATOM     20  S   UNL     1      -1.529  -0.516   0.416  0.00  0.00    +0.074 S 
ATOM     21  O   UNL     1      -2.405   0.093  -0.522  0.00  0.00    -0.152 OA
ATOM     22  O   UNL     1      -1.145  -1.882   0.324  0.00  0.00    -0.152 OA
BRANCH  20  28
ATOM     23  C   UNL     1       3.309   0.429   2.153  0.00  0.00    +0.044 C 
ATOM     24  C   UNL     1       2.176   0.815   1.237  0.00  0.00    -0.045 A 
ATOM     25  C   UNL     1       2.311   1.900   0.396  0.00  0.00    +0.018 A 
ATOM     26  C   UNL     1       1.260   2.256  -0.452  0.00  0.00    +0.065 A 
ATOM     27  C   UNL     1       0.080   1.510  -0.443  0.00  0.00    +0.044 A 
ATOM     28  C   UNL     1      -0.041   0.427   0.402  0.00  0.00    +0.111 A 
ATOM     29  C   UNL     1       1.004   0.079   1.241  0.00  0.00    -0.021 A 
ATOM     30  C   UNL     1       0.863  -1.101   2.166  0.00  0.00    +0.046 C 
BRANCH  26  31
ATOM     31  C   UNL     1       1.397   3.417  -1.355  0.00  0.00    +0.387 C 
ATOM     32  O   UNL     1       0.481   3.725  -2.092  0.00  0.00    -0.241 OA
ATOM     33  O   UNL     1       2.536   4.136  -1.361  0.00  0.00    -0.241 OA
ENDBRANCH  26  31
ENDBRANCH  20  28
ENDBRANCH  18  20
ENDBRANCH   1  18
TORSDOF 6
