REMARK  Name = ZINC15443649
REMARK  5 active torsions:
REMARK  status: ('A' for Active; 'I' for Inactive)
REMARK    1  A    between atoms: C_1  and  S_2
REMARK    2  A    between atoms: S_2  and  C_5
REMARK    3  A    between atoms: C_8  and  O_12
REMARK    4  A    between atoms: O_12  and  C_13
REMARK    5  A    between atoms: C_16  and  N_19
REMARK                            x       y       z     vdW  Elec       q    Type
REMARK                         _______ _______ _______ _____ _____    ______ ____
ROOT
ATOM      1  C   UNL     1      -0.819   1.821   1.527  0.00  0.00    +0.091 A 
ATOM      2  C   UNL     1      -0.517   3.029   2.128  0.00  0.00    +0.031 A 
ATOM      3  C   UNL     1      -1.124   3.381   3.318  0.00  0.00    +0.051 A 
ATOM      4  C   UNL     1      -2.030   2.518   3.916  0.00  0.00    +0.164 A 
ATOM      5  C   UNL     1      -2.327   1.302   3.314  0.00  0.00    +0.167 A 
ATOM      6  C   UNL     1      -1.720   0.956   2.120  0.00  0.00    +0.069 A 
ATOM      7  F   UNL     1      -3.208   0.457   3.894  0.00  0.00    -0.202 F 
ENDROOT
BRANCH   1   9
ATOM      8  C   UNL     1      -1.152   2.020  -1.282  0.00  0.00    +0.200 C 
ATOM      9  S   UNL     1      -0.047   1.378   0.006  0.00  0.00    -0.006 S 
ATOM     10  O   UNL     1      -0.056  -0.043  -0.006  0.00  0.00    -0.170 OA
ATOM     11  O   UNL     1       1.180   2.095  -0.000  0.00  0.00    -0.170 OA
ENDBRANCH   1   9
BRANCH   4  12
ATOM     12  O   UNL     1      -2.624   2.860   5.089  0.00  0.00    -0.453 OA
BRANCH  12  13
ATOM     13  C   UNL     1      -2.115   2.342   6.239  0.00  0.00    +0.129 A 
ATOM     14  C   UNL     1      -0.956   1.580   6.202  0.00  0.00    +0.048 A 
ATOM     15  C   UNL     1      -0.436   1.057   7.369  0.00  0.00    +0.026 A 
ATOM     16  C   UNL     1      -1.078   1.286   8.579  0.00  0.00    +0.025 A 
ATOM     17  C   UNL     1      -2.241   2.045   8.614  0.00  0.00    +0.026 A 
ATOM     18  C   UNL     1      -2.758   2.571   7.447  0.00  0.00    +0.048 A 
BRANCH  16  19
ATOM     19  N   UNL     1      -0.554   0.752   9.762  0.00  0.00    -0.358 N 
ATOM     20  H   UNL     1      -1.004   0.912  10.606  0.00  0.00    +0.142 HD
ATOM     21  H   UNL     1       0.258   0.223   9.737  0.00  0.00    +0.142 HD
ENDBRANCH  16  19
ENDBRANCH  12  13
ENDBRANCH   4  12
TORSDOF 4
