REMARK  Name = ZINC39978010
REMARK  1 active torsions:
REMARK  status: ('A' for Active; 'I' for Inactive)
REMARK    1  A    between atoms: C_2  and  C_9
REMARK                            x       y       z     vdW  Elec       q    Type
REMARK                         _______ _______ _______ _____ _____    ______ ____
ROOT
ATOM      1  C   UNL     1      -0.017   1.411   0.010  0.00  0.00    +0.094 A 
ATOM      2  C   UNL     1      -1.206   2.052   0.019  0.00  0.00    +0.058 A 
ATOM      3  N   UNL     1      -2.366   1.328   0.021  0.00  0.00    -0.309 N 
ATOM      4  C   UNL     1      -2.334  -0.017   0.013  0.00  0.00    +0.327 A 
ATOM      5  O   UNL     1      -3.378  -0.642   0.015  0.00  0.00    -0.247 OA
ATOM      6  N   UNL     1      -1.164  -0.682   0.004  0.00  0.00    -0.275 N 
ATOM      7  C   UNL     1       0.002  -0.004   0.002  0.00  0.00    +0.254 A 
ATOM      8  O   UNL     1       1.062  -0.604  -0.012  0.00  0.00    -0.268 OA
ATOM      9  H   UNL     1      -3.220   1.788   0.027  0.00  0.00    +0.170 HD
ATOM     10  H   UNL     1      -1.159  -1.652  -0.001  0.00  0.00    +0.173 HD
ENDROOT
BRANCH   2  11
ATOM     11  C   UNL     1      -1.253   3.559   0.028  0.00  0.00    +0.200 C 
ATOM     12  N   UNL     1      -2.048   4.079  -1.108  0.00  0.00    -0.248 N 
ATOM     13  N   UNL     1      -3.172   4.793  -0.759  0.00  0.00    -0.163 NA
ATOM     14  C   UNL     1      -3.527   5.006   0.470  0.00  0.00    +0.171 C 
ATOM     15  S   UNL     1      -2.263   4.188   1.432  0.00  0.00    -0.059 S 
ATOM     16  N   UNL     1      -4.634   5.708   0.932  0.00  0.00    -0.337 N 
ATOM     17  H   UNL     1      -1.794   3.928  -2.032  0.00  0.00    +0.170 HD
ATOM     18  H   UNL     1      -5.252   6.109   0.301  0.00  0.00    +0.144 HD
ATOM     19  H   UNL     1      -4.789   5.796   1.886  0.00  0.00    +0.144 HD
ENDBRANCH   2  11
TORSDOF 1
