REMARK  Name = ZINC08246697
REMARK  8 active torsions:
REMARK  status: ('A' for Active; 'I' for Inactive)
REMARK    1  A    between atoms: C_1  and  C_2
REMARK    2  A    between atoms: C_2  and  C_3
REMARK    3  A    between atoms: C_2  and  C_4
REMARK    4  A    between atoms: C_2  and  N_5
REMARK    5  A    between atoms: C_6  and  C_8
REMARK    6  A    between atoms: C_13  and  N_14
REMARK    7  A    between atoms: C_15  and  C_17
REMARK    8  A    between atoms: C_23  and  C_25
REMARK                            x       y       z     vdW  Elec       q    Type
REMARK                         _______ _______ _______ _____ _____    ______ ____
ROOT
ATOM      1  N   UNL     1      -0.462   0.827   0.048  0.00  0.00    -0.285 N 
ATOM      2  C   UNL     1       0.647   1.591   0.007  0.00  0.00    +0.220 C 
ATOM      3  O   UNL     1       0.550   2.798  -0.062  0.00  0.00    -0.275 OA
ATOM      4  H   UNL     1      -0.386  -0.140   0.042  0.00  0.00    +0.155 HD
ENDROOT
BRANCH   2   5
ATOM      5  C   UNL     1       2.009   0.946   0.047  0.00  0.00    +0.078 C 
ATOM      6  C   UNL     1       2.156   0.147   1.344  0.00  0.00    +0.032 C 
ATOM      7  C   UNL     1       3.527  -0.536   1.365  0.00  0.00    +0.109 C 
ATOM      8  N   UNL     1       4.566   0.483   1.163  0.00  0.00    -0.295 N 
ATOM      9  C   UNL     1       4.470   1.367  -0.007  0.00  0.00    +0.109 C 
ATOM     10  C   UNL     1       3.088   2.028  -0.013  0.00  0.00    +0.032 C 
ATOM     11  C   UNL     1       5.588   0.604   2.033  0.00  0.00    +0.282 C 
ATOM     12  O   UNL     1       5.704  -0.188   2.950  0.00  0.00    -0.267 OA
BRANCH  11  13
ATOM     13  C   UNL     1       6.561   1.690   1.876  0.00  0.00    +0.189 A 
ATOM     14  C   UNL     1       7.561   2.004   2.750  0.00  0.00    +0.054 A 
ATOM     15  C   UNL     1       8.243   3.103   2.204  0.00  0.00    +0.042 A 
ATOM     16  C   UNL     1       7.637   3.408   1.036  0.00  0.00    +0.196 A 
ATOM     17  O   UNL     1       6.626   2.551   0.839  0.00  0.00    -0.458 OA
ENDBRANCH  11  13
ENDBRANCH   2   5
BRANCH   1  23
ATOM     18  C   UNL     1      -2.756   0.833   0.830  0.00  0.00    +0.058 A 
ATOM     19  C   UNL     1      -4.010   1.446   0.873  0.00  0.00    +0.015 A 
ATOM     20  C   UNL     1      -4.224   2.622   0.186  0.00  0.00    +0.001 A 
ATOM     21  C   UNL     1      -3.199   3.203  -0.544  0.00  0.00    +0.002 A 
ATOM     22  C   UNL     1      -1.953   2.611  -0.591  0.00  0.00    +0.024 A 
ATOM     23  C   UNL     1      -1.719   1.426   0.095  0.00  0.00    +0.046 A 
BRANCH  18  25
ATOM     24  N   UNL     1      -3.547  -1.054   2.170  0.00  0.00    -0.307 N 
ATOM     25  C   UNL     1      -2.522  -0.429   1.558  0.00  0.00    +0.246 C 
ATOM     26  O   UNL     1      -1.404  -0.905   1.605  0.00  0.00    -0.270 OA
ATOM     27  H   UNL     1      -4.439  -0.674   2.132  0.00  0.00    +0.150 HD
BRANCH  24  29
ATOM     28  C   UNL     1      -2.303  -2.067   4.016  0.00  0.00    +0.031 C 
ATOM     29  C   UNL     1      -3.314  -2.307   2.893  0.00  0.00    +0.026 C 
ATOM     30  C   UNL     1      -4.633  -2.803   3.490  0.00  0.00    +0.031 C 
ATOM     31  C   UNL     1      -2.764  -3.358   1.927  0.00  0.00    +0.031 C 
ENDBRANCH  24  29
ENDBRANCH  18  25
ENDBRANCH   1  23
TORSDOF 5
