REMARK  Name = ZINC61642926
REMARK  9 active torsions:
REMARK  status: ('A' for Active; 'I' for Inactive)
REMARK    1  A    between atoms: C_1  and  N_2
REMARK    2  A    between atoms: N_2  and  S_3
REMARK    3  A    between atoms: S_3  and  C_6
REMARK    4  A    between atoms: C_9  and  N_13
REMARK    5  A    between atoms: C_10  and  N_12
REMARK    6  A    between atoms: C_17  and  C_19
REMARK    7  A    between atoms: C_19  and  N_20
REMARK    8  A    between atoms: N_20  and  C_21
REMARK    9  A    between atoms: N_20  and  C_22
REMARK                            x       y       z     vdW  Elec       q    Type
REMARK                         _______ _______ _______ _____ _____    ______ ____
ROOT
ATOM      1  C   UNL     1      -0.005  -0.898   2.980  0.00  0.00    +0.107 A 
ATOM      2  C   UNL     1       0.310   0.164   3.807  0.00  0.00    +0.030 A 
ATOM      3  C   UNL     1      -0.488   0.456   4.898  0.00  0.00    +0.027 A 
ATOM      4  C   UNL     1      -1.608  -0.316   5.164  0.00  0.00    +0.051 A 
ATOM      5  C   UNL     1      -1.926  -1.387   4.330  0.00  0.00    +0.048 A 
ATOM      6  C   UNL     1      -1.123  -1.671   3.235  0.00  0.00    +0.053 A 
ENDROOT
BRANCH   4   7
ATOM      7  N   UNL     1      -2.417  -0.022   6.269  0.00  0.00    -0.327 N 
ATOM      8  C   UNL     1      -2.333  -0.668   7.591  0.00  0.00    +0.105 C 
ATOM      9  C   UNL     1      -2.936   0.365   8.576  0.00  0.00    +0.021 C 
ATOM     10  C   UNL     1      -4.083   0.973   7.727  0.00  0.00    +0.022 C 
ATOM     11  C   UNL     1      -3.487   0.986   6.303  0.00  0.00    +0.057 C 
BRANCH  11  12
ATOM     12  C   UNL     1      -4.572   0.628   5.285  0.00  0.00    -0.057 C 
BRANCH  12  13
ATOM     13  N   UNL     1      -5.585   1.691   5.256  0.00  0.00    +0.377 N 
ATOM     14  C   UNL     1      -4.987   2.925   4.728  0.00  0.00    -0.097 C 
ATOM     15  C   UNL     1      -6.701   1.280   4.393  0.00  0.00    -0.097 C 
ATOM     16  H   UNL     1      -5.926   1.856   6.191  0.00  0.00    -0.083 HD
ENDBRANCH  12  13
ENDBRANCH  11  12
ENDBRANCH   4   7
BRANCH   1  17
ATOM     17  S   UNL     1       1.016  -1.264   1.592  0.00  0.00    +0.058 S 
ATOM     18  O   UNL     1       0.810  -2.636   1.286  0.00  0.00    -0.153 OA
ATOM     19  O   UNL     1       2.302  -0.733   1.883  0.00  0.00    -0.153 OA
BRANCH  17  21
ATOM     20  C   UNL     1       0.471   1.065   0.330  0.00  0.00    +0.127 C 
ATOM     21  N   UNL     1       0.427  -0.399   0.308  0.00  0.00    -0.193 NA
ATOM     22  H   UNL     1       0.053  -0.862  -0.458  0.00  0.00    +0.148 HD
ENDBRANCH  17  21
ENDBRANCH   1  17
BRANCH   5  23
ATOM     23  N   UNL     1      -3.056  -2.172   4.594  0.00  0.00    -0.356 N 
ATOM     24  H   UNL     1      -3.656  -1.930   5.316  0.00  0.00    +0.142 HD
ATOM     25  H   UNL     1      -3.237  -2.957   4.054  0.00  0.00    +0.142 HD
ENDBRANCH   5  23
TORSDOF 6
