REMARK  Name = ZINC07504497
REMARK  7 active torsions:
REMARK  status: ('A' for Active; 'I' for Inactive)
REMARK    1  A    between atoms: C_4  and  S_19
REMARK    2  A    between atoms: C_5  and  N_7
REMARK    3  A    between atoms: C_8  and  C_10
REMARK    4  A    between atoms: C_10  and  O_11
REMARK    5  A    between atoms: O_11  and  C_12
REMARK    6  A    between atoms: S_19  and  C_20
REMARK    7  A    between atoms: C_20  and  C_21
REMARK                            x       y       z     vdW  Elec       q    Type
REMARK                         _______ _______ _______ _____ _____    ______ ____
ROOT
ATOM      1  C   UNL     1       0.153   1.373   0.636  0.00  0.00    +0.002 A 
ATOM      2  C   UNL     1       1.172   2.090   0.036  0.00  0.00    +0.001 A 
ATOM      3  C   UNL     1       2.215   1.429  -0.586  0.00  0.00    +0.016 A 
ATOM      4  C   UNL     1       2.241   0.042  -0.608  0.00  0.00    +0.030 A 
ATOM      5  C   UNL     1       1.213  -0.681  -0.002  0.00  0.00    +0.047 A 
ATOM      6  C   UNL     1       0.171  -0.009   0.619  0.00  0.00    +0.024 A 
ENDROOT
BRANCH   5   7
ATOM      7  N   UNL     1       1.233  -2.082  -0.021  0.00  0.00    -0.282 N 
ATOM      8  C   UNL     1       0.082  -2.774   0.088  0.00  0.00    +0.255 C 
ATOM      9  O   UNL     1      -0.980  -2.187   0.102  0.00  0.00    -0.272 OA
ATOM     10  H   UNL     1       2.076  -2.554  -0.113  0.00  0.00    +0.155 HD
BRANCH   8  11
ATOM     11  C   UNL     1       0.113  -4.277   0.194  0.00  0.00    +0.324 C 
BRANCH  11  12
ATOM     12  O   UNL     1      -1.222  -4.775   0.299  0.00  0.00    -0.482 OA
BRANCH  12  13
ATOM     13  C   UNL     1      -1.372  -6.122   0.403  0.00  0.00    +0.135 A 
ATOM     14  C   UNL     1      -0.257  -6.947   0.408  0.00  0.00    +0.047 A 
ATOM     15  C   UNL     1      -0.411  -8.316   0.514  0.00  0.00    +0.004 A 
ATOM     16  C   UNL     1      -1.677  -8.864   0.613  0.00  0.00    +0.001 A 
ATOM     17  C   UNL     1      -2.790  -8.045   0.608  0.00  0.00    +0.019 A 
ATOM     18  C   UNL     1      -2.641  -6.675   0.508  0.00  0.00    +0.059 A 
ATOM     19 BR   UNL     1      -4.164  -5.554   0.509  0.00  0.00    -0.047 Br
ENDBRANCH  12  13
ENDBRANCH  11  12
ENDBRANCH   8  11
ENDBRANCH   5   7
BRANCH   4  20
ATOM     20  S   UNL     1       3.568  -0.804  -1.400  0.00  0.00    -0.114 S 
BRANCH  20  21
ATOM     21  C   UNL     1       4.629   0.529  -2.023  0.00  0.00    +0.169 C 
BRANCH  21  22
ATOM     22  C   UNL     1       5.818  -0.066  -2.733  0.00  0.00    +0.221 C 
ATOM     23  O   UNL     1       5.939  -1.270  -2.810  0.00  0.00    -0.275 OA
ATOM     24  N   UNL     1       6.748   0.741  -3.281  0.00  0.00    -0.329 N 
ATOM     25  H   UNL     1       6.652   1.705  -3.219  0.00  0.00    +0.145 HD
ATOM     26  H   UNL     1       7.514   0.359  -3.737  0.00  0.00    +0.145 HD
ENDBRANCH  21  22
ENDBRANCH  20  21
ENDBRANCH   4  20
TORSDOF 7
