REMARK  Name = ZINC49044250
REMARK  6 active torsions:
REMARK  status: ('A' for Active; 'I' for Inactive)
REMARK    1  A    between atoms: C_1  and  C_2
REMARK    2  A    between atoms: C_2  and  C_3
REMARK    3  A    between atoms: C_6  and  S_8
REMARK    4  A    between atoms: S_8  and  N_11
REMARK    5  A    between atoms: N_11  and  C_12
REMARK    6  A    between atoms: C_17  and  N_18
REMARK                            x       y       z     vdW  Elec       q    Type
REMARK                         _______ _______ _______ _____ _____    ______ ____
ROOT
ATOM      1  N   UNL     1      -5.329  -3.664   1.282  0.00  0.00    -0.214 N 
ATOM      2  H   UNL     1      -5.886  -4.245   0.741  0.00  0.00    +0.174 HD
ENDROOT
BRANCH   1   3
ATOM      3  C   UNL     1      -4.363  -4.214   2.133  0.00  0.00    +0.070 A 
ATOM      4  C   UNL     1      -4.095  -3.620   3.357  0.00  0.00    +0.046 A 
ATOM      5  C   UNL     1      -3.140  -4.166   4.196  0.00  0.00    +0.043 A 
ATOM      6  C   UNL     1      -2.450  -5.304   3.818  0.00  0.00    +0.022 A 
ATOM      7  C   UNL     1      -2.712  -5.903   2.599  0.00  0.00    +0.026 A 
ATOM      8  C   UNL     1      -3.671  -5.365   1.755  0.00  0.00    +0.047 A 
ATOM      9 CL   UNL     1      -2.805  -3.420   5.728  0.00  0.00    -0.083 Cl
BRANCH   8  10
ATOM     10  N   UNL     1      -3.942  -5.973   0.522  0.00  0.00    -0.357 N 
ATOM     11  H   UNL     1      -4.611  -5.594  -0.069  0.00  0.00    +0.142 HD
ATOM     12  H   UNL     1      -3.461  -6.774   0.260  0.00  0.00    +0.142 HD
ENDBRANCH   8  10
ENDBRANCH   1   3
BRANCH   1  13
ATOM     13  S   UNL     1      -5.521  -2.021   1.200  0.00  0.00    +0.079 S 
ATOM     14  O   UNL     1      -5.714  -1.568   2.533  0.00  0.00    -0.149 OA
ATOM     15  O   UNL     1      -6.465  -1.774   0.168  0.00  0.00    -0.149 OA
BRANCH  13  19
ATOM     16  C   UNL     1      -1.538  -0.284   0.278  0.00  0.00    -0.009 A 
ATOM     17  C   UNL     1      -2.308  -0.559  -0.802  0.00  0.00    +0.013 A 
ATOM     18  C   UNL     1      -3.564  -1.103  -0.610  0.00  0.00    +0.037 A 
ATOM     19  C   UNL     1      -3.989  -1.344   0.655  0.00  0.00    +0.146 A 
ATOM     20  S   UNL     1      -2.590  -0.803   1.624  0.00  0.00    -0.073 S 
BRANCH  16  22
ATOM     21  C   UNL     1      -0.244   1.827   0.419  0.00  0.00    +0.009 C 
ATOM     22  C   UNL     1      -0.150   0.302   0.331  0.00  0.00    +0.039 C 
ENDBRANCH  16  22
ENDBRANCH  13  19
ENDBRANCH   1  13
TORSDOF 5
