REMARK  Name = ZINC35773859
REMARK  6 active torsions:
REMARK  status: ('A' for Active; 'I' for Inactive)
REMARK    1  A    between atoms: C_1  and  C_2
REMARK    2  A    between atoms: C_4  and  S_10
REMARK    3  A    between atoms: C_6  and  N_9
REMARK    4  A    between atoms: C_7  and  C_8
REMARK    5  A    between atoms: S_10  and  N_13
REMARK    6  A    between atoms: C_18  and  C_20
REMARK                            x       y       z     vdW  Elec       q    Type
REMARK                         _______ _______ _______ _____ _____    ______ ____
ROOT
ATOM      1  C   UNL     1       0.074   2.337  -0.584  0.00  0.00    +0.044 C 
ATOM      2  C   UNL     1       0.357   0.883  -0.305  0.00  0.00    -0.044 A 
ATOM      3  C   UNL     1       0.172  -0.060  -1.299  0.00  0.00    +0.032 A 
ATOM      4  C   UNL     1       0.430  -1.395  -1.047  0.00  0.00    +0.107 A 
ATOM      5  C   UNL     1       0.873  -1.791   0.200  0.00  0.00    +0.051 A 
ATOM      6  C   UNL     1       1.060  -0.846   1.201  0.00  0.00    +0.030 A 
ATOM      7  C   UNL     1       0.805   0.495   0.942  0.00  0.00    -0.027 A 
ATOM      8  C   UNL     1       1.012   1.525   2.023  0.00  0.00    +0.046 C 
ENDROOT
BRANCH   6   9
ATOM      9  N   UNL     1       1.508  -1.242   2.463  0.00  0.00    -0.358 N 
ATOM     10  H   UNL     1       1.689  -2.179   2.642  0.00  0.00    +0.142 HD
ATOM     11  H   UNL     1       1.638  -0.582   3.161  0.00  0.00    +0.142 HD
ENDBRANCH   6   9
BRANCH   4  12
ATOM     12  S   UNL     1       0.192  -2.593  -2.317  0.00  0.00    +0.061 S 
ATOM     13  O   UNL     1      -0.187  -3.800  -1.670  0.00  0.00    -0.153 OA
ATOM     14  O   UNL     1      -0.614  -1.976  -3.311  0.00  0.00    -0.153 OA
BRANCH  12  15
ATOM     15  N   UNL     1       1.669  -2.871  -3.010  0.00  0.00    -0.169 NA
ATOM     16  C   UNL     1       2.461  -4.060  -2.656  0.00  0.00    +0.138 C 
ATOM     17  C   UNL     1       2.888  -4.760  -3.952  0.00  0.00    +0.177 C 
ATOM     18  O   UNL     1       3.520  -3.811  -4.814  0.00  0.00    -0.377 OA
ATOM     19  C   UNL     1       2.668  -2.740  -5.229  0.00  0.00    +0.180 C 
ATOM     20  C   UNL     1       2.227  -1.940  -4.004  0.00  0.00    +0.102 C 
ATOM     21  C   UNL     1       1.161  -0.922  -4.412  0.00  0.00    +0.028 C 
ENDBRANCH  12  15
ENDBRANCH   4  12
TORSDOF 3
