REMARK  Name = ZINC41630281
REMARK  7 active torsions:
REMARK  status: ('A' for Active; 'I' for Inactive)
REMARK    1  A    between atoms: C_1  and  C_2
REMARK    2  A    between atoms: C_2  and  C_4
REMARK    3  A    between atoms: C_2  and  S_18
REMARK    4  A    between atoms: N_6  and  C_7
REMARK    5  A    between atoms: C_11  and  C_13
REMARK    6  A    between atoms: S_18  and  C_19
REMARK    7  A    between atoms: C_25  and  N_27
REMARK                            x       y       z     vdW  Elec       q    Type
REMARK                         _______ _______ _______ _____ _____    ______ ____
ROOT
ATOM      1  C   UNL     1      -1.412  -0.524   0.013  0.00  0.00    +0.230 C 
ATOM      2  O   UNL     1      -1.930  -0.893  -1.020  0.00  0.00    -0.274 OA
ATOM      3  N   UNL     1      -2.103  -0.575   1.169  0.00  0.00    -0.285 N 
ATOM      4  H   UNL     1      -1.668  -0.344   2.004  0.00  0.00    +0.155 HD
ENDROOT
BRANCH   3   5
ATOM      5  C   UNL     1      -3.449  -0.960   1.163  0.00  0.00    +0.034 A 
ATOM      6  C   UNL     1      -3.892  -1.928   0.272  0.00  0.00    +0.025 A 
ATOM      7  C   UNL     1      -5.220  -2.306   0.268  0.00  0.00    +0.022 A 
ATOM      8  C   UNL     1      -6.109  -1.721   1.153  0.00  0.00    +0.053 A 
ATOM      9  C   UNL     1      -5.671  -0.756   2.042  0.00  0.00    +0.075 A 
ATOM     10  C   UNL     1      -4.342  -0.379   2.053  0.00  0.00    +0.037 A 
ATOM     11 CL   UNL     1      -7.779  -2.197   1.145  0.00  0.00    -0.083 Cl
BRANCH   9  12
ATOM     12  C   UNL     1      -6.642  -0.121   3.003  0.00  0.00    +0.419 C 
ATOM     13  F   UNL     1      -5.970   0.817   3.794  0.00  0.00    -0.166 F 
ATOM     14  F   UNL     1      -7.658   0.518   2.285  0.00  0.00    -0.166 F 
ATOM     15  F   UNL     1      -7.200  -1.108   3.823  0.00  0.00    -0.166 F 
ENDBRANCH   9  12
ENDBRANCH   3   5
BRANCH   1  17
ATOM     16  C   UNL     1      -0.008   1.519   0.018  0.00  0.00    +0.029 C 
ATOM     17  C   UNL     1       0.004  -0.011   0.003  0.00  0.00    +0.137 C 
BRANCH  17  18
ATOM     18  S   UNL     1       0.850  -0.594  -1.492  0.00  0.00    -0.075 S 
BRANCH  18  19
ATOM     19  C   UNL     1       2.510  -0.043  -1.285  0.00  0.00    +0.171 A 
ATOM     20  N   UNL     1       3.429  -0.316  -2.253  0.00  0.00    -0.302 N 
ATOM     21  H   UNL     1       3.166  -0.808  -3.046  0.00  0.00    +0.171 HD
ATOM     22  C   UNL     1       4.706   0.098  -2.111  0.00  0.00    +0.254 A 
ATOM     23  O   UNL     1       5.536  -0.141  -2.974  0.00  0.00    -0.268 OA
ATOM     24  C   UNL     1       5.062   0.807  -0.960  0.00  0.00    +0.113 A 
ATOM     25  C   UNL     1       4.088   1.059  -0.004  0.00  0.00    +0.124 A 
ATOM     26  N   UNL     1       2.837   0.629  -0.200  0.00  0.00    -0.209 NA
BRANCH  25  27
ATOM     27  N   UNL     1       4.409   1.756   1.144  0.00  0.00    -0.343 N 
ATOM     28  H   UNL     1       5.316   2.071   1.283  0.00  0.00    +0.144 HD
ATOM     29  H   UNL     1       3.727   1.931   1.812  0.00  0.00    +0.144 HD
ENDBRANCH  25  27
ENDBRANCH  18  19
ENDBRANCH  17  18
ENDBRANCH   1  17
TORSDOF 6
