REMARK  Name = ZINC33127942
REMARK  7 active torsions:
REMARK  status: ('A' for Active; 'I' for Inactive)
REMARK    1  A    between atoms: C_1  and  C_2
REMARK    2  A    between atoms: C_6  and  N_9
REMARK    3  A    between atoms: C_7  and  C_8
REMARK    4  A    between atoms: N_12  and  C_13
REMARK    5  A    between atoms: C_13  and  C_15
REMARK    6  A    between atoms: C_13  and  C_22
REMARK    7  A    between atoms: C_15  and  C_16
REMARK                            x       y       z     vdW  Elec       q    Type
REMARK                         _______ _______ _______ _____ _____    ______ ____
ROOT
ATOM      1  C   UNL     1      -0.428  -2.901  -0.004  0.00  0.00    +0.165 C 
ENDROOT
BRANCH   1   2
ATOM      2  C   UNL     1      -1.645  -2.013   0.024  0.00  0.00    +0.240 C 
ATOM      3  O   UNL     1      -2.722  -2.471   0.342  0.00  0.00    -0.273 OA
ATOM      4  N   UNL     1      -1.537  -0.710  -0.303  0.00  0.00    -0.269 N 
ATOM      5  C   UNL     1      -0.279  -0.022  -0.606  0.00  0.00    +0.118 C 
ATOM      6  C   UNL     1      -0.679   1.429  -0.920  0.00  0.00    +0.056 C 
ATOM      7  C   UNL     1      -2.182   1.454  -0.757  0.00  0.00    -0.024 A 
ATOM      8  C   UNL     1      -2.608   0.183  -0.403  0.00  0.00    +0.040 A 
ATOM      9  C   UNL     1      -3.970  -0.043  -0.201  0.00  0.00    +0.024 A 
ATOM     10  C   UNL     1      -4.876   0.986  -0.352  0.00  0.00    +0.002 A 
ATOM     11  C   UNL     1      -4.441   2.250  -0.705  0.00  0.00    +0.000 A 
ATOM     12  C   UNL     1      -3.093   2.481  -0.908  0.00  0.00    +0.005 A 
ENDBRANCH   1   2
BRANCH   1  16
ATOM     13  N   UNL     1      -0.390  -6.490  -0.802  0.00  0.00    -0.269 N 
ATOM     14  C   UNL     1      -0.006  -5.204  -0.678  0.00  0.00    +0.304 C 
ATOM     15  O   UNL     1       1.099  -4.861  -1.054  0.00  0.00    -0.252 OA
ATOM     16  N   UNL     1      -0.845  -4.299  -0.139  0.00  0.00    -0.288 N 
ATOM     17  H   UNL     1      -1.413  -6.787  -0.529  0.00  0.00    +0.156 HD
ATOM     18  H   UNL     1      -1.845  -4.609   0.201  0.00  0.00    +0.151 HD
BRANCH  13  24
ATOM     19  C   UNL     1       1.160 -11.154  -0.923  0.00  0.00    +0.044 C 
ATOM     20  C   UNL     1       1.288  -9.715  -1.353  0.00  0.00    -0.046 A 
ATOM     21  C   UNL     1       2.298  -9.340  -2.219  0.00  0.00    +0.004 A 
ATOM     22  C   UNL     1       2.418  -8.021  -2.616  0.00  0.00    +0.002 A 
ATOM     23  C   UNL     1       1.528  -7.074  -2.148  0.00  0.00    +0.023 A 
ATOM     24  C   UNL     1       0.513  -7.447  -1.278  0.00  0.00    +0.038 A 
ATOM     25  C   UNL     1       0.398  -8.772  -0.877  0.00  0.00    -0.026 A 
ATOM     26  C   UNL     1      -0.699  -9.181   0.071  0.00  0.00    +0.046 C 
ENDBRANCH  13  24
ENDBRANCH   1  16
BRANCH   1  27
ATOM     27  C   UNL     1       0.361  -2.727   1.296  0.00  0.00    +0.067 C 
BRANCH  27  28
ATOM     28  C   UNL     1       1.657  -3.491   1.203  0.00  0.00    -0.045 A 
ATOM     29  C   UNL     1       1.750  -4.761   1.742  0.00  0.00    +0.004 A 
ATOM     30  C   UNL     1       2.938  -5.463   1.653  0.00  0.00    +0.000 A 
ATOM     31  C   UNL     1       4.034  -4.891   1.035  0.00  0.00    +0.000 A 
ATOM     32  C   UNL     1       3.942  -3.620   0.501  0.00  0.00    +0.000 A 
ATOM     33  C   UNL     1       2.753  -2.920   0.585  0.00  0.00    +0.004 A 
ENDBRANCH  27  28
ENDBRANCH   1  27
TORSDOF 5
