REMARK  Name = ZINC00184433
REMARK  3 active torsions:
REMARK  status: ('A' for Active; 'I' for Inactive)
REMARK    1  A    between atoms: C_3  and  C_6
REMARK    2  A    between atoms: C_9  and  C_21
REMARK    3  A    between atoms: C_14  and  C_16
REMARK                            x       y       z     vdW  Elec       q    Type
REMARK                         _______ _______ _______ _____ _____    ______ ____
ROOT
ATOM      1  C   UNL     1       3.599   0.625  -0.029  0.00  0.00    +0.140 C 
ATOM      2  C   UNL     1       4.121   0.346   1.384  0.00  0.00    +0.066 C 
ATOM      3  C   UNL     1       3.525  -0.964   1.912  0.00  0.00    +0.215 C 
ATOM      4  N   UNL     1       3.711  -2.011   0.903  0.00  0.00    -0.237 N 
ATOM      5  C   UNL     1       3.963  -1.756  -0.416  0.00  0.00    +0.137 A 
ATOM      6  C   UNL     1       4.081  -2.936  -1.056  0.00  0.00    +0.112 A 
ATOM      7  C   UNL     1       3.894  -3.961  -0.101  0.00  0.00    +0.167 A 
ATOM      8  N   UNL     1       3.672  -3.394   1.073  0.00  0.00    -0.163 NA
ATOM      9 CL   UNL     1       4.404  -3.157  -2.748  0.00  0.00    -0.078 Cl
ATOM     10  N   UNL     1       4.061  -0.453  -0.926  0.00  0.00    -0.318 N 
ATOM     11  H   UNL     1       4.412  -0.269  -1.812  0.00  0.00    +0.148 HD
ENDROOT
BRANCH   1  14
ATOM     12  C   UNL     1      -0.016   1.341   0.009  0.00  0.00    +0.041 A 
ATOM     13  C   UNL     1       1.331   1.769  -0.001  0.00  0.00    +0.046 A 
ATOM     14  C   UNL     1       2.092   0.660  -0.014  0.00  0.00    +0.125 A 
ATOM     15  O   UNL     1       1.282  -0.411  -0.012  0.00  0.00    -0.466 OA
ATOM     16  C   UNL     1       0.002  -0.004   0.002  0.00  0.00    +0.195 A 
ENDBRANCH   1  14
BRANCH   7  17
ATOM     17  C   UNL     1       3.938  -5.413  -0.367  0.00  0.00    +0.263 C 
ATOM     18  O   UNL     1       4.151  -5.818  -1.494  0.00  0.00    -0.269 OA
ATOM     19  N   UNL     1       3.742  -6.289   0.638  0.00  0.00    -0.324 N 
ATOM     20  H   UNL     1       3.572  -5.965   1.537  0.00  0.00    +0.145 HD
ATOM     21  H   UNL     1       3.771  -7.242   0.463  0.00  0.00    +0.145 HD
ENDBRANCH   7  17
BRANCH   3  22
ATOM     22  C   UNL     1       4.236  -1.365   3.207  0.00  0.00    +0.412 C 
ATOM     23  F   UNL     1       4.066  -0.358   4.163  0.00  0.00    -0.168 F 
ATOM     24  F   UNL     1       3.690  -2.561   3.687  0.00  0.00    -0.168 F 
ATOM     25  F   UNL     1       5.600  -1.544   2.954  0.00  0.00    -0.168 F 
ENDBRANCH   3  22
TORSDOF 3
