REMARK  Name = ZINC20209655
REMARK  4 active torsions:
REMARK  status: ('A' for Active; 'I' for Inactive)
REMARK    1  A    between atoms: C_11  and  C_23
REMARK    2  A    between atoms: C_16  and  C_18
REMARK    3  A    between atoms: C_18  and  N_19
REMARK    4  A    between atoms: C_27  and  C_29
REMARK                            x       y       z     vdW  Elec       q    Type
REMARK                         _______ _______ _______ _____ _____    ______ ____
ROOT
ATOM      1  C   UNL     1      -0.752   0.666   0.258  0.00  0.00    +0.001 A 
ATOM      2  C   UNL     1       0.324  -0.209   0.335  0.00  0.00    +0.002 A 
ATOM      3  C   UNL     1       1.617   0.266   0.314  0.00  0.00    +0.026 A 
ATOM      4  C   UNL     1       1.850   1.633   0.215  0.00  0.00    +0.047 A 
ATOM      5  C   UNL     1       0.757   2.517   0.138  0.00  0.00    +0.003 A 
ATOM      6  C   UNL     1      -0.546   2.013   0.161  0.00  0.00    +0.010 A 
ATOM      7  C   UNL     1       1.330   3.856   0.042  0.00  0.00    -0.015 A 
ATOM      8  C   UNL     1       2.670   3.719   0.069  0.00  0.00    +0.046 A 
ATOM      9  N   UNL     1       2.996   2.397   0.171  0.00  0.00    -0.356 N 
ATOM     10  H   UNL     1       3.983   1.912   0.218  0.00  0.00    +0.166 HD
ATOM     11  C   UNL     1       3.629   4.887   0.000  0.00  0.00    +0.153 C 
ATOM     12  N   UNL     1       2.846   6.078  -0.374  0.00  0.00    -0.287 N 
ATOM     13  C   UNL     1       1.557   6.306   0.297  0.00  0.00    +0.113 C 
ATOM     14  C   UNL     1       0.597   5.167  -0.070  0.00  0.00    +0.056 C 
ATOM     15  C   UNL     1       3.300   6.938  -1.307  0.00  0.00    +0.234 C 
ATOM     16  O   UNL     1       4.365   6.736  -1.851  0.00  0.00    -0.274 OA
ENDROOT
BRANCH  11  17
ATOM     17  C   UNL     1       4.274   5.101   1.345  0.00  0.00    -0.021 A 
ATOM     18  C   UNL     1       3.489   5.268   2.470  0.00  0.00    +0.006 A 
ATOM     19  C   UNL     1       4.081   5.464   3.704  0.00  0.00    +0.001 A 
ATOM     20  C   UNL     1       5.459   5.491   3.812  0.00  0.00    +0.012 A 
ATOM     21  C   UNL     1       6.244   5.322   2.688  0.00  0.00    +0.055 A 
ATOM     22  C   UNL     1       5.652   5.123   1.454  0.00  0.00    +0.018 A 
BRANCH  21  23
ATOM     23  C   UNL     1       7.746   5.352   2.806  0.00  0.00    +0.417 C 
ATOM     24  F   UNL     1       8.104   5.562   4.142  0.00  0.00    -0.166 F 
ATOM     25  F   UNL     1       8.273   4.133   2.368  0.00  0.00    -0.166 F 
ATOM     26  F   UNL     1       8.256   6.390   2.019  0.00  0.00    -0.166 F 
ENDBRANCH  21  23
ENDBRANCH  11  17
BRANCH  15  27
ATOM     27  C   UNL     1       2.484   8.150  -1.675  0.00  0.00    +0.201 C 
BRANCH  27  28
ATOM     28  N   UNL     1       3.189   8.919  -2.704  0.00  0.00    -0.291 N 
ATOM     29  C   UNL     1       2.644  10.052  -3.190  0.00  0.00    +0.297 C 
ATOM     30  O   UNL     1       1.569  10.436  -2.774  0.00  0.00    -0.253 OA
ATOM     31  N   UNL     1       3.293  10.759  -4.137  0.00  0.00    -0.313 N 
ATOM     32  H   UNL     1       4.162   8.571  -3.080  0.00  0.00    +0.151 HD
ATOM     33  H   UNL     1       2.848  11.684  -4.533  0.00  0.00    +0.146 HD
ATOM     34  H   UNL     1       4.266  10.412  -4.513  0.00  0.00    +0.146 HD
ENDBRANCH  27  28
ENDBRANCH  15  27
TORSDOF 4
