REMARK  Name = ZINC45889663
REMARK  6 active torsions:
REMARK  status: ('A' for Active; 'I' for Inactive)
REMARK    1  A    between atoms: C_3  and  O_28
REMARK    2  A    between atoms: C_6  and  C_7
REMARK    3  A    between atoms: C_7  and  N_8
REMARK    4  A    between atoms: C_9  and  C_11
REMARK    5  A    between atoms: N_16  and  S_18
REMARK    6  A    between atoms: S_18  and  C_21
REMARK                            x       y       z     vdW  Elec       q    Type
REMARK                         _______ _______ _______ _____ _____    ______ ____
ROOT
ATOM      1  C   UNL     1      -3.314  -1.941  -3.024  0.00  0.00    +0.091 C 
ATOM      2  C   UNL     1      -2.246  -2.752  -3.761  0.00  0.00    +0.015 C 
ATOM      3  C   UNL     1      -2.683  -2.977  -5.210  0.00  0.00    +0.018 C 
ATOM      4  C   UNL     1      -3.991  -3.774  -5.227  0.00  0.00    +0.109 C 
ATOM      5  N   UNL     1      -4.982  -3.072  -4.400  0.00  0.00    -0.176 NA
ATOM      6  C   UNL     1      -4.630  -2.725  -3.016  0.00  0.00    +0.122 C 
ENDROOT
BRANCH   1   8
ATOM      7  N   UNL     1      -1.727  -1.016  -1.368  0.00  0.00    -0.311 N 
ATOM      8  C   UNL     1      -2.868  -1.692  -1.606  0.00  0.00    +0.218 C 
ATOM      9  O   UNL     1      -3.537  -2.099  -0.680  0.00  0.00    -0.275 OA
ATOM     10  H   UNL     1      -1.192  -0.690  -2.108  0.00  0.00    +0.149 HD
BRANCH   7  11
ATOM     11  C   UNL     1      -1.293  -0.774   0.011  0.00  0.00    +0.139 C 
BRANCH  11  17
ATOM     12  C   UNL     1      -0.017   1.378   0.010  0.00  0.00    +0.009 A 
ATOM     13  C   UNL     1       1.169   2.087   0.002  0.00  0.00    +0.046 A 
ATOM     14  C   UNL     1       2.380   1.409  -0.013  0.00  0.00    +0.117 A 
ATOM     15  C   UNL     1       2.396   0.022  -0.021  0.00  0.00    +0.046 A 
ATOM     16  C   UNL     1       1.207  -0.681  -0.013  0.00  0.00    +0.009 A 
ATOM     17  C   UNL     1       0.002  -0.004   0.002  0.00  0.00    -0.030 A 
BRANCH  14  18
ATOM     18  O   UNL     1       3.548   2.104  -0.021  0.00  0.00    -0.507 OA
ATOM     19  H   UNL     1       3.895   2.300   0.860  0.00  0.00    +0.292 HD
ENDBRANCH  14  18
ENDBRANCH  11  17
ENDBRANCH   7  11
ENDBRANCH   1   8
BRANCH   5  20
ATOM     20  S   UNL     1      -6.468  -2.679  -5.015  0.00  0.00    +0.061 S 
ATOM     21  O   UNL     1      -6.949  -1.583  -4.250  0.00  0.00    -0.153 OA
ATOM     22  O   UNL     1      -6.319  -2.615  -6.427  0.00  0.00    -0.153 OA
BRANCH  20  23
ATOM     23  C   UNL     1      -7.545  -4.035  -4.684  0.00  0.00    +0.106 A 
ATOM     24  C   UNL     1      -7.660  -5.065  -5.598  0.00  0.00    +0.029 A 
ATOM     25  C   UNL     1      -8.503  -6.129  -5.338  0.00  0.00    +0.017 A 
ATOM     26  C   UNL     1      -9.232  -6.162  -4.163  0.00  0.00    +0.018 A 
ATOM     27  C   UNL     1      -9.117  -5.130  -3.248  0.00  0.00    +0.017 A 
ATOM     28  C   UNL     1      -8.269  -4.070  -3.507  0.00  0.00    +0.029 A 
ATOM     29 BR   UNL     1     -10.387  -7.616  -3.807  0.00  0.00    -0.050 Br
ENDBRANCH  20  23
ENDBRANCH   5  20
TORSDOF 6
