REMARK  Name = ZINC34516379
REMARK  6 active torsions:
REMARK  status: ('A' for Active; 'I' for Inactive)
REMARK    1  A    between atoms: C_1  and  C_2
REMARK    2  A    between atoms: C_3  and  C_21
REMARK    3  A    between atoms: C_4  and  O_20
REMARK    4  A    between atoms: C_5  and  C_19
REMARK    5  A    between atoms: N_11  and  C_12
REMARK    6  A    between atoms: C_12  and  C_13
REMARK                            x       y       z     vdW  Elec       q    Type
REMARK                         _______ _______ _______ _____ _____    ______ ____
ROOT
ATOM      1  C   UNL     1       0.439   1.472  -0.054  0.00  0.00    +0.046 C 
ATOM      2  C   UNL     1       0.222  -0.019  -0.029  0.00  0.00    -0.018 A 
ATOM      3  C   UNL     1      -0.098  -0.676  -1.189  0.00  0.00    -0.004 A 
ATOM      4  C   UNL     1      -0.307  -2.051  -1.209  0.00  0.00    +0.124 A 
ATOM      5  C   UNL     1      -0.187  -2.772  -0.029  0.00  0.00    +0.007 A 
ATOM      6  C   UNL     1       0.134  -2.117   1.133  0.00  0.00    +0.047 A 
ATOM      7  C   UNL     1       0.357  -0.723   1.189  0.00  0.00    +0.084 A 
ATOM      8  N   UNL     1       0.670  -0.228   2.408  0.00  0.00    -0.225 NA
ATOM      9  C   UNL     1       0.766  -0.989   3.474  0.00  0.00    +0.159 A 
ATOM     10  S   UNL     1       0.386  -2.609   2.822  0.00  0.00    -0.052 S 
ATOM     11  N   UNL     1       1.075  -0.627   4.770  0.00  0.00    -0.319 N 
ATOM     12  C   UNL     1      -0.408  -4.262  -0.025  0.00  0.00    +0.049 C 
ATOM     13  C   UNL     1      -0.228   0.108  -2.469  0.00  0.00    +0.048 C 
ATOM     14  H   UNL     1       1.256   0.301   4.985  0.00  0.00    +0.148 HD
ENDROOT
BRANCH   4  15
ATOM     15  O   UNL     1      -0.624  -2.682  -2.371  0.00  0.00    -0.506 OA
ATOM     16  H   UNL     1       0.142  -2.992  -2.873  0.00  0.00    +0.292 HD
ENDBRANCH   4  15
BRANCH  11  17
ATOM     17  C   UNL     1       1.130  -1.647   5.821  0.00  0.00    +0.138 C 
BRANCH  17  18
ATOM     18  C   UNL     1       1.485  -0.996   7.134  0.00  0.00    -0.027 A 
ATOM     19  C   UNL     1       2.809  -0.857   7.521  0.00  0.00    +0.025 A 
ATOM     20  C   UNL     1       3.096  -0.256   8.732  0.00  0.00    +0.111 A 
ATOM     21  N   UNL     1       2.129   0.183   9.514  0.00  0.00    -0.263 NA
ATOM     22  C   UNL     1       0.859   0.067   9.177  0.00  0.00    +0.111 A 
ATOM     23  C   UNL     1       0.496  -0.518   7.979  0.00  0.00    +0.025 A 
ENDBRANCH  17  18
ENDBRANCH  11  17
TORSDOF 3
