REMARK  Name = ZINC01579923
REMARK  5 active torsions:
REMARK  status: ('A' for Active; 'I' for Inactive)
REMARK    1  A    between atoms: C_3  and  C_9
REMARK    2  A    between atoms: C_4  and  O_8
REMARK    3  A    between atoms: C_5  and  O_7
REMARK    4  A    between atoms: N_13  and  C_17
REMARK    5  A    between atoms: C_17  and  C_18
REMARK                            x       y       z     vdW  Elec       q    Type
REMARK                         _______ _______ _______ _____ _____    ______ ____
ROOT
ATOM      1  C   UNL     1       3.286  -0.956  -4.278  0.00  0.00    +0.032 C 
ATOM      2  C   UNL     1       3.422   0.056  -3.384  0.00  0.00    +0.077 C 
ATOM      3  C   UNL     1       3.336   0.028  -1.910  0.00  0.00    +0.259 C 
ATOM      4  O   UNL     1       3.114  -1.003  -1.302  0.00  0.00    -0.269 OA
ATOM      5  N   UNL     1       3.509   1.180  -1.284  0.00  0.00    -0.248 N 
ATOM      6  C   UNL     1       3.760   2.319  -1.962  0.00  0.00    +0.121 C 
ATOM      7  S   UNL     1       4.016   3.893  -1.338  0.00  0.00    -0.027 S 
ATOM      8  S   UNL     1       3.761   1.788  -3.667  0.00  0.00    -0.061 S 
ENDROOT
BRANCH   1  11
ATOM      9  C   UNL     1       1.401  -3.642  -2.466  0.00  0.00    +0.004 A 
ATOM     10  C   UNL     1       1.816  -2.396  -2.882  0.00  0.00    +0.012 A 
ATOM     11  C   UNL     1       2.845  -2.281  -3.825  0.00  0.00    +0.021 A 
ATOM     12  C   UNL     1       3.455  -3.439  -4.331  0.00  0.00    +0.166 A 
ATOM     13  C   UNL     1       3.028  -4.688  -3.894  0.00  0.00    +0.159 A 
ATOM     14  C   UNL     1       2.004  -4.784  -2.965  0.00  0.00    +0.049 A 
BRANCH  13  15
ATOM     15  O   UNL     1       3.614  -5.815  -4.380  0.00  0.00    -0.503 OA
ATOM     16  H   UNL     1       4.376  -6.114  -3.865  0.00  0.00    +0.292 HD
ENDBRANCH  13  15
BRANCH  12  17
ATOM     17  O   UNL     1       4.458  -3.341  -5.241  0.00  0.00    -0.503 OA
ATOM     18  H   UNL     1       5.340  -3.286  -4.850  0.00  0.00    +0.292 HD
ENDBRANCH  12  17
ENDBRANCH   1  11
BRANCH   5  19
ATOM     19  C   UNL     1       3.432   1.219   0.178  0.00  0.00    +0.189 C 
BRANCH  19  20
ATOM     20  C   UNL     1       2.010   1.492   0.599  0.00  0.00    +0.122 A 
ATOM     21  C   UNL     1       1.068   0.562   0.836  0.00  0.00    +0.046 A 
ATOM     22  C   UNL     1      -0.111   1.255   1.195  0.00  0.00    +0.041 A 
ATOM     23  C   UNL     1       0.184   2.567   1.165  0.00  0.00    +0.195 A 
ATOM     24  O   UNL     1       1.470   2.705   0.799  0.00  0.00    -0.466 OA
ENDBRANCH  19  20
ENDBRANCH   5  19
TORSDOF 5
