REMARK  Name = ZINC48949522
REMARK  4 active torsions:
REMARK  status: ('A' for Active; 'I' for Inactive)
REMARK    1  A    between atoms: C_1  and  N_2
REMARK    2  A    between atoms: N_5  and  N_6
REMARK    3  A    between atoms: C_7  and  C_9
REMARK    4  A    between atoms: C_10  and  C_11
REMARK                            x       y       z     vdW  Elec       q    Type
REMARK                         _______ _______ _______ _____ _____    ______ ____
ROOT
ATOM      1  N   UNL     1       0.104  -2.783   0.717  0.00  0.00    -0.230 N 
ATOM      2  C   UNL     1       0.156  -4.128   0.662  0.00  0.00    +0.253 C 
ATOM      3  O   UNL     1      -0.821  -4.788   0.964  0.00  0.00    -0.269 OA
ATOM      4  H   UNL     1       0.882  -2.257   0.477  0.00  0.00    +0.173 HD
ENDROOT
BRANCH   1   9
ATOM      5  C   UNL     1      -0.102   1.395   0.902  0.00  0.00    +0.129 C 
ATOM      6  N   UNL     1      -0.046  -0.067   0.843  0.00  0.00    -0.301 N 
ATOM      7  C   UNL     1      -1.128  -0.798   1.177  0.00  0.00    +0.316 C 
ATOM      8  O   UNL     1      -2.151  -0.243   1.528  0.00  0.00    -0.251 OA
ATOM      9  N   UNL     1      -1.076  -2.144   1.122  0.00  0.00    -0.218 N 
ATOM     10  H   UNL     1       0.771  -0.510   0.563  0.00  0.00    +0.150 HD
ATOM     11  H   UNL     1      -1.854  -2.670   1.362  0.00  0.00    +0.174 HD
ENDBRANCH   1   9
BRANCH   2  12
ATOM     12  C   UNL     1       1.388  -4.796   0.240  0.00  0.00    +0.069 C 
ATOM     13  C   UNL     1       1.402  -6.133   0.058  0.00  0.00    +0.014 C 
BRANCH  13  14
ATOM     14  C   UNL     1       0.141  -6.890   0.066  0.00  0.00    -0.011 A 
ATOM     15  C   UNL     1      -0.946  -6.453  -0.699  0.00  0.00    +0.009 A 
ATOM     16  C   UNL     1      -2.125  -7.168  -0.686  0.00  0.00    +0.001 A 
ATOM     17  C   UNL     1      -2.236  -8.315   0.081  0.00  0.00    +0.001 A 
ATOM     18  C   UNL     1      -1.166  -8.754   0.841  0.00  0.00    +0.016 A 
ATOM     19  C   UNL     1       0.024  -8.053   0.834  0.00  0.00    +0.025 A 
ATOM     20 BR   UNL     1       1.488  -8.660   1.865  0.00  0.00    -0.050 Br
ENDBRANCH  13  14
ENDBRANCH   2  12
TORSDOF 3
