REMARK  Name = ZINC61574851
REMARK  2 active torsions:
REMARK  status: ('A' for Active; 'I' for Inactive)
REMARK    1  A    between atoms: C_5  and  N_7
REMARK    2  A    between atoms: N_10  and  C_13
REMARK                            x       y       z     vdW  Elec       q    Type
REMARK                         _______ _______ _______ _____ _____    ______ ____
ROOT
ATOM      1  C   UNL     1      -0.017   1.373   0.010  0.00  0.00    +0.003 A 
ATOM      2  C   UNL     1       1.169   2.097   0.002  0.00  0.00    +0.014 A 
ATOM      3  C   UNL     1       2.383   1.433  -0.013  0.00  0.00    +0.051 A 
ATOM      4  C   UNL     1       2.412   0.022  -0.021  0.00  0.00    +0.070 A 
ATOM      5  C   UNL     1       1.217  -0.694  -0.013  0.00  0.00    +0.038 A 
ATOM      6  C   UNL     1       0.002  -0.004   0.002  0.00  0.00    +0.023 A 
ATOM      7  C   UNL     1       3.836  -0.353  -0.036  0.00  0.00    +0.256 C 
ATOM      8  O   UNL     1       4.270  -1.488  -0.047  0.00  0.00    -0.269 OA
ATOM      9  N   UNL     1       4.577   0.770  -0.037  0.00  0.00    -0.230 N 
ATOM     10  C   UNL     1       3.796   1.865  -0.024  0.00  0.00    +0.254 C 
ATOM     11  O   UNL     1       4.186   3.016  -0.021  0.00  0.00    -0.270 OA
ENDROOT
BRANCH   9  12
ATOM     12  C   UNL     1       6.042   0.797  -0.051  0.00  0.00    +0.095 C 
ATOM     13  C   UNL     1       6.524   1.528  -1.301  0.00  0.00    +0.024 C 
ATOM     14  C   UNL     1       8.024   1.334  -1.497  0.00  0.00    +0.012 C 
ATOM     15  C   UNL     1       8.796   2.125  -0.437  0.00  0.00    +0.069 C 
ATOM     16  S   UNL     1       8.367   1.470   1.204  0.00  0.00    -0.159 S 
ATOM     17  C   UNL     1       6.549   1.518   1.201  0.00  0.00    +0.092 C 
ENDBRANCH   9  12
BRANCH   5  18
ATOM     18  N   UNL     1       1.233  -2.081  -0.021  0.00  0.00    -0.357 N 
ATOM     19  H   UNL     1       2.078  -2.556  -0.032  0.00  0.00    +0.142 HD
ATOM     20  H   UNL     1       0.398  -2.575  -0.015  0.00  0.00    +0.142 HD
ENDBRANCH   5  18
TORSDOF 2
