REMARK  Name = ZINC55401876
REMARK  6 active torsions:
REMARK  status: ('A' for Active; 'I' for Inactive)
REMARK    1  A    between atoms: C_1  and  C_2
REMARK    2  A    between atoms: C_2  and  C_3
REMARK    3  A    between atoms: C_4  and  C_24
REMARK    4  A    between atoms: C_6  and  C_8
REMARK    5  A    between atoms: C_19  and  C_21
REMARK    6  A    between atoms: C_24  and  N_25
REMARK                            x       y       z     vdW  Elec       q    Type
REMARK                         _______ _______ _______ _____ _____    ______ ____
ROOT
ATOM      1  C   UNL     1       0.720  -0.492  -5.315  0.00  0.00    +0.283 C 
ATOM      2  O   UNL     1       1.668  -0.871  -5.976  0.00  0.00    -0.267 OA
ATOM      3  N   UNL     1      -0.508  -0.998  -5.546  0.00  0.00    -0.275 N 
ATOM      4  C   UNL     1      -1.684  -0.490  -4.817  0.00  0.00    +0.164 C 
ATOM      5  C   UNL     1      -2.497  -1.687  -4.386  0.00  0.00    +0.054 A 
ATOM      6  C   UNL     1      -2.276  -2.943  -4.831  0.00  0.00    +0.040 A 
ATOM      7  N   UNL     1      -3.199  -3.745  -4.231  0.00  0.00    -0.349 N 
ATOM      8  C   UNL     1      -3.953  -2.954  -3.434  0.00  0.00    +0.171 A 
ATOM      9  N   UNL     1      -3.524  -1.724  -3.534  0.00  0.00    -0.348 N 
ATOM     10  H   UNL     1      -3.296  -4.703  -4.353  0.00  0.00    +0.166 HD
ATOM     11  C   UNL     1      -1.197  -3.332  -5.808  0.00  0.00    +0.089 C 
ATOM     12  C   UNL     1      -0.708  -2.067  -6.536  0.00  0.00    +0.195 C 
ATOM     13  H   UNL     1      -3.892  -0.959  -3.064  0.00  0.00    +0.166 HD
ENDROOT
BRANCH   1  17
ATOM     14  C   UNL     1       0.481   1.980  -2.691  0.00  0.00    +0.107 A 
ATOM     15  C   UNL     1       1.825   1.948  -2.835  0.00  0.00    -0.022 A 
ATOM     16  C   UNL     1       2.110   1.013  -3.842  0.00  0.00    +0.056 A 
ATOM     17  C   UNL     1       0.911   0.517  -4.268  0.00  0.00    +0.190 A 
ATOM     18  O   UNL     1      -0.065   1.113  -3.553  0.00  0.00    -0.455 OA
BRANCH  14  20
ATOM     19  C   UNL     1      -0.620   4.180  -2.381  0.00  0.00    +0.012 C 
ATOM     20  C   UNL     1      -0.276   2.845  -1.717  0.00  0.00    +0.071 C 
ENDBRANCH  14  20
BRANCH  15  21
ATOM     21  C   UNL     1       2.828   2.763  -2.059  0.00  0.00    -0.040 C 
BRANCH  21  22
ATOM     22  N   UNL     1       3.051   2.143  -0.746  0.00  0.00    +0.382 N 
ATOM     23  C   UNL     1       3.762   0.849  -0.905  0.00  0.00    -0.078 C 
ATOM     24  C   UNL     1       4.402   0.623   0.488  0.00  0.00    -0.020 C 
ATOM     25  C   UNL     1       4.825   2.049   0.909  0.00  0.00    -0.020 C 
ATOM     26  C   UNL     1       3.941   2.994   0.074  0.00  0.00    -0.078 C 
ATOM     27  H   UNL     1       2.171   2.002  -0.273  0.00  0.00    -0.081 HD
ENDBRANCH  21  22
ENDBRANCH  15  21
ENDBRANCH   1  17
BRANCH  12  28
ATOM     28  C   UNL     1       0.596  -2.357  -7.235  0.00  0.00    +0.376 C 
ATOM     29  O   UNL     1       1.540  -2.802  -6.605  0.00  0.00    -0.244 OA
ATOM     30  O   UNL     1       0.706  -2.145  -8.431  0.00  0.00    -0.244 OA
ENDBRANCH  12  28
TORSDOF 5
