REMARK  Name = ZINC49096520
REMARK  7 active torsions:
REMARK  status: ('A' for Active; 'I' for Inactive)
REMARK    1  A    between atoms: C_1  and  C_2
REMARK    2  A    between atoms: C_2  and  C_4
REMARK    3  A    between atoms: C_2  and  N_9
REMARK    4  A    between atoms: N_6  and  C_7
REMARK    5  A    between atoms: N_6  and  C_8
REMARK    6  A    between atoms: N_9  and  C_10
REMARK    7  A    between atoms: C_15  and  N_16
REMARK                            x       y       z     vdW  Elec       q    Type
REMARK                         _______ _______ _______ _____ _____    ______ ____
ROOT
ATOM      1  C   UNL     1       2.241  -0.843   0.735  0.00  0.00    +0.051 A 
ATOM      2  C   UNL     1       2.795  -0.352  -0.438  0.00  0.00    +0.051 A 
ATOM      3  C   UNL     1       4.153  -0.492  -0.672  0.00  0.00    +0.078 A 
ATOM      4  C   UNL     1       4.963  -1.125   0.269  0.00  0.00    +0.144 A 
ATOM      5  C   UNL     1       4.412  -1.615   1.440  0.00  0.00    +0.072 A 
ATOM      6  C   UNL     1       3.053  -1.471   1.679  0.00  0.00    +0.049 A 
ATOM      7  O   UNL     1       6.296  -1.257   0.024  0.00  0.00    -0.481 OA
ATOM      8  C   UNL     1       6.685  -1.427  -1.341  0.00  0.00    +0.325 C 
ATOM      9  C   UNL     1       5.967  -0.418  -2.202  0.00  0.00    +0.255 C 
ATOM     10  O   UNL     1       6.498   0.016  -3.202  0.00  0.00    -0.272 OA
ATOM     11  N   UNL     1       4.731   0.000  -1.853  0.00  0.00    -0.280 N 
ATOM     12  H   UNL     1       4.249   0.630  -2.411  0.00  0.00    +0.155 HD
ENDROOT
BRANCH   6  13
ATOM     13  N   UNL     1       2.494  -1.962   2.867  0.00  0.00    -0.356 N 
ATOM     14  H   UNL     1       1.543  -1.865   3.032  0.00  0.00    +0.142 HD
ATOM     15  H   UNL     1       3.058  -2.399   3.524  0.00  0.00    +0.142 HD
ENDBRANCH   6  13
BRANCH   1  16
ATOM     16  N   UNL     1       0.866  -0.703   0.974  0.00  0.00    -0.332 N 
ATOM     17  H   UNL     1       0.480  -1.043   1.797  0.00  0.00    +0.147 HD
BRANCH  16  19
ATOM     18  C   UNL     1       0.057   1.471   0.199  0.00  0.00    +0.038 C 
ATOM     19  C   UNL     1       0.014  -0.043  -0.018  0.00  0.00    +0.154 C 
BRANCH  19  20
ATOM     20  C   UNL     1      -1.404  -0.532   0.134  0.00  0.00    +0.235 C 
ATOM     21  O   UNL     1      -1.732  -1.141   1.130  0.00  0.00    -0.274 OA
ATOM     22  N   UNL     1      -2.307  -0.293  -0.838  0.00  0.00    -0.306 N 
ATOM     23  C   UNL     1      -3.703  -0.698  -0.656  0.00  0.00    +0.131 C 
ATOM     24  C   UNL     1      -1.892   0.373  -2.075  0.00  0.00    +0.131 C 
ENDBRANCH  19  20
ENDBRANCH  16  19
ENDBRANCH   1  16
TORSDOF 4
