REMARK  Name = ZINC04892655
REMARK  10 active torsions:
REMARK  status: ('A' for Active; 'I' for Inactive)
REMARK    1  A    between atoms: C_1  and  C_2
REMARK    2  A    between atoms: N_4  and  C_5
REMARK    3  A    between atoms: C_7  and  O_28
REMARK    4  A    between atoms: C_9  and  O_27
REMARK    5  A    between atoms: C_11  and  C_25
REMARK    6  A    between atoms: C_14  and  O_16
REMARK    7  A    between atoms: O_16  and  C_17
REMARK    8  A    between atoms: C_22  and  O_23
REMARK    9  A    between atoms: O_23  and  C_24
REMARK   10  A    between atoms: C_25  and  O_26
REMARK                            x       y       z     vdW  Elec       q    Type
REMARK                         _______ _______ _______ _____ _____    ______ ____
ROOT
ATOM      1  C   UNL     1       1.147   3.087   0.019  0.00  0.00    +0.173 C 
ATOM      2  C   UNL     1       1.259   1.560  -0.019  0.00  0.00    +0.172 C 
ATOM      3  C   UNL     1       2.023   1.084   1.220  0.00  0.00    +0.176 C 
ATOM      4  C   UNL     1       3.393   1.767   1.260  0.00  0.00    +0.179 C 
ATOM      5  O   UNL     1       3.217   3.185   1.262  0.00  0.00    -0.332 OA
ATOM      6  C   UNL     1       2.550   3.692   0.104  0.00  0.00    +0.331 C 
ENDROOT
BRANCH   1  10
ATOM      7  C   UNL     1      -1.776   4.012   2.311  0.00  0.00    +0.109 C 
ATOM      8  C   UNL     1      -0.974   3.596   1.105  0.00  0.00    +0.210 C 
ATOM      9  O   UNL     1      -1.535   3.355   0.057  0.00  0.00    -0.276 OA
ATOM     10  N   UNL     1       0.367   3.491   1.191  0.00  0.00    -0.304 N 
ATOM     11  H   UNL     1       0.816   3.684   2.029  0.00  0.00    +0.149 HD
ENDBRANCH   1  10
BRANCH   3  12
ATOM     12  O   UNL     1       1.286   1.425   2.396  0.00  0.00    -0.387 OA
ATOM     13  H   UNL     1       1.712   1.153   3.220  0.00  0.00    +0.210 HD
ENDBRANCH   3  12
BRANCH   2  14
ATOM     14  O   UNL     1      -0.049   0.984  -0.025  0.00  0.00    -0.387 OA
ATOM     15  H   UNL     1      -0.053   0.017  -0.042  0.00  0.00    +0.210 HD
ENDBRANCH   2  14
BRANCH   6  16
ATOM     16  O   UNL     1       2.451   5.115   0.197  0.00  0.00    -0.458 OA
BRANCH  16  17
ATOM     17  C   UNL     1       3.605   5.824   0.071  0.00  0.00    +0.165 A 
ATOM     18  C   UNL     1       4.806   5.164  -0.136  0.00  0.00    +0.049 A 
ATOM     19  C   UNL     1       5.978   5.886  -0.263  0.00  0.00    +0.004 A 
ATOM     20  C   UNL     1       5.955   7.266  -0.184  0.00  0.00    +0.004 A 
ATOM     21  C   UNL     1       4.761   7.930   0.022  0.00  0.00    +0.049 A 
ATOM     22  C   UNL     1       3.582   7.213   0.145  0.00  0.00    +0.162 A 
BRANCH  22  23
ATOM     23  O   UNL     1       2.405   7.865   0.343  0.00  0.00    -0.491 OA
ATOM     24  C   UNL     1       2.457   9.292   0.408  0.00  0.00    +0.277 C 
ENDBRANCH  22  23
ENDBRANCH  16  17
ENDBRANCH   6  16
BRANCH   4  25
ATOM     25  C   UNL     1       4.138   1.343   2.527  0.00  0.00    +0.190 C 
BRANCH  25  26
ATOM     26  O   UNL     1       5.460   1.886   2.506  0.00  0.00    -0.392 OA
ATOM     27  H   UNL     1       5.991   1.657   3.281  0.00  0.00    +0.210 HD
ENDBRANCH  25  26
ENDBRANCH   4  25
TORSDOF 8
