REMARK  Name = ZINC49083068
REMARK  3 active torsions:
REMARK  status: ('A' for Active; 'I' for Inactive)
REMARK    1  A    between atoms: C_13  and  C_15
REMARK    2  A    between atoms: C_15  and  N_16
REMARK    3  A    between atoms: N_19  and  C_20
REMARK                            x       y       z     vdW  Elec       q    Type
REMARK                         _______ _______ _______ _____ _____    ______ ____
ROOT
ATOM      1  C   UNL     1      -0.019   1.525   0.010  0.00  0.00    +0.000 C 
ATOM      2  C   UNL     1       1.418   2.053  -0.001  0.00  0.00    +0.000 C 
ATOM      3  C   UNL     1       2.154   1.548   1.242  0.00  0.00    +0.005 C 
ATOM      4  C   UNL     1       2.175   0.018   1.238  0.00  0.00    +0.010 C 
ATOM      5  C   UNL     1       2.903  -0.477   2.492  0.00  0.00    +0.111 C 
ATOM      6  N   UNL     1       2.801  -1.941   2.554  0.00  0.00    -0.300 N 
ATOM      7  C   UNL     1       1.470  -2.559   2.478  0.00  0.00    +0.108 C 
ATOM      8  C   UNL     1       0.760  -2.044   1.223  0.00  0.00    +0.023 C 
ATOM      9  C   UNL     1       0.740  -0.513   1.235  0.00  0.00    -0.005 C 
ATOM     10  C   UNL     1       0.002  -0.004   0.002  0.00  0.00    +0.004 C 
ATOM     11  C   UNL     1       3.906  -2.703   2.677  0.00  0.00    +0.233 C 
ATOM     12  O   UNL     1       4.999  -2.180   2.738  0.00  0.00    -0.274 OA
ENDROOT
BRANCH  11  13
ATOM     13  C   UNL     1       3.784  -4.204   2.739  0.00  0.00    +0.201 C 
BRANCH  13  14
ATOM     14  N   UNL     1       5.117  -4.797   2.872  0.00  0.00    -0.291 N 
ATOM     15  C   UNL     1       5.255  -6.135   2.946  0.00  0.00    +0.300 C 
ATOM     16  O   UNL     1       4.272  -6.851   2.903  0.00  0.00    -0.253 OA
ATOM     17  N   UNL     1       6.481  -6.681   3.069  0.00  0.00    -0.297 N 
ATOM     18  H   UNL     1       5.901  -4.226   2.906  0.00  0.00    +0.151 HD
ATOM     19  H   UNL     1       7.265  -6.110   3.103  0.00  0.00    +0.151 HD
BRANCH  17  20
ATOM     20  C   UNL     1       6.630  -8.136   3.150  0.00  0.00    +0.075 C 
ATOM     21  C   UNL     1       7.604  -8.689   4.193  0.00  0.00    +0.024 C 
ATOM     22  C   UNL     1       7.967  -8.735   2.707  0.00  0.00    +0.024 C 
ENDBRANCH  17  20
ENDBRANCH  13  14
ENDBRANCH  11  13
TORSDOF 3
