REMARK  Name = ZINC35056712
REMARK  6 active torsions:
REMARK  status: ('A' for Active; 'I' for Inactive)
REMARK    1  A    between atoms: C_1  and  C_2
REMARK    2  A    between atoms: N_4  and  C_5
REMARK    3  A    between atoms: C_7  and  O_35
REMARK    4  A    between atoms: C_15  and  C_18
REMARK    5  A    between atoms: C_24  and  O_26
REMARK    6  A    between atoms: O_26  and  C_27
REMARK                            x       y       z     vdW  Elec       q    Type
REMARK                         _______ _______ _______ _____ _____    ______ ____
ROOT
ATOM      1  C   UNL     1       0.020  -2.136  -1.177  0.00  0.00    +0.173 C 
ATOM      2  C   UNL     1      -0.702  -2.652  -2.425  0.00  0.00    +0.172 C 
ATOM      3  C   UNL     1       0.049  -2.184  -3.672  0.00  0.00    +0.183 C 
ATOM      4  C   UNL     1       1.506  -2.653  -3.602  0.00  0.00    +0.179 C 
ATOM      5  C   UNL     1       2.265  -2.071  -4.801  0.00  0.00    +0.197 C 
ATOM      6  O   UNL     1       2.101  -0.649  -4.804  0.00  0.00    -0.342 OA
ATOM      7  C   UNL     1       0.737  -0.225  -4.864  0.00  0.00    +0.319 C 
ATOM      8  O   UNL     1       0.021  -0.757  -3.746  0.00  0.00    -0.336 OA
ATOM      9  O   UNL     1       2.098  -2.188  -2.387  0.00  0.00    -0.332 OA
ATOM     10  C   UNL     1       1.470  -2.629  -1.198  0.00  0.00    +0.331 C 
ENDROOT
BRANCH   1  14
ATOM     11  C   UNL     1      -1.035   1.492  -0.564  0.00  0.00    +0.109 C 
ATOM     12  C   UNL     1      -1.014  -0.015  -0.572  0.00  0.00    +0.210 C 
ATOM     13  O   UNL     1      -1.911  -0.636  -0.042  0.00  0.00    -0.276 OA
ATOM     14  N   UNL     1       0.000  -0.672  -1.169  0.00  0.00    -0.304 N 
ATOM     15  H   UNL     1       0.717  -0.174  -1.593  0.00  0.00    +0.149 HD
ENDBRANCH   1  14
BRANCH   7  16
ATOM     16  C   UNL     1       0.677   1.281  -4.828  0.00  0.00    +0.161 A 
ATOM     17  C   UNL     1       1.235   2.112  -5.726  0.00  0.00    +0.050 A 
ATOM     18  C   UNL     1       0.934   3.429  -5.308  0.00  0.00    +0.041 A 
ATOM     19  C   UNL     1       0.211   3.323  -4.179  0.00  0.00    +0.195 A 
ATOM     20  O   UNL     1       0.053   2.020  -3.896  0.00  0.00    -0.463 OA
ENDBRANCH   7  16
BRANCH   2  21
ATOM     21  O   UNL     1      -2.036  -2.140  -2.450  0.00  0.00    -0.387 OA
ATOM     22  H   UNL     1      -2.570  -2.396  -1.686  0.00  0.00    +0.210 HD
ENDBRANCH   2  21
BRANCH  10  23
ATOM     23  O   UNL     1       1.488  -4.058  -1.165  0.00  0.00    -0.460 OA
BRANCH  23  24
ATOM     24  C   UNL     1       2.694  -4.654  -0.968  0.00  0.00    +0.142 A 
ATOM     25  C   UNL     1       3.833  -3.881  -0.804  0.00  0.00    +0.049 A 
ATOM     26  C   UNL     1       5.058  -4.489  -0.604  0.00  0.00    +0.023 A 
ATOM     27  C   UNL     1       5.148  -5.869  -0.567  0.00  0.00    +0.043 A 
ATOM     28  C   UNL     1       4.013  -6.644  -0.729  0.00  0.00    +0.043 A 
ATOM     29  C   UNL     1       2.785  -6.039  -0.924  0.00  0.00    +0.084 A 
ATOM     30 CL   UNL     1       1.360  -7.010  -1.121  0.00  0.00    -0.080 Cl
ATOM     31 CL   UNL     1       6.688  -6.631  -0.316  0.00  0.00    -0.083 Cl
ENDBRANCH  23  24
ENDBRANCH  10  23
TORSDOF 5
