REMARK  Name = ZINC29165097
REMARK  7 active torsions:
REMARK  status: ('A' for Active; 'I' for Inactive)
REMARK    1  A    between atoms: C_1  and  N_2
REMARK    2  A    between atoms: N_2  and  C_3
REMARK    3  A    between atoms: C_3  and  C_4
REMARK    4  A    between atoms: C_4  and  C_5
REMARK    5  A    between atoms: C_5  and  C_6
REMARK    6  A    between atoms: C_7  and  C_13
REMARK    7  A    between atoms: C_8  and  N_12
REMARK                            x       y       z     vdW  Elec       q    Type
REMARK                         _______ _______ _______ _____ _____    ______ ____
ROOT
ATOM      1  C   UNL     1       0.353   2.359  -0.565  0.00  0.00    +0.130 C 
ATOM      2  N   UNL     1      -0.723   1.572  -1.182  0.00  0.00    -0.318 N 
ATOM      3  C   UNL     1      -0.289   0.968  -2.348  0.00  0.00    +0.133 A 
ATOM      4  C   UNL     1      -0.804   1.381  -3.609  0.00  0.00    +0.051 A 
ATOM      5  C   UNL     1      -1.793   2.426  -3.895  0.00  0.00    -0.025 A 
ATOM      6  C   UNL     1      -2.115   2.617  -5.189  0.00  0.00    -0.004 A 
ATOM      7  S   UNL     1      -1.133   1.447  -6.092  0.00  0.00    -0.073 S 
ATOM      8  C   UNL     1      -0.290   0.694  -4.726  0.00  0.00    +0.114 A 
ATOM      9  N   UNL     1       0.608  -0.263  -4.595  0.00  0.00    -0.228 NA
ATOM     10  C   UNL     1       1.049  -0.602  -3.399  0.00  0.00    +0.224 A 
ATOM     11  N   UNL     1       0.614   0.002  -2.307  0.00  0.00    -0.220 NA
ATOM     12  C   UNL     1      -3.095   3.596  -5.758  0.00  0.00    +0.043 C 
ATOM     13  C   UNL     1      -2.827   4.985  -5.164  0.00  0.00    +0.005 C 
ATOM     14  C   UNL     1      -3.650   5.129  -3.888  0.00  0.00    +0.001 C 
ATOM     15  C   UNL     1      -3.777   3.775  -3.193  0.00  0.00    +0.005 C 
ATOM     16  C   UNL     1      -2.406   3.259  -2.772  0.00  0.00    +0.037 C 
ENDROOT
BRANCH   2  17
ATOM     17  C   UNL     1      -1.256   0.578  -0.241  0.00  0.00    +0.106 C 
BRANCH  17  18
ATOM     18  C   UNL     1      -1.948   1.295   0.920  0.00  0.00    +0.025 C 
BRANCH  18  19
ATOM     19  C   UNL     1      -2.503   0.260   1.901  0.00  0.00    +0.060 C 
BRANCH  19  20
ATOM     20  C   UNL     1      -3.185   0.966   3.044  0.00  0.00    +0.082 A 
ATOM     21  C   UNL     1      -4.549   1.336   3.095  0.00  0.00    +0.113 A 
ATOM     22  C   UNL     1      -4.756   1.960   4.322  0.00  0.00    +0.129 A 
ATOM     23  N   UNL     1      -3.574   1.961   4.971  0.00  0.00    -0.263 N 
ATOM     24  H   UNL     1      -3.496   2.411   5.972  0.00  0.00    +0.190 HD
ATOM     25  N   UNL     1      -2.621   1.336   4.160  0.00  0.00    -0.176 NA
BRANCH  22  26
ATOM     26  N   UNL     1      -5.949   2.479   4.787  0.00  0.00    -0.342 N 
ATOM     27  H   UNL     1      -5.993   2.952   5.780  0.00  0.00    +0.144 HD
ATOM     28  H   UNL     1      -6.854   2.421   4.166  0.00  0.00    +0.144 HD
ENDBRANCH  22  26
BRANCH  21  29
ATOM     29  C   UNL     1      -5.531   1.111   2.077  0.00  0.00    +0.104 C 
ATOM     30  N   UNL     1      -6.310   0.933   1.269  0.00  0.00    -0.191 NA
ENDBRANCH  21  29
ENDBRANCH  19  20
ENDBRANCH  18  19
ENDBRANCH  17  18
ENDBRANCH   2  17
TORSDOF 6
