REMARK  Name = ZINC67042521
REMARK  4 active torsions:
REMARK  status: ('A' for Active; 'I' for Inactive)
REMARK    1  A    between atoms: C_6  and  C_7
REMARK    2  A    between atoms: C_7  and  N_8
REMARK    3  A    between atoms: N_11  and  C_12
REMARK    4  A    between atoms: C_12  and  C_13
REMARK                            x       y       z     vdW  Elec       q    Type
REMARK                         _______ _______ _______ _____ _____    ______ ____
ROOT
ATOM      1  N   UNL     1      -1.727  -1.014  -1.368  0.00  0.00    -0.295 N 
ATOM      2  C   UNL     1      -2.869  -1.689  -1.607  0.00  0.00    +0.300 C 
ATOM      3  O   UNL     1      -3.540  -2.097  -0.679  0.00  0.00    -0.253 OA
ATOM      4  N   UNL     1      -3.268  -1.911  -2.876  0.00  0.00    -0.295 N 
ATOM      5  H   UNL     1      -1.192  -0.689  -2.109  0.00  0.00    +0.151 HD
ATOM      6  H   UNL     1      -2.733  -1.586  -3.616  0.00  0.00    +0.151 HD
ENDROOT
BRANCH   1   7
ATOM      7  C   UNL     1      -1.294  -0.773   0.010  0.00  0.00    +0.141 C 
BRANCH   7  13
ATOM      8  C   UNL     1      -0.017   1.378   0.010  0.00  0.00    +0.009 A 
ATOM      9  C   UNL     1       1.170   2.091   0.002  0.00  0.00    +0.050 A 
ATOM     10  C   UNL     1       2.377   1.413  -0.013  0.00  0.00    +0.162 A 
ATOM     11  C   UNL     1       2.396   0.025  -0.020  0.00  0.00    +0.162 A 
ATOM     12  C   UNL     1       1.207  -0.684  -0.013  0.00  0.00    +0.054 A 
ATOM     13  C   UNL     1       0.002  -0.004   0.002  0.00  0.00    -0.027 A 
ATOM     14  O   UNL     1       3.591  -0.632  -0.034  0.00  0.00    -0.488 OA
ATOM     15  C   UNL     1       4.358  -0.510  -1.234  0.00  0.00    +0.232 C 
ATOM     16  C   UNL     1       5.186   0.764  -1.217  0.00  0.00    +0.082 C 
ATOM     17  C   UNL     1       4.323   2.016  -1.220  0.00  0.00    +0.232 C 
ATOM     18  O   UNL     1       3.554   2.104  -0.019  0.00  0.00    -0.488 OA
ENDBRANCH   7  13
ENDBRANCH   1   7
BRANCH   4  19
ATOM     19  C   UNL     1      -4.509  -2.645  -3.135  0.00  0.00    +0.142 C 
BRANCH  19  20
ATOM     20  C   UNL     1      -4.725  -2.756  -4.623  0.00  0.00    -0.012 A 
ATOM     21  C   UNL     1      -5.431  -1.775  -5.304  0.00  0.00    +0.010 A 
ATOM     22  C   UNL     1      -5.606  -1.916  -6.670  0.00  0.00    +0.047 A 
ATOM     23  C   UNL     1      -5.072  -3.029  -7.309  0.00  0.00    +0.139 A 
ATOM     24  N   UNL     1      -4.405  -3.943  -6.624  0.00  0.00    -0.237 NA
ATOM     25  C   UNL     1      -4.217  -3.833  -5.323  0.00  0.00    +0.118 A 
ATOM     26  N   UNL     1      -5.242  -3.184  -8.688  0.00  0.00    -0.290 N 
ATOM     27  C   UNL     1      -4.866  -4.268  -9.439  0.00  0.00    +0.114 A 
ATOM     28  C   UNL     1      -5.216  -4.001 -10.711  0.00  0.00    +0.130 A 
ATOM     29  N   UNL     1      -5.790  -2.789 -10.743  0.00  0.00    -0.244 NA
ATOM     30  C   UNL     1      -5.817  -2.292  -9.537  0.00  0.00    +0.205 A 
ENDBRANCH  19  20
ENDBRANCH   4  19
TORSDOF 4
