REMARK  Name = ZINC36899397
REMARK  1 active torsions:
REMARK  status: ('A' for Active; 'I' for Inactive)
REMARK    1  A    between atoms: C_5  and  N_7
REMARK                            x       y       z     vdW  Elec       q    Type
REMARK                         _______ _______ _______ _____ _____    ______ ____
ROOT
ATOM      1  N   UNL     1       1.237  -2.082  -0.022  0.00  0.00    -0.278 N 
ATOM      2  C   UNL     1       1.256  -2.912   1.090  0.00  0.00    +0.093 A 
ATOM      3  C   UNL     1       1.273  -4.226   0.595  0.00  0.00    +0.093 A 
ATOM      4  C   UNL     1       1.295  -5.298   1.492  0.00  0.00    +0.030 A 
ATOM      5  C   UNL     1       1.298  -5.056   2.848  0.00  0.00    +0.004 A 
ATOM      6  C   UNL     1       1.280  -3.756   3.331  0.00  0.00    +0.022 A 
ATOM      7  C   UNL     1       1.259  -2.686   2.458  0.00  0.00    +0.067 A 
ATOM      8 CL   UNL     1       1.236  -1.062   3.072  0.00  0.00    -0.081 Cl
ATOM      9  N   UNL     1       1.265  -4.144  -0.761  0.00  0.00    -0.214 NA
ATOM     10  C   UNL     1       1.238  -2.887  -1.127  0.00  0.00    +0.199 A 
ATOM     11  N   UNL     1       1.218  -2.442  -2.432  0.00  0.00    -0.329 N 
ATOM     12  H   UNL     1       1.201  -1.490  -2.620  0.00  0.00    +0.145 HD
ATOM     13  H   UNL     1       1.220  -3.080  -3.163  0.00  0.00    +0.145 HD
ENDROOT
BRANCH   1  18
ATOM     14  C   UNL     1      -0.017   1.377   0.010  0.00  0.00    +0.002 A 
ATOM     15  C   UNL     1       1.171   2.086   0.002  0.00  0.00    +0.001 A 
ATOM     16  C   UNL     1       2.380   1.416  -0.013  0.00  0.00    +0.016 A 
ATOM     17  C   UNL     1       2.405   0.034  -0.022  0.00  0.00    +0.037 A 
ATOM     18  C   UNL     1       1.214  -0.680  -0.014  0.00  0.00    +0.063 A 
ATOM     19  C   UNL     1       0.002  -0.004   0.002  0.00  0.00    +0.027 A 
ATOM     20  I   UNL     1       4.238  -0.981  -0.047  0.00  0.00    -0.042 I 
ENDBRANCH   1  18
TORSDOF 1
