REMARK  Name = ZINC55088639
REMARK  5 active torsions:
REMARK  status: ('A' for Active; 'I' for Inactive)
REMARK    1  A    between atoms: C_4  and  N_21
REMARK    2  A    between atoms: C_6  and  C_9
REMARK    3  A    between atoms: N_11  and  C_12
REMARK    4  A    between atoms: N_11  and  C_16
REMARK    5  A    between atoms: C_12  and  C_13
REMARK                            x       y       z     vdW  Elec       q    Type
REMARK                         _______ _______ _______ _____ _____    ______ ____
ROOT
ATOM      1  C   UNL     1       0.069  -0.192   2.604  0.00  0.00    +0.218 C 
ATOM      2  O   UNL     1       0.666   0.446   3.446  0.00  0.00    -0.275 OA
ATOM      3  N   UNL     1      -1.274  -0.284   2.656  0.00  0.00    -0.289 N 
ENDROOT
BRANCH   1   8
ATOM      4  C   UNL     1       1.034   1.293   0.285  0.00  0.00    +0.001 C 
ATOM      5  C   UNL     1       2.531   1.328   0.598  0.00  0.00    -0.002 C 
ATOM      6  C   UNL     1       2.791   0.609   1.923  0.00  0.00    -0.016 C 
ATOM      7  C   UNL     1       2.327  -0.845   1.814  0.00  0.00    -0.063 C 
ATOM      8  C   UNL     1       0.830  -0.880   1.500  0.00  0.00    +0.061 C 
ATOM      9  C   UNL     1       0.569  -0.160   0.175  0.00  0.00    +0.011 C 
BRANCH   7  10
ATOM     10  N   UNL     1       2.577  -1.536   3.086  0.00  0.00    +0.380 N 
ATOM     11  H   UNL     1       2.068  -1.075   3.825  0.00  0.00    -0.090 HD
ATOM     12  H   UNL     1       2.271  -2.495   3.014  0.00  0.00    -0.090 HD
ATOM     13  H   UNL     1       3.564  -1.513   3.292  0.00  0.00    -0.090 HD
ENDBRANCH   7  10
ENDBRANCH   1   8
BRANCH   3  14
ATOM     14  C   UNL     1      -1.988  -1.130   1.697  0.00  0.00    +0.077 C 
ATOM     15  C   UNL     1      -3.112  -0.324   1.015  0.00  0.00    +0.022 C 
ATOM     16  C   UNL     1      -4.268  -1.343   0.857  0.00  0.00    +0.002 C 
ATOM     17  C   UNL     1      -4.182  -2.163   2.167  0.00  0.00    +0.002 C 
ATOM     18  C   UNL     1      -2.668  -2.300   2.429  0.00  0.00    +0.022 C 
ENDBRANCH   3  14
BRANCH   3  19
ATOM     19  C   UNL     1      -2.021   0.462   3.672  0.00  0.00    +0.203 C 
BRANCH  19  20
ATOM     20  C   UNL     1      -2.388   1.819   3.131  0.00  0.00    +0.228 C 
ATOM     21  O   UNL     1      -2.058   2.133   2.007  0.00  0.00    -0.274 OA
ATOM     22  N   UNL     1      -3.082   2.685   3.896  0.00  0.00    -0.328 N 
ATOM     23  H   UNL     1      -3.346   2.434   4.795  0.00  0.00    +0.145 HD
ATOM     24  H   UNL     1      -3.318   3.559   3.547  0.00  0.00    +0.145 HD
ENDBRANCH  19  20
ENDBRANCH   3  19
TORSDOF 5
