REMARK  Name = ZINC66694520
REMARK  2 active torsions:
REMARK  status: ('A' for Active; 'I' for Inactive)
REMARK    1  A    between atoms: C_3  and  C_8
REMARK    2  A    between atoms: C_15  and  C_17
REMARK                            x       y       z     vdW  Elec       q    Type
REMARK                         _______ _______ _______ _____ _____    ______ ____
ROOT
ATOM      1  C   UNL     1       3.631   2.805   0.343  0.00  0.00    +0.166 C 
ATOM      2  C   UNL     1       4.034   2.688  -1.132  0.00  0.00    +0.144 C 
ATOM      3  N   UNL     1       5.441   3.098  -1.262  0.00  0.00    -0.296 N 
ATOM      4  C   UNL     1       6.426   2.486  -0.356  0.00  0.00    +0.136 C 
ATOM      5  C   UNL     1       5.907   2.612   1.080  0.00  0.00    +0.179 C 
ATOM      6  O   UNL     1       4.575   2.096   1.147  0.00  0.00    -0.369 OA
ATOM      7  C   UNL     1       5.817   4.007  -2.183  0.00  0.00    +0.220 C 
ATOM      8  O   UNL     1       6.970   4.379  -2.233  0.00  0.00    -0.275 OA
ENDROOT
BRANCH   7   9
ATOM      9  C   UNL     1       4.804   4.560  -3.152  0.00  0.00    +0.093 C 
ATOM     10  C   UNL     1       5.437   5.698  -3.958  0.00  0.00    +0.016 C 
ATOM     11  C   UNL     1       4.399   6.282  -4.919  0.00  0.00    +0.020 C 
ATOM     12  C   UNL     1       3.943   5.194  -5.896  0.00  0.00    +0.109 C 
ATOM     13  N   UNL     1       3.467   4.036  -5.125  0.00  0.00    -0.285 N 
ATOM     14  C   UNL     1       4.352   3.452  -4.108  0.00  0.00    +0.122 C 
ATOM     15  C   UNL     1       2.242   3.521  -5.347  0.00  0.00    +0.300 C 
ATOM     16  O   UNL     1       1.823   2.624  -4.641  0.00  0.00    -0.253 OA
ATOM     17  N   UNL     1       1.481   3.999  -6.351  0.00  0.00    -0.313 N 
ATOM     18  H   UNL     1       1.785   4.761  -6.869  0.00  0.00    +0.146 HD
ATOM     19  H   UNL     1       0.630   3.581  -6.557  0.00  0.00    +0.146 HD
ENDBRANCH   7   9
BRANCH   1  22
ATOM     20  C   UNL     1      -0.116   2.489   0.691  0.00  0.00    +0.003 A 
ATOM     21  C   UNL     1       1.144   3.030   0.512  0.00  0.00    +0.006 A 
ATOM     22  C   UNL     1       2.259   2.213   0.537  0.00  0.00    -0.015 A 
ATOM     23  C   UNL     1       2.115   0.854   0.741  0.00  0.00    +0.044 A 
ATOM     24  C   UNL     1       0.854   0.311   0.920  0.00  0.00    +0.124 A 
ATOM     25  C   UNL     1      -0.262   1.130   0.895  0.00  0.00    +0.038 A 
ATOM     26  F   UNL     1       0.713  -1.018   1.118  0.00  0.00    -0.205 F 
ENDBRANCH   1  22
TORSDOF 2
