REMARK  Name = ZINC39604899
REMARK  7 active torsions:
REMARK  status: ('A' for Active; 'I' for Inactive)
REMARK    1  A    between atoms: C_1  and  C_2
REMARK    2  A    between atoms: C_2  and  N_3
REMARK    3  A    between atoms: C_4  and  C_10
REMARK    4  A    between atoms: C_6  and  C_8
REMARK    5  A    between atoms: C_14  and  C_23
REMARK    6  A    between atoms: N_25  and  C_26
REMARK    7  A    between atoms: C_26  and  C_27
REMARK                            x       y       z     vdW  Elec       q    Type
REMARK                         _______ _______ _______ _____ _____    ______ ____
ROOT
ATOM      1  C   UNL     1      -1.474  -0.733   2.393  0.00  0.00    +0.266 C 
ATOM      2  O   UNL     1      -2.035  -1.184   3.374  0.00  0.00    -0.268 OA
ATOM      3  N   UNL     1      -0.202  -0.297   2.485  0.00  0.00    -0.295 N 
ATOM      4  C   UNL     1       0.674   0.183   1.392  0.00  0.00    +0.121 C 
ATOM      5  C   UNL     1       1.443   1.376   2.003  0.00  0.00    +0.100 C 
ATOM      6  C   UNL     1       1.416   1.124   3.520  0.00  0.00    -0.004 C 
ATOM      7  C   UNL     1       0.634  -0.185   3.705  0.00  0.00    +0.115 C 
ATOM      8  C   UNL     1       2.837   0.971   4.056  0.00  0.00    -0.010 C 
ATOM      9  C   UNL     1       2.787   0.780   5.574  0.00  0.00    -0.082 C 
ATOM     10  N   UNL     1       2.130   1.937   6.194  0.00  0.00    +0.379 N 
ATOM     11  C   UNL     1       0.736   2.022   5.744  0.00  0.00    -0.082 C 
ATOM     12  C   UNL     1       0.699   2.266   4.233  0.00  0.00    -0.010 C 
ATOM     13  H   UNL     1       2.153   1.837   7.198  0.00  0.00    -0.086 HD
ATOM     14  H   UNL     1       2.619   2.780   5.931  0.00  0.00    -0.086 HD
ENDROOT
BRANCH   1  16
ATOM     15  N   UNL     1      -2.203  -1.617   0.128  0.00  0.00    -0.258 N 
ATOM     16  C   UNL     1      -2.184  -0.664   1.107  0.00  0.00    +0.138 A 
ATOM     17  C   UNL     1      -2.969   0.380   0.646  0.00  0.00    +0.071 A 
ATOM     18  C   UNL     1      -3.419  -0.025  -0.614  0.00  0.00    +0.075 A 
ATOM     19  N   UNL     1      -2.923  -1.211  -0.855  0.00  0.00    -0.175 NA
ATOM     20  C   UNL     1      -4.313   0.767  -1.533  0.00  0.00    +0.069 C 
ATOM     21 BR   UNL     1      -3.350   2.007   1.532  0.00  0.00    -0.046 Br
BRANCH  15  23
ATOM     22  C   UNL     1      -0.071  -2.728  -0.323  0.00  0.00    +0.029 C 
ATOM     23  C   UNL     1      -1.503  -2.902   0.187  0.00  0.00    +0.141 C 
ENDBRANCH  15  23
ENDBRANCH   1  16
BRANCH   5  24
ATOM     24  C   UNL     1       0.750   2.672   1.672  0.00  0.00    +0.218 C 
ATOM     25  O   UNL     1      -0.459   2.710   1.591  0.00  0.00    -0.275 OA
ATOM     26  N   UNL     1       1.474   3.790   1.466  0.00  0.00    -0.313 N 
ATOM     27  H   UNL     1       2.443   3.746   1.459  0.00  0.00    +0.149 HD
BRANCH  26  28
ATOM     28  C   UNL     1       0.798   5.072   1.251  0.00  0.00    +0.135 C 
BRANCH  28  29
ATOM     29  C   UNL     1       1.836   6.147   0.921  0.00  0.00    +0.135 C 
ATOM     30  C   UNL     1       1.136   7.511   0.736  0.00  0.00    +0.035 C 
ATOM     31  C   UNL     1       1.919   8.123  -0.457  0.00  0.00    +0.031 C 
ATOM     32  C   UNL     1       2.238   6.852  -1.284  0.00  0.00    +0.160 C 
ATOM     33  O   UNL     1       2.494   5.825  -0.310  0.00  0.00    -0.375 OA
ENDBRANCH  28  29
ENDBRANCH  26  28
ENDBRANCH   5  24
TORSDOF 5
