REMARK  Name = ZINC00971438
REMARK  8 active torsions:
REMARK  status: ('A' for Active; 'I' for Inactive)
REMARK    1  A    between atoms: C_1  and  C_2
REMARK    2  A    between atoms: C_5  and  C_8
REMARK    3  A    between atoms: C_8  and  N_9
REMARK    4  A    between atoms: C_21  and  C_31
REMARK    5  A    between atoms: C_26  and  N_30
REMARK    6  A    between atoms: C_27  and  C_28
REMARK    7  A    between atoms: C_31  and  O_32
REMARK    8  A    between atoms: O_32  and  C_33
REMARK                            x       y       z     vdW  Elec       q    Type
REMARK                         _______ _______ _______ _____ _____    ______ ____
ROOT
ATOM      1  N   UNL     1       1.447  -4.746  -0.032  0.00  0.00    -0.266 N 
ATOM      2  C   UNL     1       2.175  -4.982  -1.184  0.00  0.00    +0.041 A 
ATOM      3  C   UNL     1       1.792  -4.843  -2.519  0.00  0.00    +0.024 A 
ATOM      4  C   UNL     1       2.735  -5.155  -3.486  0.00  0.00    +0.002 A 
ATOM      5  C   UNL     1       4.003  -5.587  -3.156  0.00  0.00    +0.000 A 
ATOM      6  C   UNL     1       4.398  -5.730  -1.831  0.00  0.00    +0.007 A 
ATOM      7  C   UNL     1       3.466  -5.421  -0.864  0.00  0.00    -0.005 A 
ATOM      8  C   UNL     1       3.536  -5.456   0.630  0.00  0.00    +0.130 C 
ATOM      9  C   UNL     1       2.167  -4.994   1.082  0.00  0.00    +0.237 C 
ATOM     10  O   UNL     1       1.789  -4.873   2.228  0.00  0.00    -0.274 OA
ATOM     11  C   UNL     1       3.808  -6.874   1.132  0.00  0.00    +0.150 C 
ATOM     12  C   UNL     1       3.260  -7.909   0.178  0.00  0.00    +0.080 C 
ATOM     13  N   UNL     1       4.283  -8.550  -0.288  0.00  0.00    -0.152 NA
ATOM     14  N   UNL     1       5.491  -8.062   0.210  0.00  0.00    -0.115 NA
ATOM     15  C   UNL     1       5.319  -7.067   1.024  0.00  0.00    +0.228 C 
ATOM     16  O   UNL     1       6.176  -6.224   1.639  0.00  0.00    -0.425 OA
ATOM     17  C   UNL     1       5.801  -4.918   1.599  0.00  0.00    +0.201 C 
ATOM     18  C   UNL     1       4.591  -4.521   1.148  0.00  0.00    +0.107 C 
ENDROOT
BRANCH  17  19
ATOM     19  N   UNL     1       6.687  -3.965   2.035  0.00  0.00    -0.328 N 
ATOM     20  H   UNL     1       7.561  -4.229   2.363  0.00  0.00    +0.145 HD
ATOM     21  H   UNL     1       6.439  -3.027   2.015  0.00  0.00    +0.145 HD
ENDBRANCH  17  19
BRANCH  18  22
ATOM     22  C   UNL     1       4.296  -3.120   1.165  0.00  0.00    +0.101 C 
ATOM     23  N   UNL     1       4.062  -2.008   1.179  0.00  0.00    -0.191 NA
ENDBRANCH  18  22
BRANCH   1  24
ATOM     24  C   UNL     1       0.059  -4.275  -0.021  0.00  0.00    +0.148 C 
BRANCH  24  29
ATOM     25  C   UNL     1      -0.018   1.503   0.010  0.00  0.00    +0.044 C 
ATOM     26  C   UNL     1       0.002  -0.004   0.002  0.00  0.00    -0.050 A 
ATOM     27  C   UNL     1       0.006  -0.689  -1.199  0.00  0.00    +0.003 A 
ATOM     28  C   UNL     1       0.025  -2.071  -1.206  0.00  0.00    +0.005 A 
ATOM     29  C   UNL     1       0.040  -2.768  -0.013  0.00  0.00    -0.030 A 
ATOM     30  C   UNL     1       0.037  -2.084   1.188  0.00  0.00    +0.005 A 
ATOM     31  C   UNL     1       0.023  -0.702   1.195  0.00  0.00    +0.003 A 
ENDBRANCH  24  29
ENDBRANCH   1  24
BRANCH  12  32
ATOM     32  C   UNL     1       1.811  -8.148  -0.163  0.00  0.00    +0.212 C 
BRANCH  32  33
ATOM     33  O   UNL     1       1.714  -9.218  -1.105  0.00  0.00    -0.377 OA
ATOM     34  C   UNL     1       0.374  -9.526  -1.498  0.00  0.00    +0.194 C 
ENDBRANCH  32  33
ENDBRANCH  12  32
TORSDOF 6
