REMARK  Name = ZINC35179421
REMARK  3 active torsions:
REMARK  status: ('A' for Active; 'I' for Inactive)
REMARK    1  A    between atoms: C_10  and  N_12
REMARK    2  A    between atoms: N_12  and  C_13
REMARK    3  A    between atoms: C_13  and  C_14
REMARK                            x       y       z     vdW  Elec       q    Type
REMARK                         _______ _______ _______ _____ _____    ______ ____
ROOT
ATOM      1  N   UNL     1       4.651   0.020   0.863  0.00  0.00    +0.389 N 
ATOM      2  H   UNL     1       4.772   1.014   0.736  0.00  0.00    -0.084 HD
ATOM      3  H   UNL     1       4.203  -0.154   1.750  0.00  0.00    -0.084 HD
ENDROOT
BRANCH   1  13
ATOM      4  C   UNL     1       0.217   1.794  -0.380  0.00  0.00    +0.000 A 
ATOM      5  C   UNL     1       1.441   2.404  -0.175  0.00  0.00    +0.000 A 
ATOM      6  C   UNL     1       2.587   1.639  -0.125  0.00  0.00    +0.002 A 
ATOM      7  C   UNL     1       2.523   0.260  -0.278  0.00  0.00    -0.058 A 
ATOM      8  C   UNL     1       1.304  -0.348  -0.477  0.00  0.00    -0.046 A 
ATOM      9  C   UNL     1       0.151   0.424  -0.530  0.00  0.00    +0.004 A 
ATOM     10  C   UNL     1       1.158  -1.839  -0.635  0.00  0.00    +0.035 C 
ATOM     11  C   UNL     1       2.502  -2.477  -0.982  0.00  0.00    +0.003 C 
ATOM     12  C   UNL     1       3.544  -1.994   0.034  0.00  0.00    -0.011 C 
ATOM     13  C   UNL     1       3.815  -0.513  -0.221  0.00  0.00    -0.040 C 
ENDBRANCH   1  13
BRANCH   1  14
ATOM     14  C   UNL     1       5.963  -0.640   0.839  0.00  0.00    +0.016 C 
BRANCH  14  15
ATOM     15  C   UNL     1       6.863  -0.005   1.867  0.00  0.00    +0.203 C 
ATOM     16  O   UNL     1       6.453   0.907   2.552  0.00  0.00    -0.277 OA
ATOM     17  N   UNL     1       8.125  -0.452   2.026  0.00  0.00    -0.242 N 
ATOM     18  C   UNL     1       8.931   0.116   2.945  0.00  0.00    +0.303 C 
ATOM     19  O   UNL     1       8.519   1.031   3.632  0.00  0.00    -0.253 OA
ATOM     20  N   UNL     1      10.192  -0.331   3.104  0.00  0.00    -0.313 N 
ATOM     21  H   UNL     1       8.454  -1.182   1.478  0.00  0.00    +0.159 HD
ATOM     22  H   UNL     1      10.521  -1.061   2.556  0.00  0.00    +0.146 HD
ATOM     23  H   UNL     1      10.772   0.078   3.766  0.00  0.00    +0.146 HD
ENDBRANCH  14  15
ENDBRANCH   1  14
TORSDOF 3
