REMARK  Name = ZINC37001993
REMARK  4 active torsions:
REMARK  status: ('A' for Active; 'I' for Inactive)
REMARK    1  A    between atoms: C_1  and  C_2
REMARK    2  A    between atoms: C_3  and  C_17
REMARK    3  A    between atoms: C_7  and  N_8
REMARK    4  A    between atoms: C_9  and  C_11
REMARK                            x       y       z     vdW  Elec       q    Type
REMARK                         _______ _______ _______ _____ _____    ______ ____
ROOT
ATOM      1  N   UNL     1       0.204   0.070   2.341  0.00  0.00    -0.285 N 
ATOM      2  C   UNL     1       0.424  -0.558   3.513  0.00  0.00    +0.220 C 
ATOM      3  O   UNL     1       0.451  -1.770   3.556  0.00  0.00    -0.275 OA
ATOM      4  H   UNL     1       0.103   1.034   2.319  0.00  0.00    +0.155 HD
ENDROOT
BRANCH   2   5
ATOM      5  C   UNL     1       0.635   0.245   4.771  0.00  0.00    +0.072 C 
ATOM      6  C   UNL     1       1.866   1.141   4.604  0.00  0.00    -0.007 C 
ATOM      7  C   UNL     1       2.122   1.895   5.912  0.00  0.00    -0.082 C 
ATOM      8  N   UNL     1       2.357   0.934   6.996  0.00  0.00    +0.379 N 
ATOM      9  C   UNL     1       1.155   0.119   7.209  0.00  0.00    -0.082 C 
ATOM     10  C   UNL     1       0.862  -0.702   5.952  0.00  0.00    -0.007 C 
ATOM     11  H   UNL     1       3.130   0.334   6.751  0.00  0.00    -0.086 HD
ATOM     12  H   UNL     1       2.578   1.434   7.845  0.00  0.00    -0.086 HD
ENDBRANCH   2   5
BRANCH   1  19
ATOM     13  C   UNL     1      -1.275   1.166   0.175  0.00  0.00    +0.046 C 
ATOM     14  C   UNL     1      -0.588  -0.171   0.076  0.00  0.00    -0.015 A 
ATOM     15  C   UNL     1      -0.661  -0.910  -1.107  0.00  0.00    +0.068 A 
ATOM     16  C   UNL     1      -0.022  -2.150  -1.190  0.00  0.00    +0.015 A 
ATOM     17  C   UNL     1       0.679  -2.639  -0.107  0.00  0.00    +0.003 A 
ATOM     18  C   UNL     1       0.750  -1.907   1.064  0.00  0.00    +0.023 A 
ATOM     19  C   UNL     1       0.123  -0.670   1.156  0.00  0.00    +0.037 A 
BRANCH  15  20
ATOM     20  C   UNL     1      -1.412  -0.385  -2.263  0.00  0.00    +0.387 C 
ATOM     21  O   UNL     1      -2.299  -1.055  -2.772  0.00  0.00    -0.241 OA
ATOM     22  O   UNL     1      -1.147   0.721  -2.713  0.00  0.00    -0.241 OA
ENDBRANCH  15  20
ENDBRANCH   1  19
TORSDOF 3
