REMARK  Name = ZINC61125997
REMARK  5 active torsions:
REMARK  status: ('A' for Active; 'I' for Inactive)
REMARK    1  A    between atoms: C_1  and  C_2
REMARK    2  A    between atoms: C_5  and  C_9
REMARK    3  A    between atoms: C_6  and  O_8
REMARK    4  A    between atoms: N_15  and  C_18
REMARK    5  A    between atoms: C_18  and  C_19
REMARK                            x       y       z     vdW  Elec       q    Type
REMARK                         _______ _______ _______ _____ _____    ______ ____
ROOT
ATOM      1  C   UNL     1      -0.016  -4.471   0.135  0.00  0.00    +0.250 C 
ATOM      2  O   UNL     1       0.017  -5.202   1.107  0.00  0.00    -0.270 OA
ATOM      3  N   UNL     1      -0.060  -5.000  -1.104  0.00  0.00    -0.299 N 
ATOM      4  C   UNL     1       0.023  -4.093  -2.267  0.00  0.00    +0.106 C 
ATOM      5  C   UNL     1       0.928  -4.683  -3.364  0.00  0.00    +0.000 C 
ATOM      6  C   UNL     1       2.130  -5.343  -2.725  0.00  0.00    -0.076 C 
ATOM      7  N   UNL     1       1.851  -6.763  -2.527  0.00  0.00    +0.388 N 
ATOM      8  C   UNL     1       1.218  -7.082  -1.306  0.00  0.00    -0.059 C 
ATOM      9  C   UNL     1      -0.181  -6.436  -1.247  0.00  0.00    +0.089 C 
ATOM     10  H   UNL     1       1.263  -7.080  -3.283  0.00  0.00    -0.081 HD
ENDROOT
BRANCH   1  15
ATOM     11  C   UNL     1       0.009   1.243   0.827  0.00  0.00    +0.044 C 
ATOM     12  C   UNL     1       0.006  -0.254   0.648  0.00  0.00    -0.047 A 
ATOM     13  C   UNL     1      -0.980  -0.853  -0.119  0.00  0.00    +0.004 A 
ATOM     14  C   UNL     1      -0.993  -2.220  -0.290  0.00  0.00    +0.017 A 
ATOM     15  C   UNL     1      -0.008  -3.007   0.313  0.00  0.00    +0.078 A 
ATOM     16  C   UNL     1       0.987  -2.397   1.088  0.00  0.00    +0.129 A 
ATOM     17  C   UNL     1       0.988  -1.018   1.245  0.00  0.00    +0.049 A 
BRANCH  16  18
ATOM     18  O   UNL     1       1.948  -3.150   1.679  0.00  0.00    -0.506 OA
ATOM     19  H   UNL     1       2.735  -3.284   1.132  0.00  0.00    +0.292 HD
ENDBRANCH  16  18
ENDBRANCH   1  15
BRANCH   7  20
ATOM     20  C   UNL     1       3.121  -7.498  -2.596  0.00  0.00    +0.048 C 
BRANCH  20  21
ATOM     21  C   UNL     1       3.673  -7.419  -3.996  0.00  0.00    +0.340 C 
ATOM     22  O   UNL     1       3.013  -6.905  -4.883  0.00  0.00    -0.249 OA
ATOM     23  O   UNL     1       4.779  -7.869  -4.242  0.00  0.00    -0.249 OA
ENDBRANCH  20  21
ENDBRANCH   7  20
TORSDOF 4
