REMARK  Name = ZINC36655940
REMARK  12 active torsions:
REMARK  status: ('A' for Active; 'I' for Inactive)
REMARK    1  A    between atoms: C_1  and  C_2
REMARK    2  A    between atoms: C_2  and  C_3
REMARK    3  A    between atoms: C_2  and  C_4
REMARK    4  A    between atoms: C_4  and  C_6
REMARK    5  A    between atoms: C_4  and  N_20
REMARK    6  A    between atoms: N_8  and  C_9
REMARK    7  A    between atoms: C_9  and  C_10
REMARK    8  A    between atoms: C_10  and  C_12
REMARK    9  A    between atoms: C_10  and  N_17
REMARK   10  A    between atoms: N_17  and  C_18
REMARK   11  A    between atoms: N_17  and  C_19
REMARK   12  A    between atoms: C_21  and  C_23
REMARK                            x       y       z     vdW  Elec       q    Type
REMARK                         _______ _______ _______ _____ _____    ______ ____
ROOT
ATOM      1  C   UNL     1       0.812   0.070  -0.788  0.00  0.00    +0.161 C 
ENDROOT
BRANCH   1   2
ATOM      2  C   UNL     1       0.002   0.495  -1.986  0.00  0.00    +0.234 C 
ATOM      3  O   UNL     1      -0.632  -0.328  -2.612  0.00  0.00    -0.274 OA
ATOM      4  N   UNL     1      -0.018   1.789  -2.361  0.00  0.00    -0.315 N 
ATOM      5  H   UNL     1       0.437   2.457  -1.825  0.00  0.00    +0.149 HD
BRANCH   4   6
ATOM      6  C   UNL     1      -0.726   2.187  -3.580  0.00  0.00    +0.096 C 
BRANCH   6   7
ATOM      7  C   UNL     1      -0.484   3.674  -3.848  0.00  0.00    +0.016 C 
BRANCH   7   8
ATOM      8  C   UNL     1       0.967   3.892  -4.195  0.00  0.00    +0.093 A 
ATOM      9  C   UNL     1       1.918   4.337  -3.354  0.00  0.00    +0.043 A 
ATOM     10  C   UNL     1       3.123   4.391  -4.091  0.00  0.00    +0.041 A 
ATOM     11  C   UNL     1       2.837   3.975  -5.338  0.00  0.00    +0.195 A 
ATOM     12  O   UNL     1       1.530   3.669  -5.393  0.00  0.00    -0.469 OA
ENDBRANCH   7   8
BRANCH   7  13
ATOM     13  N   UNL     1      -1.326   4.113  -4.969  0.00  0.00    +0.384 N 
ATOM     14  C   UNL     1      -2.741   3.998  -4.593  0.00  0.00    -0.096 C 
ATOM     15  C   UNL     1      -1.018   5.512  -5.294  0.00  0.00    -0.096 C 
ATOM     16  H   UNL     1      -1.144   3.533  -5.774  0.00  0.00    -0.082 HD
ENDBRANCH   7  13
ENDBRANCH   6   7
ENDBRANCH   4   6
ENDBRANCH   1   2
BRANCH   1  17
ATOM     17  N   UNL     1       1.079  -1.369  -0.864  0.00  0.00    -0.303 N 
ATOM     18  C   UNL     1       2.152  -1.889  -0.237  0.00  0.00    +0.220 C 
ATOM     19  O   UNL     1       2.898  -1.167   0.390  0.00  0.00    -0.275 OA
ATOM     20  H   UNL     1       0.482  -1.946  -1.365  0.00  0.00    +0.149 HD
BRANCH  18  21
ATOM     21  C   UNL     1       2.426  -3.369  -0.315  0.00  0.00    +0.048 C 
ATOM     22  C   UNL     1       2.619  -3.776  -1.777  0.00  0.00    +0.019 C 
ATOM     23  C   UNL     1       2.897  -5.278  -1.856  0.00  0.00    -0.009 C 
ATOM     24  C   UNL     1       4.165  -5.604  -1.065  0.00  0.00    +0.007 C 
ATOM     25  C   UNL     1       3.972  -5.198   0.397  0.00  0.00    -0.009 C 
ATOM     26  C   UNL     1       3.694  -3.695   0.476  0.00  0.00    +0.019 C 
ATOM     27  C   UNL     1       2.790  -5.967   0.989  0.00  0.00    +0.007 C 
ATOM     28  C   UNL     1       1.522  -5.641   0.198  0.00  0.00    -0.009 C 
ATOM     29  C   UNL     1       1.714  -6.047  -1.265  0.00  0.00    +0.007 C 
ATOM     30  C   UNL     1       1.243  -4.138   0.277  0.00  0.00    +0.019 C 
ENDBRANCH  18  21
ENDBRANCH   1  17
BRANCH   1  32
ATOM     31  C   UNL     1      -0.134   1.892   0.636  0.00  0.00    +0.009 C 
ATOM     32  C   UNL     1       0.031   0.378   0.491  0.00  0.00    +0.012 C 
ATOM     33  C   UNL     1      -1.348  -0.281   0.417  0.00  0.00    +0.009 C 
ENDBRANCH   1  32
TORSDOF 8
