REMARK  Name = ZINC05372110
REMARK  7 active torsions:
REMARK  status: ('A' for Active; 'I' for Inactive)
REMARK    1  A    between atoms: C_1  and  C_2
REMARK    2  A    between atoms: N_4  and  C_5
REMARK    3  A    between atoms: C_5  and  C_6
REMARK    4  A    between atoms: C_8  and  O_20
REMARK    5  A    between atoms: C_10  and  O_19
REMARK    6  A    between atoms: C_12  and  O_18
REMARK    7  A    between atoms: C_14  and  O_17
REMARK                            x       y       z     vdW  Elec       q    Type
REMARK                         _______ _______ _______ _____ _____    ______ ____
ROOT
ATOM      1  C   UNL     1      -0.753   1.593  -1.232  0.00  0.00    +0.169 C 
ATOM      2  C   UNL     1      -0.110   0.999  -2.488  0.00  0.00    +0.176 C 
ATOM      3  C   UNL     1      -0.818   1.558  -3.726  0.00  0.00    +0.179 C 
ATOM      4  C   UNL     1      -0.738   3.087  -3.700  0.00  0.00    +0.201 C 
ATOM      5  C   UNL     1      -1.356   3.600  -2.397  0.00  0.00    +0.279 C 
ATOM      6  O   UNL     1      -0.672   3.018  -1.285  0.00  0.00    -0.341 OA
ENDROOT
BRANCH   5   7
ATOM      7  O   UNL     1      -1.235   5.023  -2.339  0.00  0.00    -0.365 OA
ATOM      8  H   UNL     1      -1.605   5.417  -1.538  0.00  0.00    +0.213 HD
ENDBRANCH   5   7
BRANCH   4   9
ATOM      9  O   UNL     1       0.630   3.495  -3.773  0.00  0.00    -0.384 OA
ATOM     10  H   UNL     1       0.755   4.454  -3.756  0.00  0.00    +0.210 HD
ENDBRANCH   4   9
BRANCH   3  11
ATOM     11  O   UNL     1      -0.177   1.066  -4.905  0.00  0.00    -0.386 OA
ATOM     12  H   UNL     1      -0.570   1.386  -5.729  0.00  0.00    +0.210 HD
ENDBRANCH   3  11
BRANCH   2  13
ATOM     13  O   UNL     1      -0.241  -0.424  -2.465  0.00  0.00    -0.387 OA
ATOM     14  H   UNL     1       0.145  -0.867  -3.232  0.00  0.00    +0.210 HD
ENDBRANCH   2  13
BRANCH   1  15
ATOM     15  C   UNL     1      -0.013   1.086   0.008  0.00  0.00    +0.138 C 
BRANCH  15  19
ATOM     16  C   UNL     1      -0.927   1.718   3.671  0.00  0.00    +0.109 C 
ATOM     17  C   UNL     1      -0.222   1.232   2.431  0.00  0.00    +0.210 C 
ATOM     18  O   UNL     1       0.774   0.548   2.529  0.00  0.00    -0.276 OA
ATOM     19  N   UNL     1      -0.698   1.558   1.213  0.00  0.00    -0.313 N 
ATOM     20  H   UNL     1      -1.495   2.106   1.135  0.00  0.00    +0.149 HD
ENDBRANCH  15  19
ENDBRANCH   1  15
TORSDOF 6
