REMARK  Name = ZINC50309918
REMARK  7 active torsions:
REMARK  status: ('A' for Active; 'I' for Inactive)
REMARK    1  A    between atoms: C_1  and  C_2
REMARK    2  A    between atoms: C_6  and  C_10
REMARK    3  A    between atoms: C_11  and  C_13
REMARK    4  A    between atoms: C_14  and  N_22
REMARK    5  A    between atoms: C_15  and  C_19
REMARK    6  A    between atoms: C_19  and  C_20
REMARK    7  A    between atoms: C_19  and  C_21
REMARK                            x       y       z     vdW  Elec       q    Type
REMARK                         _______ _______ _______ _____ _____    ______ ____
ROOT
ATOM      1  C   UNL     1      -0.321  -2.021  -3.189  0.00  0.00    +0.168 A 
ATOM      2  C   UNL     1      -0.933  -2.696  -4.277  0.00  0.00    +0.078 A 
ATOM      3  C   UNL     1      -1.485  -1.719  -5.045  0.00  0.00    +0.060 A 
ATOM      4  N   UNL     1      -1.211  -0.534  -4.439  0.00  0.00    -0.279 N 
ATOM      5  H   UNL     1      -1.487   0.335  -4.770  0.00  0.00    +0.189 HD
ATOM      6  N   UNL     1      -0.540  -0.731  -3.362  0.00  0.00    -0.167 NA
ENDROOT
BRANCH   1  15
ATOM      7  C   UNL     1       0.041   1.538   0.346  0.00  0.00    +0.039 C 
ATOM      8  C   UNL     1       0.039   0.011   0.254  0.00  0.00    +0.133 C 
ATOM      9  C   UNL     1       0.691  -0.423  -1.064  0.00  0.00    +0.139 C 
ATOM     10  N   UNL     1       0.846  -1.887  -1.045  0.00  0.00    -0.289 N 
ATOM     11  C   UNL     1       1.485  -2.499   0.131  0.00  0.00    +0.099 C 
ATOM     12  C   UNL     1       0.794  -1.964   1.390  0.00  0.00    +0.182 C 
ATOM     13  O   UNL     1       0.779  -0.535   1.349  0.00  0.00    -0.373 OA
ATOM     14  C   UNL     1       1.333  -4.020   0.066  0.00  0.00    +0.030 C 
ATOM     15  C   UNL     1       0.416  -2.643  -2.074  0.00  0.00    +0.269 C 
ATOM     16  O   UNL     1       0.635  -3.839  -2.083  0.00  0.00    -0.268 OA
ENDBRANCH   1  15
BRANCH   3  17
ATOM     17  C   UNL     1      -2.255  -1.914  -6.325  0.00  0.00    +0.033 C 
ATOM     18  C   UNL     1      -3.669  -1.355  -6.160  0.00  0.00    +0.014 C 
ATOM     19  C   UNL     1      -1.545  -1.179  -7.464  0.00  0.00    +0.014 C 
ENDBRANCH   3  17
BRANCH   2  20
ATOM     20  N   UNL     1      -0.962  -4.079  -4.510  0.00  0.00    -0.355 N 
ATOM     21  H   UNL     1      -0.530  -4.685  -3.888  0.00  0.00    +0.142 HD
ATOM     22  H   UNL     1      -1.414  -4.429  -5.294  0.00  0.00    +0.142 HD
ENDBRANCH   2  20
TORSDOF 3
