REMARK  Name = ZINC53183626
REMARK  8 active torsions:
REMARK  status: ('A' for Active; 'I' for Inactive)
REMARK    1  A    between atoms: C_1  and  C_2
REMARK    2  A    between atoms: C_2  and  C_3
REMARK    3  A    between atoms: C_2  and  C_4
REMARK    4  A    between atoms: C_2  and  N_21
REMARK    5  A    between atoms: C_9  and  N_12
REMARK    6  A    between atoms: N_12  and  S_13
REMARK    7  A    between atoms: S_13  and  C_16
REMARK    8  A    between atoms: N_24  and  C_25
REMARK                            x       y       z     vdW  Elec       q    Type
REMARK                         _______ _______ _______ _____ _____    ______ ____
ROOT
ATOM      1  C   UNL     1      -1.391  -0.478   0.312  0.00  0.00    +0.239 C 
ATOM      2  O   UNL     1      -1.753  -0.581   1.466  0.00  0.00    -0.273 OA
ATOM      3  N   UNL     1      -2.222  -0.830  -0.689  0.00  0.00    -0.300 N 
ATOM      4  C   UNL     1      -1.819  -0.660  -2.091  0.00  0.00    +0.109 C 
ATOM      5  C   UNL     1      -2.895   0.151  -2.819  0.00  0.00    +0.039 C 
ATOM      6  C   UNL     1      -4.253  -0.529  -2.634  0.00  0.00    +0.080 C 
ATOM      7  C   UNL     1      -4.606  -0.573  -1.145  0.00  0.00    +0.039 C 
ATOM      8  C   UNL     1      -3.546  -1.397  -0.398  0.00  0.00    +0.109 C 
ENDROOT
BRANCH   1  10
ATOM      9  C   UNL     1       0.631   0.583   1.278  0.00  0.00    +0.041 C 
ATOM     10  C   UNL     1      -0.013   0.045  -0.001  0.00  0.00    +0.107 C 
ATOM     11  C   UNL     1       0.845  -1.088  -0.567  0.00  0.00    +0.041 C 
BRANCH  10  12
ATOM     12  N   UNL     1      -0.112   1.122  -0.988  0.00  0.00    -0.286 N 
ATOM     13  C   UNL     1       1.003   1.740  -1.426  0.00  0.00    +0.300 C 
ATOM     14  O   UNL     1       2.091   1.403  -1.001  0.00  0.00    -0.253 OA
ATOM     15  N   UNL     1       0.912   2.731  -2.334  0.00  0.00    -0.302 N 
ATOM     16  C   UNL     1       2.124   3.403  -2.810  0.00  0.00    +0.129 C 
ATOM     17  H   UNL     1      -0.980   1.391  -1.327  0.00  0.00    +0.151 HD
ATOM     18  H   UNL     1       0.044   3.000  -2.673  0.00  0.00    +0.150 HD
ENDBRANCH  10  12
ENDBRANCH   1  10
BRANCH   6  19
ATOM     19  N   UNL     1      -5.280   0.226  -3.356  0.00  0.00    -0.186 NA
ATOM     20  H   UNL     1      -5.223   1.192  -3.411  0.00  0.00    +0.148 HD
BRANCH  19  21
ATOM     21  S   UNL     1      -6.539  -0.571  -4.080  0.00  0.00    +0.065 S 
ATOM     22  O   UNL     1      -7.366   0.424  -4.666  0.00  0.00    -0.153 OA
ATOM     23  O   UNL     1      -5.968  -1.630  -4.836  0.00  0.00    -0.153 OA
BRANCH  21  24
ATOM     24  C   UNL     1      -7.486  -1.322  -2.798  0.00  0.00    +0.142 A 
ATOM     25  C   UNL     1      -8.539  -0.820  -2.109  0.00  0.00    +0.036 A 
ATOM     26  C   UNL     1      -9.136  -1.598  -1.135  0.00  0.00    +0.010 A 
ATOM     27  C   UNL     1      -8.649  -2.841  -0.897  0.00  0.00    +0.047 A 
ATOM     28  S   UNL     1      -7.312  -2.946  -2.075  0.00  0.00    -0.077 S 
ENDBRANCH  21  24
ENDBRANCH  19  21
ENDBRANCH   6  19
TORSDOF 5
