REMARK  Name = ZINC40781390
REMARK  5 active torsions:
REMARK  status: ('A' for Active; 'I' for Inactive)
REMARK    1  A    between atoms: C_1  and  C_2
REMARK    2  A    between atoms: C_6  and  N_8
REMARK    3  A    between atoms: C_10  and  N_23
REMARK    4  A    between atoms: C_11  and  N_15
REMARK    5  A    between atoms: N_15  and  C_16
REMARK                            x       y       z     vdW  Elec       q    Type
REMARK                         _______ _______ _______ _____ _____    ______ ____
ROOT
ATOM      1  N   UNL     1       0.327  -2.800   2.447  0.00  0.00    -0.298 N 
ATOM      2  C   UNL     1       0.211  -4.185   2.426  0.00  0.00    +0.149 A 
ATOM      3  C   UNL     1       0.002  -4.897   3.609  0.00  0.00    +0.106 A 
ATOM      4  C   UNL     1      -0.108  -6.287   3.532  0.00  0.00    +0.149 A 
ATOM      5  N   UNL     1      -0.011  -6.876   2.342  0.00  0.00    -0.219 NA
ATOM      6  C   UNL     1       0.186  -6.166   1.249  0.00  0.00    +0.225 A 
ATOM      7  N   UNL     1       0.291  -4.853   1.278  0.00  0.00    -0.219 NA
ATOM      8  H   UNL     1       0.339  -2.327   3.294  0.00  0.00    +0.154 HD
ENDROOT
BRANCH   1  14
ATOM      9  C   UNL     1       2.119   1.024  -0.068  0.00  0.00    +0.044 C 
ATOM     10  C   UNL     1       1.288  -0.231   0.000  0.00  0.00    -0.049 A 
ATOM     11  C   UNL     1       0.622  -0.680  -1.125  0.00  0.00    +0.003 A 
ATOM     12  C   UNL     1      -0.141  -1.832  -1.068  0.00  0.00    +0.002 A 
ATOM     13  C   UNL     1      -0.241  -2.537   0.116  0.00  0.00    +0.023 A 
ATOM     14  C   UNL     1       0.427  -2.089   1.248  0.00  0.00    +0.033 A 
ATOM     15  C   UNL     1       1.197  -0.934   1.185  0.00  0.00    +0.026 A 
ENDBRANCH   1  14
BRANCH   3  16
ATOM     16  N   UNL     1      -0.094  -4.234   4.843  0.00  0.00    -0.353 N 
ATOM     17  H   UNL     1      -0.015  -3.268   4.881  0.00  0.00    +0.143 HD
ATOM     18  H   UNL     1      -0.239  -4.742   5.656  0.00  0.00    +0.143 HD
ENDBRANCH   3  16
BRANCH   4  19
ATOM     19  N   UNL     1      -0.316  -7.044   4.679  0.00  0.00    -0.297 N 
ATOM     20  H   UNL     1      -0.475  -6.603   5.529  0.00  0.00    +0.154 HD
BRANCH  19  21
ATOM     21  C   UNL     1      -0.295  -8.440   4.609  0.00  0.00    +0.047 A 
ATOM     22  C   UNL     1       0.318  -9.074   3.536  0.00  0.00    +0.024 A 
ATOM     23  C   UNL     1       0.337 -10.453   3.470  0.00  0.00    +0.002 A 
ATOM     24  C   UNL     1      -0.255 -11.204   4.469  0.00  0.00    +0.001 A 
ATOM     25  C   UNL     1      -0.867 -10.576   5.539  0.00  0.00    +0.017 A 
ATOM     26  C   UNL     1      -0.884  -9.197   5.615  0.00  0.00    +0.039 A 
ATOM     27 BR   UNL     1      -1.714  -8.339   7.082  0.00  0.00    -0.048 Br
ENDBRANCH  19  21
ENDBRANCH   4  19
TORSDOF 4
