REMARK  Name = ZINC43667937
REMARK  5 active torsions:
REMARK  status: ('A' for Active; 'I' for Inactive)
REMARK    1  A    between atoms: C_1  and  C_2
REMARK    2  A    between atoms: C_4  and  N_19
REMARK    3  A    between atoms: N_5  and  C_7
REMARK    4  A    between atoms: C_7  and  C_9
REMARK    5  A    between atoms: C_7  and  C_10
REMARK                            x       y       z     vdW  Elec       q    Type
REMARK                         _______ _______ _______ _____ _____    ______ ____
ROOT
ATOM      1  C   UNL     1       0.053  -3.291   1.500  0.00  0.00    +0.137 C 
ATOM      2  C   UNL     1      -1.192  -3.293   2.389  0.00  0.00    +0.038 C 
ENDROOT
BRANCH   1   3
ATOM      3  C   UNL     1       1.288  -3.259   2.365  0.00  0.00    -0.002 A 
ATOM      4  C   UNL     1       1.493  -2.207   3.238  0.00  0.00    +0.047 A 
ATOM      5  C   UNL     1       2.626  -2.178   4.032  0.00  0.00    +0.142 A 
ATOM      6  C   UNL     1       3.554  -3.204   3.951  0.00  0.00    +0.077 A 
ATOM      7  C   UNL     1       3.347  -4.255   3.078  0.00  0.00    +0.043 A 
ATOM      8  C   UNL     1       2.212  -4.286   2.288  0.00  0.00    +0.048 A 
ATOM      9 CL   UNL     1       1.949  -5.609   1.196  0.00  0.00    -0.083 Cl
ATOM     10 CL   UNL     1       4.976  -3.168   4.946  0.00  0.00    -0.081 Cl
ATOM     11  F   UNL     1       2.827  -1.149   4.884  0.00  0.00    -0.204 F 
ENDBRANCH   1   3
BRANCH   1  16
ATOM     12  C   UNL     1      -0.018   1.503   0.010  0.00  0.00    +0.069 C 
ATOM     13  C   UNL     1       0.002  -0.004   0.002  0.00  0.00    +0.080 A 
ATOM     14  C   UNL     1       0.008  -0.815  -1.136  0.00  0.00    +0.103 A 
ATOM     15  C   UNL     1       0.027  -2.113  -0.724  0.00  0.00    +0.134 A 
ATOM     16  N   UNL     1       0.034  -2.109   0.634  0.00  0.00    -0.242 N 
ATOM     17  N   UNL     1       0.023  -0.775   1.059  0.00  0.00    -0.173 NA
ATOM     18 CL   UNL     1      -0.008  -0.266  -2.783  0.00  0.00    -0.078 Cl
BRANCH  15  19
ATOM     19  N   UNL     1       0.039  -3.238  -1.545  0.00  0.00    -0.342 N 
ATOM     20  H   UNL     1       0.033  -3.135  -2.510  0.00  0.00    +0.144 HD
ATOM     21  H   UNL     1       0.052  -4.125  -1.153  0.00  0.00    +0.144 HD
ENDBRANCH  15  19
ENDBRANCH   1  16
TORSDOF 3
