REMARK  Name = ZINC63506406
REMARK  3 active torsions:
REMARK  status: ('A' for Active; 'I' for Inactive)
REMARK    1  A    between atoms: C_1  and  C_2
REMARK    2  A    between atoms: C_5  and  C_8
REMARK    3  A    between atoms: N_25  and  C_26
REMARK                            x       y       z     vdW  Elec       q    Type
REMARK                         _______ _______ _______ _____ _____    ______ ____
ROOT
ATOM      1  C   UNL     1       0.455  -4.782   0.177  0.00  0.00    +0.134 C 
ATOM      2  C   UNL     1       1.821  -5.200   0.731  0.00  0.00    +0.131 C 
ATOM      3  C   UNL     1       1.966  -4.523   2.088  0.00  0.00    -0.035 C 
ATOM      4  C   UNL     1       3.089  -3.816   2.037  0.00  0.00    -0.001 A 
ATOM      5  C   UNL     1       3.787  -3.012   3.052  0.00  0.00    +0.010 A 
ATOM      6  C   UNL     1       4.932  -2.400   2.648  0.00  0.00    +0.001 A 
ATOM      7  C   UNL     1       5.445  -2.506   1.352  0.00  0.00    +0.002 A 
ATOM      8  C   UNL     1       4.871  -3.227   0.356  0.00  0.00    +0.026 A 
ATOM      9  C   UNL     1       3.664  -3.921   0.661  0.00  0.00    +0.043 A 
ATOM     10  N   UNL     1       2.920  -4.705  -0.100  0.00  0.00    -0.375 N 
ATOM     11  C   UNL     1       0.922  -4.646   3.171  0.00  0.00    +0.052 C 
ATOM     12  C   UNL     1      -0.431  -4.300   2.522  0.00  0.00    +0.114 C 
ATOM     13  N   UNL     1      -0.546  -4.995   1.235  0.00  0.00    -0.276 N 
ATOM     14  C   UNL     1      -1.577  -5.836   1.018  0.00  0.00    +0.307 C 
ATOM     15  O   UNL     1      -1.636  -6.473  -0.016  0.00  0.00    -0.252 OA
ATOM     16  N   UNL     1      -2.543  -5.972   1.949  0.00  0.00    -0.268 N 
ATOM     17  H   UNL     1      -2.511  -5.443   2.761  0.00  0.00    +0.156 HD
ATOM     18  H   UNL     1       3.063  -4.916  -1.035  0.00  0.00    +0.160 HD
ENDROOT
BRANCH   1  23
ATOM     19  C   UNL     1       0.575   0.800  -1.311  0.00  0.00    +0.044 C 
ATOM     20  C   UNL     1       0.543  -0.656  -0.923  0.00  0.00    -0.050 A 
ATOM     21  C   UNL     1       0.882  -1.036   0.362  0.00  0.00    +0.004 A 
ATOM     22  C   UNL     1       0.853  -2.371   0.718  0.00  0.00    +0.006 A 
ATOM     23  C   UNL     1       0.485  -3.327  -0.210  0.00  0.00    -0.025 A 
ATOM     24  C   UNL     1       0.146  -2.947  -1.496  0.00  0.00    +0.006 A 
ATOM     25  C   UNL     1       0.170  -1.611  -1.851  0.00  0.00    +0.004 A 
ENDBRANCH   1  23
BRANCH  16  26
ATOM     26  C   UNL     1      -3.591  -6.876   1.742  0.00  0.00    +0.049 A 
ATOM     27  C   UNL     1      -3.907  -7.295   0.457  0.00  0.00    +0.024 A 
ATOM     28  C   UNL     1      -4.941  -8.187   0.256  0.00  0.00    +0.002 A 
ATOM     29  C   UNL     1      -5.664  -8.665   1.335  0.00  0.00    +0.001 A 
ATOM     30  C   UNL     1      -5.353  -8.251   2.617  0.00  0.00    +0.017 A 
ATOM     31  C   UNL     1      -4.315  -7.362   2.825  0.00  0.00    +0.039 A 
ATOM     32 BR   UNL     1      -3.885  -6.801   4.579  0.00  0.00    -0.048 Br
ENDBRANCH  16  26
TORSDOF 2
