REMARK  Name = ZINC39688759
REMARK  8 active torsions:
REMARK  status: ('A' for Active; 'I' for Inactive)
REMARK    1  A    between atoms: C_1  and  C_2
REMARK    2  A    between atoms: C_3  and  C_13
REMARK    3  A    between atoms: C_4  and  C_7
REMARK    4  A    between atoms: C_17  and  C_26
REMARK    5  A    between atoms: N_28  and  C_29
REMARK    6  A    between atoms: C_29  and  C_31
REMARK    7  A    between atoms: C_29  and  C_32
REMARK    8  A    between atoms: C_32  and  C_33
REMARK                            x       y       z     vdW  Elec       q    Type
REMARK                         _______ _______ _______ _____ _____    ______ ____
ROOT
ATOM      1  C   UNL     1      -2.268  -0.359   0.119  0.00  0.00    +0.252 C 
ATOM      2  O   UNL     1      -2.999  -0.298  -0.852  0.00  0.00    -0.270 OA
ATOM      3  N   UNL     1      -2.765  -0.132   1.351  0.00  0.00    -0.296 N 
ATOM      4  C   UNL     1      -2.022  -0.064   2.631  0.00  0.00    +0.121 C 
ATOM      5  C   UNL     1      -2.691   1.091   3.410  0.00  0.00    +0.100 C 
ATOM      6  C   UNL     1      -4.106   1.197   2.816  0.00  0.00    -0.004 C 
ATOM      7  C   UNL     1      -4.177   0.113   1.731  0.00  0.00    +0.115 C 
ATOM      8  C   UNL     1      -5.152   0.935   3.895  0.00  0.00    -0.010 C 
ATOM      9  C   UNL     1      -6.551   1.103   3.294  0.00  0.00    -0.082 C 
ATOM     10  N   UNL     1      -6.697   2.463   2.762  0.00  0.00    +0.379 N 
ATOM     11  C   UNL     1      -5.748   2.675   1.662  0.00  0.00    -0.082 C 
ATOM     12  C   UNL     1      -4.316   2.574   2.194  0.00  0.00    -0.010 C 
ATOM     13  H   UNL     1      -7.638   2.591   2.422  0.00  0.00    -0.086 HD
ATOM     14  H   UNL     1      -6.514   3.132   3.496  0.00  0.00    -0.086 HD
ENDROOT
BRANCH   1  17
ATOM     15  C   UNL     1       0.003   1.680  -0.553  0.00  0.00    +0.090 C 
ATOM     16  C   UNL     1       0.161   0.195  -0.345  0.00  0.00    +0.147 A 
ATOM     17  C   UNL     1      -0.842  -0.682  -0.052  0.00  0.00    +0.106 A 
ATOM     18  C   UNL     1      -0.223  -2.011   0.060  0.00  0.00    +0.126 A 
ATOM     19  N   UNL     1       1.057  -1.855  -0.163  0.00  0.00    -0.077 NA
ATOM     20  O   UNL     1       1.306  -0.488  -0.422  0.00  0.00    -0.359 OA
BRANCH  18  21
ATOM     21  C   UNL     1      -0.917  -3.285   0.367  0.00  0.00    +0.004 A 
ATOM     22  C   UNL     1      -2.003  -3.297   1.241  0.00  0.00    +0.010 A 
ATOM     23  C   UNL     1      -2.646  -4.486   1.522  0.00  0.00    +0.001 A 
ATOM     24  C   UNL     1      -2.213  -5.664   0.940  0.00  0.00    +0.000 A 
ATOM     25  C   UNL     1      -1.136  -5.658   0.073  0.00  0.00    +0.001 A 
ATOM     26  C   UNL     1      -0.490  -4.474  -0.221  0.00  0.00    +0.010 A 
ENDBRANCH  18  21
ENDBRANCH   1  17
BRANCH   5  27
ATOM     27  C   UNL     1      -1.933   2.376   3.197  0.00  0.00    +0.218 C 
ATOM     28  O   UNL     1      -1.278   2.534   2.188  0.00  0.00    -0.275 OA
ATOM     29  N   UNL     1      -1.982   3.350   4.127  0.00  0.00    -0.312 N 
ATOM     30  H   UNL     1      -2.446   3.197   4.965  0.00  0.00    +0.149 HD
BRANCH  29  31
ATOM     31  C   UNL     1      -1.336   4.640   3.872  0.00  0.00    +0.074 C 
ATOM     32  C   UNL     1      -2.326   5.579   3.180  0.00  0.00    +0.028 C 
BRANCH  31  33
ATOM     33  C   UNL     1      -0.889   5.258   5.199  0.00  0.00    +0.057 C 
BRANCH  33  34
ATOM     34  C   UNL     1       0.196   4.409   5.808  0.00  0.00    -0.045 A 
ATOM     35  C   UNL     1      -0.137   3.315   6.586  0.00  0.00    +0.006 A 
ATOM     36  C   UNL     1       0.858   2.535   7.145  0.00  0.00    +0.038 A 
ATOM     37  C   UNL     1       2.188   2.850   6.926  0.00  0.00    +0.123 A 
ATOM     38  C   UNL     1       2.521   3.945   6.147  0.00  0.00    +0.038 A 
ATOM     39  C   UNL     1       1.524   4.721   5.585  0.00  0.00    +0.006 A 
ATOM     40  F   UNL     1       3.162   2.088   7.472  0.00  0.00    -0.205 F 
ENDBRANCH  33  34
ENDBRANCH  31  33
ENDBRANCH  29  31
ENDBRANCH   5  27
TORSDOF 6
