REMARK  Name = ZINC57955927
REMARK  5 active torsions:
REMARK  status: ('A' for Active; 'I' for Inactive)
REMARK    1  A    between atoms: C_1  and  C_2
REMARK    2  A    between atoms: C_4  and  C_19
REMARK    3  A    between atoms: C_5  and  C_9
REMARK    4  A    between atoms: C_6  and  C_8
REMARK    5  A    between atoms: C_9  and  C_10
REMARK                            x       y       z     vdW  Elec       q    Type
REMARK                         _______ _______ _______ _____ _____    ______ ____
ROOT
ATOM      1  C   UNL     1       0.022  -4.289  -0.066  0.00  0.00    +0.048 C 
ENDROOT
BRANCH   1   6
ATOM      2  C   UNL     1      -0.119   1.479   0.246  0.00  0.00    +0.044 C 
ATOM      3  C   UNL     1      -0.082  -0.025   0.164  0.00  0.00    -0.050 A 
ATOM      4  C   UNL     1       0.319  -0.644  -1.004  0.00  0.00    +0.007 A 
ATOM      5  C   UNL     1       0.353  -2.024  -1.079  0.00  0.00    -0.047 A 
ATOM      6  C   UNL     1      -0.014  -2.785   0.015  0.00  0.00    -0.041 A 
ATOM      7  C   UNL     1      -0.415  -2.165   1.185  0.00  0.00    -0.047 A 
ATOM      8  C   UNL     1      -0.444  -0.785   1.260  0.00  0.00    +0.007 A 
ATOM      9  C   UNL     1      -0.815  -2.994   2.377  0.00  0.00    +0.044 C 
ATOM     10  C   UNL     1       0.789  -2.700  -2.354  0.00  0.00    +0.044 C 
ENDBRANCH   1   6
BRANCH   1  11
ATOM     11  C   UNL     1      -1.400  -4.824  -0.254  0.00  0.00    +0.080 C 
ATOM     12  C   UNL     1      -1.370  -6.356  -0.290  0.00  0.00    +0.022 C 
ATOM     13  C   UNL     1      -2.784  -6.864  -0.590  0.00  0.00    +0.097 C 
ATOM     14  C   UNL     1      -3.273  -6.239  -1.870  0.00  0.00    +0.219 C 
ATOM     15  O   UNL     1      -4.066  -6.841  -2.561  0.00  0.00    -0.275 OA
ATOM     16  N   UNL     1      -2.848  -5.028  -2.260  0.00  0.00    -0.256 N 
ATOM     17  C   UNL     1      -1.964  -4.308  -1.551  0.00  0.00    +0.223 C 
ATOM     18  O   UNL     1      -1.613  -3.224  -1.963  0.00  0.00    -0.275 OA
ATOM     19  H   UNL     1      -3.193  -4.657  -3.087  0.00  0.00    +0.157 HD
ENDBRANCH   1  11
TORSDOF 2
