REMARK  Name = ZINC12561846
REMARK  8 active torsions:
REMARK  status: ('A' for Active; 'I' for Inactive)
REMARK    1  A    between atoms: C_1  and  C_2
REMARK    2  A    between atoms: C_2  and  C_3
REMARK    3  A    between atoms: C_2  and  C_4
REMARK    4  A    between atoms: C_2  and  C_5
REMARK    5  A    between atoms: C_8  and  C_11
REMARK    6  A    between atoms: N_13  and  N_14
REMARK    7  A    between atoms: C_15  and  C_17
REMARK    8  A    between atoms: N_23  and  C_24
REMARK                            x       y       z     vdW  Elec       q    Type
REMARK                         _______ _______ _______ _____ _____    ______ ____
ROOT
ATOM      1  N   UNL     1       0.721  -2.736  -0.521  0.00  0.00    -0.229 N 
ATOM      2  C   UNL     1       1.648  -1.764  -0.403  0.00  0.00    +0.278 C 
ATOM      3  O   UNL     1       2.831  -2.038  -0.489  0.00  0.00    -0.267 OA
ATOM      4  H   UNL     1      -0.222  -2.509  -0.529  0.00  0.00    +0.173 HD
ENDROOT
BRANCH   2   5
ATOM      5  C   UNL     1       1.230  -0.378  -0.171  0.00  0.00    +0.128 A 
ATOM      6  C   UNL     1       2.034   0.709  -0.149  0.00  0.00    +0.116 A 
ATOM      7  N   UNL     1       1.252   1.805   0.098  0.00  0.00    -0.339 N 
ATOM      8  H   UNL     1       1.567   2.720   0.168  0.00  0.00    +0.167 HD
ATOM      9  C   UNL     1      -0.026   1.404   0.229  0.00  0.00    +0.163 A 
ATOM     10  S   UNL     1      -1.367   2.422   0.538  0.00  0.00    -0.013 S 
ATOM     11  N   UNL     1      -0.074   0.067   0.069  0.00  0.00    -0.284 N 
BRANCH  11  12
ATOM     12  C   UNL     1      -1.223  -0.733   0.131  0.00  0.00    +0.049 A 
ATOM     13  C   UNL     1      -1.405  -1.606   1.196  0.00  0.00    +0.029 A 
ATOM     14  C   UNL     1      -2.540  -2.390   1.257  0.00  0.00    +0.040 A 
ATOM     15  C   UNL     1      -3.491  -2.314   0.254  0.00  0.00    +0.124 A 
ATOM     16  C   UNL     1      -3.309  -1.448  -0.811  0.00  0.00    +0.040 A 
ATOM     17  C   UNL     1      -2.178  -0.658  -0.875  0.00  0.00    +0.029 A 
ATOM     18  F   UNL     1      -4.599  -3.086   0.314  0.00  0.00    -0.205 F 
ENDBRANCH  11  12
ENDBRANCH   2   5
BRANCH   1  21
ATOM     19  C   UNL     1       0.194  -5.046  -0.752  0.00  0.00    +0.260 C 
ATOM     20  O   UNL     1      -0.987  -4.762  -0.762  0.00  0.00    -0.269 OA
ATOM     21  N   UNL     1       1.121  -4.075  -0.634  0.00  0.00    -0.230 N 
ATOM     22  H   UNL     1       2.064  -4.302  -0.626  0.00  0.00    +0.173 HD
BRANCH  19  26
ATOM     23  C   UNL     1       1.405  -9.104  -1.093  0.00  0.00    -0.042 A 
ATOM     24  C   UNL     1       0.059  -8.783  -1.104  0.00  0.00    +0.005 A 
ATOM     25  C   UNL     1      -0.341  -7.468  -0.993  0.00  0.00    +0.013 A 
ATOM     26  C   UNL     1       0.616  -6.459  -0.870  0.00  0.00    +0.038 A 
ATOM     27  C   UNL     1       1.972  -6.788  -0.865  0.00  0.00    +0.013 A 
ATOM     28  C   UNL     1       2.358  -8.108  -0.972  0.00  0.00    +0.005 A 
BRANCH  23  30
ATOM     29  C   UNL     1       1.326 -11.117  -2.538  0.00  0.00    +0.015 C 
ATOM     30  C   UNL     1       1.834 -10.543  -1.214  0.00  0.00    -0.013 C 
ATOM     31  C   UNL     1       3.361 -10.625  -1.176  0.00  0.00    +0.015 C 
ATOM     32  C   UNL     1       1.251 -11.349  -0.051  0.00  0.00    +0.015 C 
ENDBRANCH  23  30
ENDBRANCH  19  26
ENDBRANCH   1  21
TORSDOF 5
