REMARK  Name = ZINC35659357
REMARK  3 active torsions:
REMARK  status: ('A' for Active; 'I' for Inactive)
REMARK    1  A    between atoms: C_3  and  N_20
REMARK    2  A    between atoms: C_4  and  C_8
REMARK    3  A    between atoms: C_10  and  C_13
REMARK                            x       y       z     vdW  Elec       q    Type
REMARK                         _______ _______ _______ _____ _____    ______ ____
ROOT
ATOM      1  C   UNL     1       3.835  -0.363   0.299  0.00  0.00    +0.263 A 
ATOM      2  N   UNL     1       4.145  -1.637   0.393  0.00  0.00    -0.187 NA
ATOM      3  C   UNL     1       5.473  -1.775   0.526  0.00  0.00    +0.202 A 
ATOM      4  N   UNL     1       6.026  -0.587   0.518  0.00  0.00    -0.056 NA
ATOM      5  O   UNL     1       4.973   0.352   0.365  0.00  0.00    -0.332 OA
ENDROOT
BRANCH   1   9
ATOM      6  C   UNL     1      -0.084   1.221  -0.152  0.00  0.00    +0.005 A 
ATOM      7  C   UNL     1       0.936   1.681  -0.962  0.00  0.00    +0.023 A 
ATOM      8  C   UNL     1       2.219   1.172  -0.824  0.00  0.00    +0.040 A 
ATOM      9  C   UNL     1       2.476   0.187   0.143  0.00  0.00    +0.095 A 
ATOM     10  C   UNL     1       1.434  -0.270   0.957  0.00  0.00    +0.137 A 
ATOM     11  C   UNL     1       0.163   0.250   0.803  0.00  0.00    +0.039 A 
ATOM     12  F   UNL     1       1.670  -1.218   1.890  0.00  0.00    -0.205 F 
BRANCH   8  13
ATOM     13  N   UNL     1       3.246   1.634  -1.639  0.00  0.00    -0.357 N 
ATOM     14  H   UNL     1       3.089   2.377  -2.243  0.00  0.00    +0.142 HD
ATOM     15  H   UNL     1       4.120   1.214  -1.605  0.00  0.00    +0.142 HD
ENDBRANCH   8  13
ENDBRANCH   1   9
BRANCH   3  16
ATOM     16  C   UNL     1       6.198  -3.064   0.659  0.00  0.00    +0.023 A 
ATOM     17  C   UNL     1       5.494  -4.266   0.648  0.00  0.00    +0.013 A 
ATOM     18  C   UNL     1       6.172  -5.461   0.772  0.00  0.00    +0.016 A 
ATOM     19  C   UNL     1       7.549  -5.467   0.908  0.00  0.00    +0.018 A 
ATOM     20  C   UNL     1       8.253  -4.276   0.920  0.00  0.00    +0.016 A 
ATOM     21  C   UNL     1       7.585  -3.075   0.791  0.00  0.00    +0.013 A 
ATOM     22 BR   UNL     1       8.472  -7.109   1.079  0.00  0.00    -0.050 Br
ENDBRANCH   3  16
TORSDOF 3
