REMARK  Name = ZINC39664422
REMARK  6 active torsions:
REMARK  status: ('A' for Active; 'I' for Inactive)
REMARK    1  A    between atoms: C_4  and  C_7
REMARK    2  A    between atoms: C_7  and  C_9
REMARK    3  A    between atoms: C_7  and  N_34
REMARK    4  A    between atoms: C_9  and  N_10
REMARK    5  A    between atoms: C_11  and  C_13
REMARK    6  A    between atoms: C_24  and  C_26
REMARK                            x       y       z     vdW  Elec       q    Type
REMARK                         _______ _______ _______ _____ _____    ______ ____
ROOT
ATOM      1  C   UNL     1       9.815  -6.635  -0.195  0.00  0.00    +0.100 C 
ATOM      2  C   UNL     1       8.437  -7.324  -0.315  0.00  0.00    +0.121 C 
ATOM      3  N   UNL     1       7.758  -6.613  -1.424  0.00  0.00    -0.296 N 
ATOM      4  C   UNL     1       8.829  -6.380  -2.422  0.00  0.00    +0.115 C 
ATOM      5  C   UNL     1      10.070  -6.020  -1.582  0.00  0.00    -0.004 C 
ATOM      6  C   UNL     1      11.324  -6.625  -2.205  0.00  0.00    -0.010 C 
ATOM      7  C   UNL     1      11.590  -5.956  -3.557  0.00  0.00    -0.082 C 
ATOM      8  N   UNL     1      11.763  -4.511  -3.364  0.00  0.00    +0.379 N 
ATOM      9  C   UNL     1      10.521  -3.922  -2.851  0.00  0.00    -0.082 C 
ATOM     10  C   UNL     1      10.210  -4.505  -1.470  0.00  0.00    -0.010 C 
ATOM     11  C   UNL     1       6.460  -6.260  -1.507  0.00  0.00    +0.249 C 
ATOM     12  O   UNL     1       6.001  -5.874  -2.564  0.00  0.00    -0.270 OA
ATOM     13  H   UNL     1      12.509  -4.348  -2.704  0.00  0.00    -0.086 HD
ATOM     14  H   UNL     1      11.999  -4.081  -4.246  0.00  0.00    -0.086 HD
ENDROOT
BRANCH  11  15
ATOM     15  C   UNL     1       5.594  -6.342  -0.313  0.00  0.00    +0.073 A 
ATOM     16  C   UNL     1       5.563  -5.290   0.605  0.00  0.00    +0.036 A 
ATOM     17  C   UNL     1       4.753  -5.372   1.718  0.00  0.00    +0.042 A 
ATOM     18  C   UNL     1       3.969  -6.496   1.928  0.00  0.00    +0.023 A 
ATOM     19  C   UNL     1       3.994  -7.542   1.025  0.00  0.00    +0.040 A 
ATOM     20  C   UNL     1       4.798  -7.471  -0.099  0.00  0.00    +0.136 A 
ATOM     21  F   UNL     1       4.817  -8.491  -0.984  0.00  0.00    -0.205 F 
ATOM     22 CL   UNL     1       4.714  -4.065   2.860  0.00  0.00    -0.084 Cl
ENDBRANCH  11  15
BRANCH   1  24
ATOM     23  N   UNL     1      10.911  -5.165   1.465  0.00  0.00    -0.313 N 
ATOM     24  C   UNL     1       9.773  -5.558   0.857  0.00  0.00    +0.218 C 
ATOM     25  O   UNL     1       8.717  -5.043   1.158  0.00  0.00    -0.275 OA
ATOM     26  H   UNL     1      11.764  -5.524   1.175  0.00  0.00    +0.149 HD
BRANCH  23  27
ATOM     27  C   UNL     1      10.858  -4.198   2.564  0.00  0.00    +0.127 C 
BRANCH  27  28
ATOM     28  C   UNL     1      12.256  -4.027   3.160  0.00  0.00    +0.104 C 
BRANCH  28  32
ATOM     29  C   UNL     1      14.432  -1.143   0.880  0.00  0.00    +0.000 A 
ATOM     30  C   UNL     1      14.687  -2.492   0.713  0.00  0.00    +0.000 A 
ATOM     31  C   UNL     1      13.983  -3.425   1.451  0.00  0.00    +0.005 A 
ATOM     32  C   UNL     1      13.024  -3.009   2.357  0.00  0.00    -0.029 A 
ATOM     33  C   UNL     1      12.770  -1.661   2.524  0.00  0.00    +0.005 A 
ATOM     34  C   UNL     1      13.473  -0.728   1.785  0.00  0.00    +0.000 A 
ENDBRANCH  28  32
BRANCH  28  35
ATOM     35  N   UNL     1      12.142  -3.567   4.551  0.00  0.00    -0.290 NA
ATOM     36  C   UNL     1      12.173  -4.702   5.485  0.00  0.00    +0.113 C 
ATOM     37  C   UNL     1      12.112  -4.176   6.921  0.00  0.00    +0.175 C 
ATOM     38  O   UNL     1      10.938  -3.374   7.081  0.00  0.00    -0.377 OA
ATOM     39  C   UNL     1      10.876  -2.260   6.187  0.00  0.00    +0.175 C 
ATOM     40  C   UNL     1      10.925  -2.767   4.743  0.00  0.00    +0.113 C 
ENDBRANCH  28  35
ENDBRANCH  27  28
ENDBRANCH  23  27
ENDBRANCH   1  24
TORSDOF 6
