REMARK  Name = ZINC16292815
REMARK  4 active torsions:
REMARK  status: ('A' for Active; 'I' for Inactive)
REMARK    1  A    between atoms: C_1  and  C_2
REMARK    2  A    between atoms: C_5  and  N_8
REMARK    3  A    between atoms: C_11  and  C_18
REMARK    4  A    between atoms: N_19  and  C_20
REMARK                            x       y       z     vdW  Elec       q    Type
REMARK                         _______ _______ _______ _____ _____    ______ ____
ROOT
ATOM      1  N   UNL     1       1.427   1.671  -0.367  0.00  0.00    -0.221 N 
ATOM      2  C   UNL     1       2.008   0.452  -0.392  0.00  0.00    +0.243 C 
ATOM      3  O   UNL     1       3.208   0.330  -0.517  0.00  0.00    -0.274 OA
ATOM      4  C   UNL     1       1.103  -0.759  -0.259  0.00  0.00    +0.203 C 
ATOM      5  C   UNL     1      -0.379  -0.475  -0.110  0.00  0.00    +0.236 C 
ATOM      6  O   UNL     1      -1.183  -1.375   0.003  0.00  0.00    -0.274 OA
ATOM      7  N   UNL     1      -0.770   0.817  -0.107  0.00  0.00    -0.266 N 
ATOM      8  C   UNL     1       0.105   1.822  -0.230  0.00  0.00    +0.150 C 
ATOM      9  S   UNL     1      -0.513   3.419  -0.212  0.00  0.00    -0.018 S 
ATOM     10  H   UNL     1      -1.714   1.023  -0.016  0.00  0.00    +0.157 HD
ENDROOT
BRANCH   1  15
ATOM     11  C   UNL     1       4.691   6.288  -0.854  0.00  0.00    +0.044 C 
ATOM     12  C   UNL     1       3.824   5.062  -0.725  0.00  0.00    -0.050 A 
ATOM     13  C   UNL     1       3.905   4.277   0.410  0.00  0.00    +0.005 A 
ATOM     14  C   UNL     1       3.112   3.152   0.532  0.00  0.00    +0.024 A 
ATOM     15  C   UNL     1       2.233   2.811  -0.487  0.00  0.00    +0.043 A 
ATOM     16  C   UNL     1       2.159   3.598  -1.629  0.00  0.00    +0.024 A 
ATOM     17  C   UNL     1       2.950   4.724  -1.742  0.00  0.00    +0.005 A 
ENDBRANCH   1  15
BRANCH   4  18
ATOM     18  C   UNL     1       1.295  -1.623  -1.479  0.00  0.00    +0.106 C 
ATOM     19  N   UNL     1       1.910  -2.755  -1.379  0.00  0.00    -0.258 NA
BRANCH  19  20
ATOM     20  C   UNL     1       2.257  -3.238  -0.146  0.00  0.00    +0.071 A 
ATOM     21  C   UNL     1       1.299  -3.389   0.843  0.00  0.00    +0.028 A 
ATOM     22  C   UNL     1       1.643  -3.885   2.095  0.00  0.00    +0.003 A 
ATOM     23  C   UNL     1       2.930  -4.224   2.389  0.00  0.00    +0.008 A 
ATOM     24  C   UNL     1       3.936  -4.082   1.417  0.00  0.00    -0.016 A 
ATOM     25  C   UNL     1       3.602  -3.584   0.134  0.00  0.00    +0.007 A 
ATOM     26  C   UNL     1       4.606  -3.444  -0.834  0.00  0.00    +0.010 A 
ATOM     27  C   UNL     1       5.889  -3.787  -0.529  0.00  0.00    +0.001 A 
ATOM     28  C   UNL     1       6.220  -4.276   0.732  0.00  0.00    +0.001 A 
ATOM     29  C   UNL     1       5.270  -4.426   1.696  0.00  0.00    +0.008 A 
ENDBRANCH  19  20
ENDBRANCH   4  18
TORSDOF 3
