REMARK  Name = ZINC37728976
REMARK  11 active torsions:
REMARK  status: ('A' for Active; 'I' for Inactive)
REMARK    1  A    between atoms: C_1  and  C_2
REMARK    2  A    between atoms: C_2  and  C_3
REMARK    3  A    between atoms: C_3  and  N_4
REMARK    4  A    between atoms: C_5  and  C_7
REMARK    5  A    between atoms: C_7  and  C_9
REMARK    6  A    between atoms: C_7  and  O_10
REMARK    7  A    between atoms: O_10  and  C_11
REMARK    8  A    between atoms: C_12  and  C_19
REMARK    9  A    between atoms: C_19  and  C_20
REMARK   10  A    between atoms: C_20  and  C_22
REMARK   11  A    between atoms: C_20  and  N_23
REMARK                            x       y       z     vdW  Elec       q    Type
REMARK                         _______ _______ _______ _____ _____    ______ ____
ROOT
ATOM      1  C   UNL     1       2.982  -5.915  -3.168  0.00  0.00    +0.143 A 
ATOM      2  C   UNL     1       4.246  -5.703  -2.639  0.00  0.00    -0.004 A 
ATOM      3  C   UNL     1       5.113  -6.766  -2.475  0.00  0.00    +0.027 A 
ATOM      4  C   UNL     1       4.721  -8.042  -2.838  0.00  0.00    +0.043 A 
ATOM      5  C   UNL     1       3.460  -8.257  -3.366  0.00  0.00    +0.043 A 
ATOM      6  C   UNL     1       2.587  -7.196  -3.526  0.00  0.00    +0.084 A 
ATOM      7 CL   UNL     1       1.003  -7.466  -4.182  0.00  0.00    -0.080 Cl
ATOM      8 CL   UNL     1       5.812  -9.376  -2.631  0.00  0.00    -0.083 Cl
ENDROOT
BRANCH   1   9
ATOM      9  O   UNL     1       2.128  -4.869  -3.330  0.00  0.00    -0.478 OA
BRANCH   9  10
ATOM     10  C   UNL     1       1.360  -4.476  -2.191  0.00  0.00    +0.256 C 
ATOM     11  C   UNL     1      -0.002  -5.173  -2.228  0.00  0.00    +0.062 C 
BRANCH  10  13
ATOM     12  N   UNL     1       0.549  -2.370  -1.177  0.00  0.00    -0.312 N 
ATOM     13  C   UNL     1       1.161  -2.982  -2.211  0.00  0.00    +0.254 C 
ATOM     14  O   UNL     1       1.551  -2.331  -3.156  0.00  0.00    -0.272 OA
ATOM     15  H   UNL     1       0.238  -2.891  -0.420  0.00  0.00    +0.149 HD
BRANCH  12  16
ATOM     16  C   UNL     1       0.356  -0.918  -1.196  0.00  0.00    +0.104 C 
BRANCH  16  18
ATOM     17  C   UNL     1      -0.559   1.035   0.065  0.00  0.00    +0.005 C 
ATOM     18  C   UNL     1      -0.357  -0.482   0.085  0.00  0.00    +0.015 C 
ENDBRANCH  16  18
ENDBRANCH  12  16
ENDBRANCH  10  13
ENDBRANCH   9  10
ENDBRANCH   1   9
BRANCH   2  19
ATOM     19  C   UNL     1       4.675  -4.313  -2.244  0.00  0.00    +0.022 C 
BRANCH  19  20
ATOM     20  C   UNL     1       5.107  -3.539  -3.490  0.00  0.00    -0.074 C 
ATOM     21  C   UNL     1       5.445  -2.097  -3.104  0.00  0.00    -0.014 C 
BRANCH  20  22
ATOM     22  N   UNL     1       6.292  -4.179  -4.078  0.00  0.00    +0.380 N 
ATOM     23  H   UNL     1       6.046  -5.099  -4.412  0.00  0.00    -0.090 HD
ATOM     24  H   UNL     1       6.628  -3.620  -4.848  0.00  0.00    -0.090 HD
ATOM     25  H   UNL     1       7.014  -4.256  -3.378  0.00  0.00    -0.090 HD
ENDBRANCH  20  22
ENDBRANCH  19  20
ENDBRANCH   2  19
TORSDOF 8
