REMARK  Name = ZINC50583414
REMARK  4 active torsions:
REMARK  status: ('A' for Active; 'I' for Inactive)
REMARK    1  A    between atoms: C_1  and  C_2
REMARK    2  A    between atoms: C_4  and  N_10
REMARK    3  A    between atoms: C_7  and  C_8
REMARK    4  A    between atoms: C_8  and  O_9
REMARK                            x       y       z     vdW  Elec       q    Type
REMARK                         _______ _______ _______ _____ _____    ______ ____
ROOT
ATOM      1  C   UNL     1       0.013   1.503   0.010  0.00  0.00    +0.044 C 
ATOM      2  C   UNL     1       0.017  -0.004   0.002  0.00  0.00    -0.043 A 
ATOM      3  C   UNL     1       0.021  -0.687  -1.198  0.00  0.00    +0.026 A 
ATOM      4  C   UNL     1       0.025  -2.076  -1.205  0.00  0.00    +0.030 A 
ATOM      5  C   UNL     1       0.026  -2.773  -0.004  0.00  0.00    +0.023 A 
ATOM      6  C   UNL     1       0.022  -2.084   1.193  0.00  0.00    +0.008 A 
ATOM      7  C   UNL     1       0.023  -0.701   1.196  0.00  0.00    -0.019 A 
ENDROOT
BRANCH   4   8
ATOM      8  N   UNL     1       0.028  -2.770  -2.417  0.00  0.00    -0.322 N 
ATOM      9  C   UNL     1      -0.093  -2.041  -3.689  0.00  0.00    +0.133 C 
ATOM     10  C   UNL     1       1.032  -2.531  -4.611  0.00  0.00    +0.179 C 
ATOM     11  O   UNL     1       0.942  -3.951  -4.721  0.00  0.00    -0.373 OA
ATOM     12  C   UNL     1       1.161  -4.675  -3.510  0.00  0.00    +0.139 C 
ATOM     13  C   UNL     1       0.158  -4.223  -2.432  0.00  0.00    +0.102 C 
ATOM     14  C   UNL     1      -1.167  -4.891  -2.830  0.00  0.00    +0.025 C 
ATOM     15  C   UNL     1      -0.795  -6.116  -3.686  0.00  0.00    +0.004 C 
ATOM     16  C   UNL     1       0.734  -6.146  -3.767  0.00  0.00    +0.033 C 
ENDBRANCH   4   8
BRANCH   7  17
ATOM     17  C   UNL     1       0.025   0.048   2.504  0.00  0.00    +0.191 C 
BRANCH  17  18
ATOM     18  O   UNL     1       0.031  -0.884   3.587  0.00  0.00    -0.390 OA
ATOM     19  H   UNL     1       0.033  -0.472   4.461  0.00  0.00    +0.210 HD
ENDBRANCH  17  18
ENDBRANCH   7  17
TORSDOF 3
