REMARK  Name = ZINC41677176
REMARK  7 active torsions:
REMARK  status: ('A' for Active; 'I' for Inactive)
REMARK    1  A    between atoms: C_1  and  C_2
REMARK    2  A    between atoms: C_2  and  C_3
REMARK    3  A    between atoms: C_2  and  C_4
REMARK    4  A    between atoms: C_4  and  C_6
REMARK    5  A    between atoms: N_8  and  C_9
REMARK    6  A    between atoms: C_9  and  C_10
REMARK    7  A    between atoms: C_10  and  S_11
REMARK                            x       y       z     vdW  Elec       q    Type
REMARK                         _______ _______ _______ _____ _____    ______ ____
ROOT
ATOM      1  C   UNL     1      -2.125  -0.137  -1.266  0.00  0.00    +0.227 C 
ATOM      2  O   UNL     1      -2.014   0.994  -1.690  0.00  0.00    -0.275 OA
ATOM      3  N   UNL     1      -2.866  -1.040  -1.939  0.00  0.00    -0.313 N 
ATOM      4  H   UNL     1      -2.954  -1.944  -1.600  0.00  0.00    +0.149 HD
ENDROOT
BRANCH   1   5
ATOM      5  C   UNL     1      -1.433  -0.534   0.013  0.00  0.00    +0.145 C 
ATOM      6 BR   UNL     1      -2.401   0.229   1.545  0.00  0.00    -0.078 Br
BRANCH   5   8
ATOM      7  C   UNL     1      -0.019   1.526   0.010  0.00  0.00    +0.009 C 
ATOM      8  C   UNL     1       0.002  -0.004   0.002  0.00  0.00    +0.005 C 
ATOM      9  C   UNL     1       0.742  -0.511   1.242  0.00  0.00    +0.009 C 
ENDBRANCH   5   8
ENDBRANCH   1   5
BRANCH   3  10
ATOM     10  C   UNL     1      -3.538  -0.654  -3.183  0.00  0.00    +0.129 C 
BRANCH  10  11
ATOM     11  C   UNL     1      -4.306  -1.855  -3.740  0.00  0.00    +0.219 C 
BRANCH  11  12
ATOM     12  S   UNL     1      -5.138  -1.377  -5.280  0.00  0.00    +0.112 S 
ATOM     13  O   UNL     1      -5.861  -2.530  -5.794  0.00  0.00    -0.145 OA
ATOM     14  O   UNL     1      -6.060  -0.290  -4.992  0.00  0.00    -0.145 OA
ATOM     15  O   UNL     1      -4.132  -0.945  -6.238  0.00  0.00    -0.048 OA
ENDBRANCH  11  12
ENDBRANCH  10  11
ENDBRANCH   3  10
TORSDOF 5
