REMARK  Name = ZINC49509104
REMARK  4 active torsions:
REMARK  status: ('A' for Active; 'I' for Inactive)
REMARK    1  A    between atoms: C_1  and  C_2
REMARK    2  A    between atoms: C_2  and  C_4
REMARK    3  A    between atoms: C_2  and  N_11
REMARK    4  A    between atoms: C_12  and  N_20
REMARK                            x       y       z     vdW  Elec       q    Type
REMARK                         _______ _______ _______ _____ _____    ______ ____
ROOT
ATOM      1  N   UNL     1       0.613  -0.391  -1.421  0.00  0.00    -0.275 N 
ATOM      2  C   UNL     1      -0.017  -0.115  -2.611  0.00  0.00    +0.106 A 
ATOM      3  C   UNL     1       0.297  -0.848  -3.722  0.00  0.00    +0.111 A 
ATOM      4  C   UNL     1       1.258  -1.866  -3.618  0.00  0.00    +0.256 A 
ATOM      5  O   UNL     1       1.554  -2.531  -4.596  0.00  0.00    -0.268 OA
ATOM      6  N   UNL     1       1.852  -2.102  -2.432  0.00  0.00    -0.275 N 
ATOM      7  H   UNL     1       2.517  -2.805  -2.358  0.00  0.00    +0.173 HD
ATOM      8  C   UNL     1       1.535  -1.368  -1.350  0.00  0.00    +0.331 A 
ATOM      9  O   UNL     1       2.087  -1.595  -0.290  0.00  0.00    -0.246 OA
ENDROOT
BRANCH   2  10
ATOM     10  N   UNL     1      -0.952   0.885  -2.683  0.00  0.00    -0.344 N 
ATOM     11  H   UNL     1      -1.349   1.237  -1.871  0.00  0.00    +0.144 HD
ATOM     12  H   UNL     1      -1.217   1.240  -3.546  0.00  0.00    +0.144 HD
ENDBRANCH   2  10
BRANCH   1  14
ATOM     13  C   UNL     1       0.421   1.881  -0.535  0.00  0.00    +0.036 C 
ATOM     14  C   UNL     1       0.284   0.389  -0.225  0.00  0.00    +0.122 C 
BRANCH  14  15
ATOM     15  C   UNL     1      -1.133   0.091   0.194  0.00  0.00    -0.006 A 
ATOM     16  C   UNL     1      -1.997  -0.534  -0.686  0.00  0.00    +0.007 A 
ATOM     17  C   UNL     1      -3.296  -0.807  -0.301  0.00  0.00    +0.000 A 
ATOM     18  C   UNL     1      -3.733  -0.456   0.963  0.00  0.00    +0.001 A 
ATOM     19  C   UNL     1      -2.870   0.169   1.843  0.00  0.00    +0.020 A 
ATOM     20  C   UNL     1      -1.567   0.438   1.460  0.00  0.00    +0.046 A 
ATOM     21 CL   UNL     1      -0.480   1.217   2.568  0.00  0.00    -0.083 Cl
ENDBRANCH  14  15
ENDBRANCH   1  14
TORSDOF 3
