REMARK  Name = ZINC36370705
REMARK  4 active torsions:
REMARK  status: ('A' for Active; 'I' for Inactive)
REMARK    1  A    between atoms: C_1  and  C_2
REMARK    2  A    between atoms: C_5  and  O_28
REMARK    3  A    between atoms: C_18  and  C_27
REMARK    4  A    between atoms: C_24  and  O_26
REMARK                            x       y       z     vdW  Elec       q    Type
REMARK                         _______ _______ _______ _____ _____    ______ ____
ROOT
ATOM      1  C   UNL     1      -0.019   1.522   0.010  0.00  0.00    +0.012 C 
ATOM      2  C   UNL     1       0.002  -0.004   0.002  0.00  0.00    -0.026 C 
ATOM      3  C   UNL     1      -1.450  -0.509   0.095  0.00  0.00    +0.010 C 
ATOM      4  C   UNL     1      -2.116   0.007   1.366  0.00  0.00    +0.032 C 
ATOM      5  C   UNL     1      -1.342  -0.420   2.610  0.00  0.00    +0.115 C 
ATOM      6  C   UNL     1       0.120   0.016   2.514  0.00  0.00    +0.035 C 
ATOM      7  C   UNL     1       0.738  -0.533   1.234  0.00  0.00    -0.002 C 
ATOM      8  C   UNL     1       2.221  -0.181   1.149  0.00  0.00    +0.004 C 
ATOM      9  C   UNL     1       2.806  -0.955  -0.035  0.00  0.00    +0.004 C 
ATOM     10  C   UNL     1       2.144  -0.507  -1.336  0.00  0.00    -0.003 C 
ATOM     11  C   UNL     1       0.625  -0.552  -1.275  0.00  0.00    -0.001 C 
ATOM     12  C   UNL     1      -0.045   0.024  -2.514  0.00  0.00    +0.005 C 
ATOM     13  C   UNL     1       0.568   1.306  -3.071  0.00  0.00    +0.010 C 
ATOM     14  C   UNL     1       2.068   1.179  -3.168  0.00  0.00    +0.004 C 
ATOM     15  C   UNL     1       2.628   0.851  -1.763  0.00  0.00    +0.008 C 
ATOM     16  C   UNL     1       4.138   1.008  -2.000  0.00  0.00    +0.081 C 
ATOM     17  C   UNL     1       4.222   2.248  -2.893  0.00  0.00    +0.162 C 
ATOM     18  O   UNL     1       5.200   2.934  -3.075  0.00  0.00    -0.295 OA
ATOM     19  C   UNL     1       2.840   2.461  -3.505  0.00  0.00    +0.186 C 
ATOM     20  C   UNL     1       2.442   0.113  -4.198  0.00  0.00    +0.014 C 
ENDROOT
BRANCH  19  21
ATOM     21  O   UNL     1       2.202   3.591  -2.913  0.00  0.00    -0.384 OA
ATOM     22  H   UNL     1       2.646   4.431  -3.091  0.00  0.00    +0.210 HD
ENDBRANCH  19  21
BRANCH   5  23
ATOM     23  O   UNL     1      -1.410  -1.841   2.757  0.00  0.00    -0.392 OA
ATOM     24  H   UNL     1      -2.309  -2.184   2.852  0.00  0.00    +0.210 HD
ENDBRANCH   5  23
TORSDOF 2
