REMARK  Name = ZINC44593769
REMARK  6 active torsions:
REMARK  status: ('A' for Active; 'I' for Inactive)
REMARK    1  A    between atoms: C_1  and  N_2
REMARK    2  A    between atoms: C_3  and  N_7
REMARK    3  A    between atoms: N_7  and  S_8
REMARK    4  A    between atoms: S_8  and  C_11
REMARK    5  A    between atoms: C_14  and  C_17
REMARK    6  A    between atoms: C_17  and  N_19
REMARK                            x       y       z     vdW  Elec       q    Type
REMARK                         _______ _______ _______ _____ _____    ______ ____
ROOT
ATOM      1  S   UNL     1      -0.072  -1.540  -3.582  0.00  0.00    +0.073 S 
ATOM      2  O   UNL     1      -0.083  -0.856  -4.828  0.00  0.00    -0.150 OA
ATOM      3  O   UNL     1       0.911  -2.513  -3.256  0.00  0.00    -0.150 OA
ENDROOT
BRANCH   1   4
ATOM      4  C   UNL     1      -1.637  -2.334  -3.429  0.00  0.00    +0.109 A 
ATOM      5  C   UNL     1      -1.802  -3.362  -2.518  0.00  0.00    +0.029 A 
ATOM      6  C   UNL     1      -3.025  -3.988  -2.393  0.00  0.00    +0.012 A 
ATOM      7  C   UNL     1      -4.098  -3.581  -3.188  0.00  0.00    +0.003 A 
ATOM      8  C   UNL     1      -3.925  -2.543  -4.106  0.00  0.00    +0.012 A 
ATOM      9  C   UNL     1      -2.698  -1.923  -4.217  0.00  0.00    +0.029 A 
BRANCH   7  10
ATOM     10  C   UNL     1      -5.410  -4.247  -3.060  0.00  0.00    +0.077 C 
ATOM     11  S   UNL     1      -5.945  -4.796  -1.530  0.00  0.00    -0.035 S 
BRANCH  10  12
ATOM     12  N   UNL     1      -6.186  -4.422  -4.148  0.00  0.00    -0.352 N 
ATOM     13  H   UNL     1      -5.883  -4.110  -5.015  0.00  0.00    +0.143 HD
ATOM     14  H   UNL     1      -7.048  -4.859  -4.064  0.00  0.00    +0.143 HD
ENDBRANCH  10  12
ENDBRANCH   7  10
ENDBRANCH   1   4
BRANCH   1  15
ATOM     15  N   UNL     1       0.005  -0.378  -2.405  0.00  0.00    -0.200 N 
ATOM     16  H   UNL     1       0.655  -0.454  -1.689  0.00  0.00    +0.175 HD
BRANCH  15  19
ATOM     17  C   UNL     1      -0.301   1.688  -0.199  0.00  0.00    +0.174 C 
ATOM     18  N   UNL     1      -1.019   1.642  -1.475  0.00  0.00    -0.252 N 
ATOM     19  C   UNL     1      -0.864   0.709  -2.442  0.00  0.00    +0.136 A 
ATOM     20  C   UNL     1      -1.713   1.026  -3.458  0.00  0.00    +0.066 A 
ATOM     21  C   UNL     1      -2.401   2.187  -3.094  0.00  0.00    +0.136 A 
ATOM     22  N   UNL     1      -1.992   2.552  -1.906  0.00  0.00    -0.178 NA
ENDBRANCH  15  19
ENDBRANCH   1  15
TORSDOF 5
