REMARK  Name = ZINC09305681
REMARK  6 active torsions:
REMARK  status: ('A' for Active; 'I' for Inactive)
REMARK    1  A    between atoms: C_7  and  C_11
REMARK    2  A    between atoms: C_11  and  C_12
REMARK    3  A    between atoms: C_12  and  C_14
REMARK    4  A    between atoms: C_12  and  N_24
REMARK    5  A    between atoms: N_16  and  C_17
REMARK    6  A    between atoms: C_17  and  C_18
REMARK                            x       y       z     vdW  Elec       q    Type
REMARK                         _______ _______ _______ _____ _____    ______ ____
ROOT
ATOM      1  C   UNL     1      -2.482   0.853   0.018  0.00  0.00    +0.185 C 
ENDROOT
BRANCH   1   2
ATOM      2  N   UNL     1      -3.563   1.715   0.501  0.00  0.00    -0.248 N 
ATOM      3  C   UNL     1      -4.252   1.359   1.607  0.00  0.00    +0.265 A 
ATOM      4  O   UNL     1      -3.986   0.333   2.203  0.00  0.00    -0.267 OA
ATOM      5  C   UNL     1      -5.335   2.244   2.071  0.00  0.00    +0.063 A 
ATOM      6  C   UNL     1      -6.091   1.946   3.202  0.00  0.00    +0.015 A 
ATOM      7  C   UNL     1      -7.093   2.808   3.596  0.00  0.00    +0.001 A 
ATOM      8  C   UNL     1      -7.349   3.963   2.873  0.00  0.00    +0.002 A 
ATOM      9  C   UNL     1      -6.608   4.270   1.750  0.00  0.00    +0.026 A 
ATOM     10  C   UNL     1      -5.596   3.416   1.339  0.00  0.00    +0.056 A 
ATOM     11  N   UNL     1      -4.827   3.687   0.216  0.00  0.00    -0.307 N 
ATOM     12  H   UNL     1      -4.996   4.491  -0.298  0.00  0.00    +0.170 HD
ATOM     13  C   UNL     1      -3.847   2.848  -0.162  0.00  0.00    +0.330 A 
ATOM     14  O   UNL     1      -3.193   3.124  -1.148  0.00  0.00    -0.246 OA
ENDBRANCH   1   2
BRANCH   1  15
ATOM     15  C   UNL     1      -1.187   1.624   0.017  0.00  0.00    +0.237 C 
ATOM     16  O   UNL     1      -1.204   2.837   0.023  0.00  0.00    -0.274 OA
ATOM     17  N   UNL     1      -0.011   0.966   0.007  0.00  0.00    -0.311 N 
ATOM     18  H   UNL     1       0.002  -0.004   0.002  0.00  0.00    +0.149 HD
BRANCH  17  19
ATOM     19  C   UNL     1       1.248   1.716  -0.001  0.00  0.00    +0.135 C 
BRANCH  19  20
ATOM     20  C   UNL     1       2.424   0.737  -0.017  0.00  0.00    +0.135 C 
ATOM     21  C   UNL     1       3.753   1.516  -0.026  0.00  0.00    +0.035 C 
ATOM     22  C   UNL     1       4.489   1.026   1.245  0.00  0.00    +0.031 C 
ATOM     23  C   UNL     1       3.783  -0.325   1.527  0.00  0.00    +0.160 C 
ATOM     24  O   UNL     1       2.407  -0.067   1.174  0.00  0.00    -0.375 OA
ENDBRANCH  19  20
ENDBRANCH  17  19
ENDBRANCH   1  15
BRANCH   1  25
ATOM     25  C   UNL     1      -2.799   0.384  -1.403  0.00  0.00    +0.072 C 
BRANCH  25  32
ATOM     26  C   UNL     1      -7.393   1.305  -1.532  0.00  0.00    +0.001 A 
ATOM     27  C   UNL     1      -8.176   0.160  -1.490  0.00  0.00    +0.002 A 
ATOM     28  C   UNL     1      -7.594  -1.087  -1.418  0.00  0.00    +0.026 A 
ATOM     29  C   UNL     1      -6.207  -1.201  -1.387  0.00  0.00    +0.047 A 
ATOM     30  C   UNL     1      -5.419  -0.037  -1.424  0.00  0.00    +0.003 A 
ATOM     31  C   UNL     1      -6.030   1.216  -1.503  0.00  0.00    +0.010 A 
ATOM     32  C   UNL     1      -4.027  -0.489  -1.382  0.00  0.00    -0.020 A 
ATOM     33  C   UNL     1      -4.051  -1.830  -1.317  0.00  0.00    +0.087 A 
ATOM     34  N   UNL     1      -5.346  -2.273  -1.318  0.00  0.00    -0.360 N 
ATOM     35  H   UNL     1      -5.617  -3.204  -1.278  0.00  0.00    +0.165 HD
ENDBRANCH  25  32
ENDBRANCH   1  25
TORSDOF 6
