REMARK  Name = ZINC13644019
REMARK  4 active torsions:
REMARK  status: ('A' for Active; 'I' for Inactive)
REMARK    1  A    between atoms: C_1  and  C_2
REMARK    2  A    between atoms: C_2  and  C_3
REMARK    3  A    between atoms: C_3  and  C_5
REMARK    4  A    between atoms: C_3  and  N_6
REMARK                            x       y       z     vdW  Elec       q    Type
REMARK                         _______ _______ _______ _____ _____    ______ ____
ROOT
ATOM      1  N   UNL     1      -0.915   7.305  -0.654  0.00  0.00    -0.313 N 
ATOM      2  C   UNL     1      -1.148   5.994  -0.309  0.00  0.00    +0.205 C 
ATOM      3  N   UNL     1      -2.374   5.583  -0.342  0.00  0.00    -0.097 NA
ATOM      4  S   UNL     1      -2.758   4.017   0.045  0.00  0.00    +0.103 S 
ATOM      5  O   UNL     1      -3.214   4.027   1.391  0.00  0.00    -0.146 OA
ATOM      6  O   UNL     1      -3.544   3.511  -1.025  0.00  0.00    -0.146 OA
ATOM      7  C   UNL     1      -1.235   3.128   0.030  0.00  0.00    +0.134 A 
ATOM      8  C   UNL     1      -1.221   1.751   0.017  0.00  0.00    +0.031 A 
ATOM      9  C   UNL     1      -0.013   1.076   0.008  0.00  0.00    +0.002 A 
ATOM     10  C   UNL     1       1.176   1.783   0.000  0.00  0.00    +0.002 A 
ATOM     11  C   UNL     1       1.165   3.164   0.009  0.00  0.00    +0.025 A 
ATOM     12  C   UNL     1      -0.045   3.848   0.025  0.00  0.00    +0.061 A 
ATOM     13  N   UNL     1      -0.069   5.240   0.037  0.00  0.00    -0.285 N 
ATOM     14  H   UNL     1      -0.010   7.655  -0.644  0.00  0.00    +0.149 HD
ATOM     15  H   UNL     1       0.737   5.704   0.311  0.00  0.00    +0.155 HD
ENDROOT
BRANCH   1  16
ATOM     16  C   UNL     1      -2.032   8.171  -1.037  0.00  0.00    +0.070 C 
ATOM     17  C   UNL     1      -2.333   7.987  -2.526  0.00  0.00    +0.028 C 
BRANCH  16  19
ATOM     18  C   UNL     1      -1.480   9.844   0.735  0.00  0.00    +0.005 C 
ATOM     19  C   UNL     1      -1.660   9.631  -0.769  0.00  0.00    +0.018 C 
ENDBRANCH  16  19
ENDBRANCH   1  16
TORSDOF 2
