REMARK  Name = ZINC05344670
REMARK  4 active torsions:
REMARK  status: ('A' for Active; 'I' for Inactive)
REMARK    1  A    between atoms: C_4  and  O_27
REMARK    2  A    between atoms: C_5  and  N_7
REMARK    3  A    between atoms: C_21  and  O_26
REMARK    4  A    between atoms: C_23  and  O_25
REMARK                            x       y       z     vdW  Elec       q    Type
REMARK                         _______ _______ _______ _____ _____    ______ ____
ROOT
ATOM      1  N   UNL     1       1.234  -2.084  -0.022  0.00  0.00    -0.206 N 
ATOM      2  C   UNL     1       1.250  -2.814   1.099  0.00  0.00    +0.230 C 
ATOM      3  O   UNL     1       1.248  -2.368   2.226  0.00  0.00    -0.274 OA
ATOM      4  C   UNL     1       1.272  -4.283   0.742  0.00  0.00    +0.094 C 
ATOM      5  C   UNL     1       2.662  -4.866   1.138  0.00  0.00    +0.033 C 
ATOM      6  C   UNL     1       2.897  -5.884  -0.033  0.00  0.00    +0.013 C 
ATOM      7  C   UNL     1       2.679  -4.853  -1.196  0.00  0.00    +0.033 C 
ATOM      8  C   UNL     1       1.263  -4.274  -0.813  0.00  0.00    +0.094 C 
ATOM      9  C   UNL     1       1.234  -2.801  -1.152  0.00  0.00    +0.230 C 
ATOM     10  O   UNL     1       1.216  -2.340  -2.273  0.00  0.00    -0.274 OA
ATOM     11  C   UNL     1       3.691  -3.739  -0.789  0.00  0.00    +0.147 C 
ATOM     12  C   UNL     1       3.677  -3.739   0.776  0.00  0.00    +0.147 C 
ENDROOT
BRANCH   1  17
ATOM     13  C   UNL     1      -0.017   1.378   0.010  0.00  0.00    +0.002 A 
ATOM     14  C   UNL     1       1.169   2.089   0.002  0.00  0.00    +0.004 A 
ATOM     15  C   UNL     1       2.380   1.421  -0.013  0.00  0.00    +0.047 A 
ATOM     16  C   UNL     1       2.407   0.036  -0.021  0.00  0.00    +0.139 A 
ATOM     17  C   UNL     1       1.213  -0.681  -0.013  0.00  0.00    +0.085 A 
ATOM     18  C   UNL     1       0.002  -0.004   0.002  0.00  0.00    +0.027 A 
BRANCH  16  19
ATOM     19  O   UNL     1       3.596  -0.623  -0.037  0.00  0.00    -0.505 OA
ATOM     20  H   UNL     1       3.949  -0.818   0.842  0.00  0.00    +0.292 HD
ENDBRANCH  16  19
ENDBRANCH   1  17
BRANCH  12  21
ATOM     21  O   UNL     1       4.974  -4.055   1.285  0.00  0.00    -0.389 OA
ATOM     22  H   UNL     1       5.647  -3.388   1.090  0.00  0.00    +0.210 HD
ENDBRANCH  12  21
BRANCH  11  23
ATOM     23  O   UNL     1       4.996  -4.048  -1.281  0.00  0.00    -0.389 OA
ATOM     24  H   UNL     1       5.667  -3.389  -1.058  0.00  0.00    +0.210 HD
ENDBRANCH  11  23
TORSDOF 4
