REMARK  Name = ZINC41056027
REMARK  3 active torsions:
REMARK  status: ('A' for Active; 'I' for Inactive)
REMARK    1  A    between atoms: C_4  and  N_11
REMARK    2  A    between atoms: C_5  and  C_7
REMARK    3  A    between atoms: C_12  and  C_14
REMARK                            x       y       z     vdW  Elec       q    Type
REMARK                         _______ _______ _______ _____ _____    ______ ____
ROOT
ATOM      1  N   UNL     1       3.623  -0.650  -0.019  0.00  0.00    -0.281 N 
ATOM      2  C   UNL     1       4.775   0.037  -0.146  0.00  0.00    +0.253 C 
ATOM      3  O   UNL     1       4.759   1.254  -0.155  0.00  0.00    -0.270 OA
ATOM      4  H   UNL     1       3.641  -1.617   0.056  0.00  0.00    +0.155 HD
ENDROOT
BRANCH   2   5
ATOM      5  C   UNL     1       6.051  -0.683  -0.273  0.00  0.00    +0.100 A 
ATOM      6  C   UNL     1       7.247   0.005  -0.283  0.00  0.00    +0.100 A 
ATOM      7  N   UNL     1       8.428  -0.617  -0.397  0.00  0.00    -0.360 N 
ATOM      8  C   UNL     1       8.542  -1.985  -0.513  0.00  0.00    +0.052 A 
ATOM      9  C   UNL     1       9.794  -2.584  -0.628  0.00  0.00    +0.046 A 
ATOM     10  C   UNL     1       9.890  -3.955  -0.744  0.00  0.00    +0.043 A 
ATOM     11  C   UNL     1       8.750  -4.748  -0.746  0.00  0.00    +0.021 A 
ATOM     12  C   UNL     1       7.512  -4.180  -0.633  0.00  0.00    +0.015 A 
ATOM     13  C   UNL     1       7.394  -2.795  -0.516  0.00  0.00    +0.046 A 
ATOM     14  C   UNL     1       6.074  -2.150  -0.386  0.00  0.00    +0.201 A 
ATOM     15  O   UNL     1       5.046  -2.804  -0.378  0.00  0.00    -0.286 OA
ATOM     16 CL   UNL     1      11.453  -4.697  -0.888  0.00  0.00    -0.083 Cl
ATOM     17  H   UNL     1       9.237  -0.081  -0.397  0.00  0.00    +0.165 HD
ENDBRANCH   2   5
BRANCH   1  21
ATOM     18  C   UNL     1      -0.016   1.377   0.052  0.00  0.00    +0.001 A 
ATOM     19  C   UNL     1       1.131   2.001   0.508  0.00  0.00    +0.002 A 
ATOM     20  C   UNL     1       2.339   1.332   0.486  0.00  0.00    +0.024 A 
ATOM     21  C   UNL     1       2.401   0.030   0.005  0.00  0.00    +0.045 A 
ATOM     22  C   UNL     1       1.248  -0.594  -0.452  0.00  0.00    +0.076 A 
ATOM     23  C   UNL     1       0.043   0.081  -0.428  0.00  0.00    +0.014 A 
BRANCH  22  24
ATOM     24  C   UNL     1       1.311  -2.006  -0.976  0.00  0.00    +0.419 C 
ATOM     25  F   UNL     1       0.034  -2.413  -1.375  0.00  0.00    -0.166 F 
ATOM     26  F   UNL     1       2.181  -2.059  -2.070  0.00  0.00    -0.166 F 
ATOM     27  F   UNL     1       1.778  -2.856   0.033  0.00  0.00    -0.166 F 
ENDBRANCH  22  24
ENDBRANCH   1  21
TORSDOF 3
