REMARK  Name = ZINC40728829
REMARK  9 active torsions:
REMARK  status: ('A' for Active; 'I' for Inactive)
REMARK    1  A    between atoms: C_1  and  C_2
REMARK    2  A    between atoms: C_4  and  N_22
REMARK    3  A    between atoms: C_7  and  N_8
REMARK    4  A    between atoms: C_9  and  C_11
REMARK    5  A    between atoms: C_11  and  C_13
REMARK    6  A    between atoms: C_11  and  N_14
REMARK    7  A    between atoms: C_15  and  C_21
REMARK    8  A    between atoms: C_16  and  C_20
REMARK    9  A    between atoms: C_17  and  C_19
REMARK                            x       y       z     vdW  Elec       q    Type
REMARK                         _______ _______ _______ _____ _____    ______ ____
ROOT
ATOM      1  N   UNL     1       0.025  -0.010   2.418  0.00  0.00    -0.284 N 
ATOM      2  C   UNL     1      -0.057  -0.688   3.580  0.00  0.00    +0.242 C 
ATOM      3  O   UNL     1      -0.040  -1.901   3.578  0.00  0.00    -0.273 OA
ATOM      4  H   UNL     1       0.078   0.958   2.424  0.00  0.00    +0.155 HD
ENDROOT
BRANCH   1  11
ATOM      5  C   UNL     1      -1.265   1.183   0.182  0.00  0.00    +0.046 C 
ATOM      6  C   UNL     1      -0.585  -0.158   0.085  0.00  0.00    -0.028 A 
ATOM      7  C   UNL     1      -0.572  -0.840  -1.116  0.00  0.00    +0.028 A 
ATOM      8  C   UNL     1       0.055  -2.076  -1.206  0.00  0.00    +0.025 A 
ATOM      9  C   UNL     1       0.669  -2.626  -0.087  0.00  0.00    +0.024 A 
ATOM     10  C   UNL     1       0.655  -1.944   1.113  0.00  0.00    +0.025 A 
ATOM     11  C   UNL     1       0.034  -0.705   1.201  0.00  0.00    +0.036 A 
BRANCH   8  12
ATOM     12  N   UNL     1       0.068  -2.767  -2.422  0.00  0.00    -0.358 N 
ATOM     13  H   UNL     1      -0.361  -2.383  -3.202  0.00  0.00    +0.142 HD
ATOM     14  H   UNL     1       0.506  -3.630  -2.484  0.00  0.00    +0.142 HD
ENDBRANCH   8  12
ENDBRANCH   1  11
BRANCH   2  15
ATOM     15  C   UNL     1      -0.168   0.062   4.883  0.00  0.00    +0.190 C 
ATOM     16  C   UNL     1      -1.431   0.924   4.869  0.00  0.00    +0.042 C 
BRANCH  15  17
ATOM     17  N   UNL     1      -0.241  -0.894   5.991  0.00  0.00    -0.256 N 
ATOM     18  C   UNL     1       0.625  -0.982   7.022  0.00  0.00    +0.040 A 
ATOM     19  C   UNL     1       0.207  -1.987   7.826  0.00  0.00    -0.007 A 
ATOM     20  C   UNL     1      -0.953  -2.532   7.268  0.00  0.00    +0.063 A 
ATOM     21  N   UNL     1      -1.227  -1.873   6.171  0.00  0.00    -0.175 NA
ATOM     22  C   UNL     1      -1.754  -3.675   7.835  0.00  0.00    +0.068 C 
ATOM     23  C   UNL     1       0.876  -2.440   9.099  0.00  0.00    +0.047 C 
ATOM     24  C   UNL     1       1.839  -0.116   7.239  0.00  0.00    +0.065 C 
ENDBRANCH  15  17
ENDBRANCH   2  15
TORSDOF 4
