REMARK  Name = ZINC52839647
REMARK  9 active torsions:
REMARK  status: ('A' for Active; 'I' for Inactive)
REMARK    1  A    between atoms: C_1  and  C_2
REMARK    2  A    between atoms: C_2  and  C_3
REMARK    3  A    between atoms: C_2  and  C_4
REMARK    4  A    between atoms: C_2  and  C_5
REMARK    5  A    between atoms: C_7  and  C_12
REMARK    6  A    between atoms: C_8  and  N_11
REMARK    7  A    between atoms: N_9  and  N_10
REMARK    8  A    between atoms: C_17  and  O_18
REMARK    9  A    between atoms: O_18  and  C_19
REMARK                            x       y       z     vdW  Elec       q    Type
REMARK                         _______ _______ _______ _____ _____    ______ ____
ROOT
ATOM      1  C   UNL     1       0.707  -0.490  -1.238  0.00  0.00    +0.112 A 
ATOM      2  N   UNL     1       1.306   0.266  -2.113  0.00  0.00    -0.340 N 
ATOM      3  C   UNL     1       1.827  -0.506  -3.090  0.00  0.00    +0.091 A 
ATOM      4  C   UNL     1       1.529  -1.808  -2.796  0.00  0.00    +0.139 A 
ATOM      5  N   UNL     1       0.827  -1.792  -1.621  0.00  0.00    -0.240 N 
ATOM      6  H   UNL     1       1.369   1.233  -2.069  0.00  0.00    +0.167 HD
ENDROOT
BRANCH   3   7
ATOM      7  C   UNL     1       2.584  -0.029  -4.271  0.00  0.00    +0.044 A 
ATOM      8  C   UNL     1       3.824   0.587  -4.105  0.00  0.00    +0.014 A 
ATOM      9  C   UNL     1       4.525   1.030  -5.208  0.00  0.00    +0.001 A 
ATOM     10  C   UNL     1       4.002   0.865  -6.479  0.00  0.00    +0.004 A 
ATOM     11  C   UNL     1       2.773   0.256  -6.654  0.00  0.00    +0.046 A 
ATOM     12  C   UNL     1       2.061  -0.198  -5.557  0.00  0.00    +0.136 A 
BRANCH  12  13
ATOM     13  O   UNL     1       0.855  -0.802  -5.729  0.00  0.00    -0.434 OA
BRANCH  13  14
ATOM     14  C   UNL     1       0.385  -0.941  -7.071  0.00  0.00    +0.541 C 
ATOM     15  F   UNL     1       0.258   0.325  -7.654  0.00  0.00    -0.166 F 
ATOM     16  F   UNL     1       1.296  -1.704  -7.808  0.00  0.00    -0.166 F 
ENDBRANCH  13  14
ENDBRANCH  12  13
ENDBRANCH   3   7
BRANCH   1  18
ATOM     17  C   UNL     1      -0.019   1.526   0.010  0.00  0.00    +0.018 C 
ATOM     18  C   UNL     1       0.002  -0.004   0.002  0.00  0.00    +0.020 C 
ATOM     19  C   UNL     1       0.742  -0.511   1.242  0.00  0.00    +0.018 C 
ATOM     20  C   UNL     1      -1.433  -0.534   0.013  0.00  0.00    +0.018 C 
ENDBRANCH   1  18
BRANCH   5  21
ATOM     21  N   UNL     1       0.334  -2.880  -0.958  0.00  0.00    -0.295 N 
ATOM     22  H   UNL     1      -0.601  -3.099  -1.267  0.00  0.00    +0.163 HD
ATOM     23  H   UNL     1       0.945  -3.675  -1.064  0.00  0.00    +0.163 HD
ENDBRANCH   5  21
BRANCH   4  24
ATOM     24  N   UNL     1       1.877  -2.929  -3.542  0.00  0.00    -0.342 N 
ATOM     25  H   UNL     1       2.383  -2.828  -4.363  0.00  0.00    +0.144 HD
ATOM     26  H   UNL     1       1.614  -3.813  -3.241  0.00  0.00    +0.144 HD
ENDBRANCH   4  24
TORSDOF 6
