REMARK  Name = ZINC36889958
REMARK  1 active torsions:
REMARK  status: ('A' for Active; 'I' for Inactive)
REMARK    1  A    between atoms: C_3  and  N_9
REMARK                            x       y       z     vdW  Elec       q    Type
REMARK                         _______ _______ _______ _____ _____    ______ ____
ROOT
ATOM      1  N   UNL     1       3.586   2.129  -0.021  0.00  0.00    -0.280 N 
ATOM      2  C   UNL     1       4.280   2.560  -1.142  0.00  0.00    +0.075 A 
ATOM      3  C   UNL     1       4.062   2.453  -2.507  0.00  0.00    +0.030 A 
ATOM      4  C   UNL     1       4.965   3.005  -3.392  0.00  0.00    +0.022 A 
ATOM      5  C   UNL     1       6.091   3.668  -2.925  0.00  0.00    +0.043 A 
ATOM      6  C   UNL     1       6.323   3.784  -1.572  0.00  0.00    +0.050 A 
ATOM      7  C   UNL     1       5.418   3.231  -0.663  0.00  0.00    +0.093 A 
ATOM      8  N   UNL     1       5.371   3.180   0.694  0.00  0.00    -0.214 NA
ATOM      9  C   UNL     1       4.294   2.539   1.075  0.00  0.00    +0.199 A 
ATOM     10  N   UNL     1       3.930   2.309   2.385  0.00  0.00    -0.329 N 
ATOM     11 CL   UNL     1       7.216   4.357  -4.054  0.00  0.00    -0.083 Cl
ATOM     12  H   UNL     1       3.115   1.822   2.583  0.00  0.00    +0.145 HD
ATOM     13  H   UNL     1       4.489   2.634   3.108  0.00  0.00    +0.145 HD
ENDROOT
BRANCH   1  16
ATOM     14  C   UNL     1      -0.017   1.380   0.010  0.00  0.00    +0.040 A 
ATOM     15  C   UNL     1       1.169   2.088   0.002  0.00  0.00    +0.030 A 
ATOM     16  C   UNL     1       2.381   1.412  -0.013  0.00  0.00    +0.064 A 
ATOM     17  C   UNL     1       2.398   0.022  -0.021  0.00  0.00    +0.044 A 
ATOM     18  C   UNL     1       1.210  -0.682  -0.013  0.00  0.00    +0.055 A 
ATOM     19  C   UNL     1       0.002  -0.004   0.002  0.00  0.00    +0.125 A 
ATOM     20  F   UNL     1      -1.159  -0.695   0.010  0.00  0.00    -0.205 F 
ATOM     21 BR   UNL     1       4.047  -0.903  -0.042  0.00  0.00    -0.048 Br
ENDBRANCH   1  16
TORSDOF 1
