REMARK  Name = ZINC52311034
REMARK  6 active torsions:
REMARK  status: ('A' for Active; 'I' for Inactive)
REMARK    1  A    between atoms: C_1  and  C_2
REMARK    2  A    between atoms: C_4  and  S_8
REMARK    3  A    between atoms: N_5  and  C_7
REMARK    4  A    between atoms: S_8  and  C_9
REMARK    5  A    between atoms: C_11  and  C_17
REMARK    6  A    between atoms: C_12  and  N_16
REMARK                            x       y       z     vdW  Elec       q    Type
REMARK                         _______ _______ _______ _____ _____    ______ ____
ROOT
ATOM      1  C   UNL     1       0.374  -4.753  -0.692  0.00  0.00    +0.050 A 
ATOM      2  C   UNL     1       0.348  -4.645   0.686  0.00  0.00    +0.032 A 
ATOM      3  C   UNL     1       0.543  -5.781   1.478  0.00  0.00    +0.058 A 
ATOM      4  C   UNL     1       0.764  -7.025   0.866  0.00  0.00    +0.040 A 
ATOM      5  C   UNL     1       0.788  -7.119  -0.519  0.00  0.00    +0.063 A 
ATOM      6  C   UNL     1       0.589  -5.993  -1.294  0.00  0.00    +0.139 A 
ATOM      7  F   UNL     1       0.607  -6.092  -2.641  0.00  0.00    -0.204 F 
ENDROOT
BRANCH   3   8
ATOM      8  C   UNL     1       0.518  -5.673   2.947  0.00  0.00    +0.243 C 
ATOM      9  O   UNL     1       0.578  -6.676   3.631  0.00  0.00    -0.270 OA
ATOM     10  N   UNL     1       0.427  -4.462   3.531  0.00  0.00    -0.325 N 
ATOM     11  H   UNL     1       0.306  -3.668   2.987  0.00  0.00    +0.145 HD
ATOM     12  H   UNL     1       0.483  -4.384   4.497  0.00  0.00    +0.145 HD
ENDBRANCH   3   8
BRANCH   4  13
ATOM     13  N   UNL     1       0.960  -8.160   1.646  0.00  0.00    -0.357 N 
ATOM     14  H   UNL     1       0.855  -8.111   2.609  0.00  0.00    +0.142 HD
ATOM     15  H   UNL     1       1.201  -9.001   1.226  0.00  0.00    +0.142 HD
ENDBRANCH   4  13
BRANCH   1  16
ATOM     16  S   UNL     1       0.129  -3.323  -1.691  0.00  0.00    -0.067 S 
BRANCH  16  20
ATOM     17  C   UNL     1      -0.002   1.204   1.142  0.00  0.00    +0.067 C 
ATOM     18  C   UNL     1      -0.354  -0.172   0.639  0.00  0.00    +0.061 A 
ATOM     19  C   UNL     1       0.307  -0.863  -0.379  0.00  0.00    +0.059 A 
ATOM     20  C   UNL     1      -0.312  -2.067  -0.536  0.00  0.00    +0.099 A 
ATOM     21  N   UNL     1      -1.331  -2.121   0.361  0.00  0.00    -0.260 N 
ATOM     22  N   UNL     1      -1.328  -0.923   1.086  0.00  0.00    -0.176 NA
ATOM     23  C   UNL     1      -2.263  -3.237   0.543  0.00  0.00    +0.173 C 
ENDBRANCH  16  20
ENDBRANCH   1  16
TORSDOF 4
