REMARK  Name = ZINC37062987
REMARK  5 active torsions:
REMARK  status: ('A' for Active; 'I' for Inactive)
REMARK    1  A    between atoms: C_1  and  C_2
REMARK    2  A    between atoms: C_8  and  N_10
REMARK    3  A    between atoms: N_10  and  S_11
REMARK    4  A    between atoms: S_11  and  C_14
REMARK    5  A    between atoms: C_17  and  N_21
REMARK                            x       y       z     vdW  Elec       q    Type
REMARK                         _______ _______ _______ _____ _____    ______ ____
ROOT
ATOM      1  S   UNL     1       0.932   0.360   3.795  0.00  0.00    +0.061 S 
ATOM      2  O   UNL     1      -0.003   0.801   4.770  0.00  0.00    -0.153 OA
ATOM      3  O   UNL     1       1.827  -0.718   4.031  0.00  0.00    -0.153 OA
ENDROOT
BRANCH   1   4
ATOM      4  C   UNL     1       1.922   1.756   3.379  0.00  0.00    +0.133 A 
ATOM      5  C   UNL     1       3.189   1.572   2.855  0.00  0.00    +0.047 A 
ATOM      6  C   UNL     1       3.969   2.666   2.528  0.00  0.00    +0.040 A 
ATOM      7  C   UNL     1       3.479   3.950   2.726  0.00  0.00    +0.027 A 
ATOM      8  C   UNL     1       2.207   4.132   3.252  0.00  0.00    +0.040 A 
ATOM      9  C   UNL     1       1.429   3.035   3.572  0.00  0.00    +0.047 A 
ATOM     10 BR   UNL     1      -0.306   3.281   4.282  0.00  0.00    -0.048 Br
ATOM     11 BR   UNL     1       3.856  -0.177   2.586  0.00  0.00    -0.048 Br
BRANCH   7  12
ATOM     12  N   UNL     1       4.265   5.057   2.397  0.00  0.00    -0.358 N 
ATOM     13  H   UNL     1       5.154   4.929   2.030  0.00  0.00    +0.142 HD
ATOM     14  H   UNL     1       3.922   5.954   2.536  0.00  0.00    +0.142 HD
ENDBRANCH   7  12
ENDBRANCH   1   4
BRANCH   1  15
ATOM     15  N   UNL     1       0.056  -0.038   2.447  0.00  0.00    -0.187 NA
ATOM     16  H   UNL     1      -0.910   0.041   2.455  0.00  0.00    +0.148 HD
BRANCH  15  23
ATOM     17  C   UNL     1      -0.019   1.526   0.010  0.00  0.00    +0.009 C 
ATOM     18  C   UNL     1       0.002  -0.004   0.002  0.00  0.00    +0.005 C 
ATOM     19  C   UNL     1       0.718  -0.497  -1.257  0.00  0.00    +0.005 C 
ATOM     20  C   UNL     1       0.739  -2.027  -1.265  0.00  0.00    +0.000 C 
ATOM     21  C   UNL     1       1.479  -2.534  -0.026  0.00  0.00    +0.002 C 
ATOM     22  C   UNL     1       0.763  -2.041   1.233  0.00  0.00    +0.020 C 
ATOM     23  C   UNL     1       0.742  -0.511   1.242  0.00  0.00    +0.079 C 
ENDBRANCH  15  23
ENDBRANCH   1  15
TORSDOF 4
