REMARK  Name = ZINC51755566
REMARK  8 active torsions:
REMARK  status: ('A' for Active; 'I' for Inactive)
REMARK    1  A    between atoms: C_1  and  C_2
REMARK    2  A    between atoms: C_5  and  C_11
REMARK    3  A    between atoms: C_6  and  C_10
REMARK    4  A    between atoms: C_7  and  O_8
REMARK    5  A    between atoms: O_8  and  C_9
REMARK    6  A    between atoms: C_11  and  N_12
REMARK    7  A    between atoms: N_15  and  N_16
REMARK    8  A    between atoms: N_16  and  C_17
REMARK                            x       y       z     vdW  Elec       q    Type
REMARK                         _______ _______ _______ _____ _____    ______ ____
ROOT
ATOM      1  N   UNL     1       1.476  -4.690  -0.628  0.00  0.00    -0.293 N 
ATOM      2  C   UNL     1       1.732  -6.012  -0.583  0.00  0.00    +0.316 C 
ATOM      3  O   UNL     1       0.824  -6.812  -0.705  0.00  0.00    -0.251 OA
ATOM      4  N   UNL     1       2.994  -6.449  -0.403  0.00  0.00    -0.220 N 
ATOM      5  H   UNL     1       2.200  -4.052  -0.530  0.00  0.00    +0.151 HD
ATOM      6  H   UNL     1       3.178  -7.400  -0.370  0.00  0.00    +0.174 HD
ENDROOT
BRANCH   4   7
ATOM      7  N   UNL     1       4.040  -5.527  -0.262  0.00  0.00    -0.258 N 
ATOM      8  H   UNL     1       3.848  -4.578  -0.217  0.00  0.00    +0.170 HD
BRANCH   7   9
ATOM      9  C   UNL     1       5.365  -5.978  -0.187  0.00  0.00    +0.121 A 
ATOM     10  C   UNL     1       5.768  -7.081  -0.929  0.00  0.00    +0.186 A 
ATOM     11  C   UNL     1       7.078  -7.525  -0.854  0.00  0.00    +0.198 A 
ATOM     12  C   UNL     1       7.987  -6.869  -0.039  0.00  0.00    +0.199 A 
ATOM     13  C   UNL     1       7.587  -5.768   0.702  0.00  0.00    +0.198 A 
ATOM     14  C   UNL     1       6.279  -5.318   0.625  0.00  0.00    +0.186 A 
ATOM     15  F   UNL     1       5.891  -4.242   1.344  0.00  0.00    -0.200 F 
ATOM     16  F   UNL     1       8.475  -5.130   1.496  0.00  0.00    -0.199 F 
ATOM     17  F   UNL     1       9.264  -7.303   0.033  0.00  0.00    -0.199 F 
ATOM     18  F   UNL     1       7.470  -8.598  -1.575  0.00  0.00    -0.199 F 
ATOM     19  F   UNL     1       4.882  -7.721  -1.724  0.00  0.00    -0.200 F 
ENDBRANCH   7   9
ENDBRANCH   4   7
BRANCH   1  20
ATOM     20  C   UNL     1       0.103  -4.215  -0.823  0.00  0.00    +0.161 C 
BRANCH  20  25
ATOM     21  C   UNL     1       0.066   1.519  -0.983  0.00  0.00    +0.049 C 
ATOM     22  C   UNL     1       0.070   0.015  -0.901  0.00  0.00    +0.010 A 
ATOM     23  C   UNL     1       0.238  -0.747  -2.040  0.00  0.00    +0.118 A 
ATOM     24  N   UNL     1       0.243  -2.065  -1.977  0.00  0.00    -0.258 NA
ATOM     25  C   UNL     1       0.090  -2.709  -0.836  0.00  0.00    +0.065 A 
ATOM     26  C   UNL     1      -0.084  -2.019   0.347  0.00  0.00    +0.014 A 
ATOM     27  C   UNL     1      -0.090  -0.627   0.324  0.00  0.00    +0.129 A 
ATOM     28  C   UNL     1      -0.258  -2.763   1.646  0.00  0.00    +0.049 C 
BRANCH  27  29
ATOM     29  O   UNL     1      -0.253   0.087   1.467  0.00  0.00    -0.494 OA
ATOM     30  C   UNL     1      -1.592   0.415   1.842  0.00  0.00    +0.277 C 
ENDBRANCH  27  29
ENDBRANCH  20  25
ENDBRANCH   1  20
TORSDOF 5
