REMARK  Name = ZINC37538773
REMARK  15 active torsions:
REMARK  status: ('A' for Active; 'I' for Inactive)
REMARK    1  A    between atoms: C_1  and  C_2
REMARK    2  A    between atoms: C_5  and  O_40
REMARK    3  A    between atoms: C_7  and  C_39
REMARK    4  A    between atoms: C_10  and  O_19
REMARK    5  A    between atoms: C_12  and  C_16
REMARK    6  A    between atoms: C_16  and  C_17
REMARK    7  A    between atoms: C_16  and  C_18
REMARK    8  A    between atoms: O_19  and  C_20
REMARK    9  A    between atoms: C_22  and  O_38
REMARK   10  A    between atoms: C_24  and  O_37
REMARK   11  A    between atoms: C_26  and  O_36
REMARK   12  A    between atoms: C_28  and  C_31
REMARK   13  A    between atoms: C_31  and  O_32
REMARK   14  A    between atoms: O_32  and  C_33
REMARK   15  A    between atoms: C_33  and  C_35
REMARK                            x       y       z     vdW  Elec       q    Type
REMARK                         _______ _______ _______ _____ _____    ______ ____
ROOT
ATOM      1  O   UNL     1      -1.022  -0.218   3.430  0.00  0.00    -0.345 OA
ENDROOT
BRANCH   1   9
ATOM      2  C   UNL     1      -1.343   1.417  -0.480  0.00  0.00    +0.039 C 
ATOM      3  C   UNL     1      -1.165  -0.068  -0.300  0.00  0.00    -0.070 C 
ATOM      4  C   UNL     1      -1.338  -0.836  -1.331  0.00  0.00    -0.025 C 
ATOM      5  C   UNL     1      -1.207  -2.330  -1.298  0.00  0.00    +0.059 C 
ATOM      6  C   UNL     1      -0.464  -2.774  -0.036  0.00  0.00    +0.125 C 
ATOM      7  C   UNL     1      -1.105  -2.070   1.172  0.00  0.00    +0.003 C 
ATOM      8  C   UNL     1      -0.792  -0.577   1.058  0.00  0.00    +0.052 C 
ATOM      9  C   UNL     1      -1.500   0.210   2.153  0.00  0.00    +0.132 C 
ATOM     10  C   UNL     1      -3.010  -0.025   2.075  0.00  0.00    +0.021 C 
ATOM     11  C   UNL     1      -3.293  -1.519   2.247  0.00  0.00    +0.007 C 
ATOM     12  C   UNL     1      -2.618  -2.295   1.111  0.00  0.00    +0.010 C 
ATOM     13  C   UNL     1      -0.540  -2.642   2.474  0.00  0.00    +0.014 C 
BRANCH  10  14
ATOM     14  C   UNL     1      -3.708   0.762   3.187  0.00  0.00    -0.012 C 
ATOM     15  C   UNL     1      -3.481   2.259   2.972  0.00  0.00    +0.007 C 
ATOM     16  C   UNL     1      -5.208   0.463   3.157  0.00  0.00    +0.007 C 
ENDBRANCH  10  14
BRANCH   6  17
ATOM     17  O   UNL     1       0.914  -2.406  -0.134  0.00  0.00    -0.391 OA
ATOM     18  H   UNL     1       1.374  -2.801  -0.887  0.00  0.00    +0.210 HD
ENDBRANCH   6  17
ENDBRANCH   1   9
BRANCH   1  19
ATOM     19  C   UNL     1       0.118   0.507   3.897  0.00  0.00    +0.282 C 
ATOM     20  C   UNL     1       0.723  -0.214   5.104  0.00  0.00    +0.201 C 
ATOM     21  C   UNL     1       1.907   0.600   5.635  0.00  0.00    +0.179 C 
ATOM     22  C   UNL     1       1.426   2.012   5.982  0.00  0.00    +0.178 C 
ATOM     23  C   UNL     1       0.794   2.647   4.741  0.00  0.00    +0.190 C 
ATOM     24  O   UNL     1      -0.280   1.825   4.280  0.00  0.00    -0.339 OA
BRANCH  22  25
ATOM     25  O   UNL     1       0.457   1.943   7.030  0.00  0.00    -0.386 OA
ATOM     26  H   UNL     1       0.789   1.546   7.847  0.00  0.00    +0.210 HD
ENDBRANCH  22  25
BRANCH  21  27
ATOM     27  O   UNL     1       2.433  -0.029   6.805  0.00  0.00    -0.386 OA
ATOM     28  H   UNL     1       2.751  -0.931   6.658  0.00  0.00    +0.210 HD
ENDBRANCH  21  27
BRANCH  20  29
ATOM     29  O   UNL     1      -0.266  -0.344   6.127  0.00  0.00    -0.384 OA
ATOM     30  H   UNL     1      -1.048  -0.846   5.857  0.00  0.00    +0.210 HD
ENDBRANCH  20  29
BRANCH  23  31
ATOM     31  C   UNL     1       0.258   4.036   5.095  0.00  0.00    +0.266 C 
BRANCH  31  32
ATOM     32  O   UNL     1      -0.221   4.678   3.912  0.00  0.00    -0.462 OA
BRANCH  32  33
ATOM     33  C   UNL     1      -0.728   5.913   4.051  0.00  0.00    +0.304 C 
ATOM     34  O   UNL     1      -0.764   6.431   5.141  0.00  0.00    -0.251 OA
ATOM     35  C   UNL     1      -1.251   6.653   2.847  0.00  0.00    +0.136 C 
ENDBRANCH  32  33
ENDBRANCH  31  32
ENDBRANCH  23  31
ENDBRANCH   1  19
TORSDOF 10
