REMARK  Name = ZINC35226074
REMARK  7 active torsions:
REMARK  status: ('A' for Active; 'I' for Inactive)
REMARK    1  A    between atoms: C_3  and  N_31
REMARK    2  A    between atoms: C_4  and  C_21
REMARK    3  A    between atoms: C_6  and  N_7
REMARK    4  A    between atoms: N_7  and  S_8
REMARK    5  A    between atoms: S_8  and  C_11
REMARK    6  A    between atoms: N_23  and  C_24
REMARK    7  A    between atoms: C_24  and  C_25
REMARK                            x       y       z     vdW  Elec       q    Type
REMARK                         _______ _______ _______ _____ _____    ______ ____
ROOT
ATOM      1  C   UNL     1      -0.017   1.387   0.010  0.00  0.00    +0.026 A 
ATOM      2  C   UNL     1       1.164   2.100   0.002  0.00  0.00    +0.026 A 
ATOM      3  C   UNL     1       2.382   1.433  -0.013  0.00  0.00    +0.042 A 
ATOM      4  C   UNL     1       2.408   0.030  -0.021  0.00  0.00    +0.059 A 
ATOM      5  C   UNL     1       1.207  -0.684  -0.013  0.00  0.00    +0.039 A 
ATOM      6  C   UNL     1       0.002  -0.004   0.002  0.00  0.00    +0.049 A 
ENDROOT
BRANCH   3   7
ATOM      7  N   UNL     1       3.572   2.153  -0.021  0.00  0.00    -0.333 N 
ATOM      8  C   UNL     1       4.204   2.557  -1.287  0.00  0.00    +0.086 C 
ATOM      9  C   UNL     1       4.518   4.055  -1.218  0.00  0.00    -0.063 C 
ATOM     10  N   UNL     1       5.325   4.330  -0.023  0.00  0.00    +0.381 N 
ATOM     11  C   UNL     1       4.547   4.033   1.187  0.00  0.00    -0.063 C 
ATOM     12  C   UNL     1       4.232   2.539   1.236  0.00  0.00    +0.086 C 
ATOM     13  H   UNL     1       6.154   3.754  -0.038  0.00  0.00    -0.086 HD
ATOM     14  H   UNL     1       5.595   5.302  -0.017  0.00  0.00    -0.086 HD
ENDBRANCH   3   7
BRANCH   4  15
ATOM     15  C   UNL     1       3.697  -0.687  -0.037  0.00  0.00    +0.246 C 
ATOM     16  O   UNL     1       4.740  -0.062  -0.044  0.00  0.00    -0.270 OA
ATOM     17  N   UNL     1       3.718  -2.034  -0.045  0.00  0.00    -0.309 N 
ATOM     18  H   UNL     1       2.886  -2.533  -0.039  0.00  0.00    +0.149 HD
BRANCH  17  19
ATOM     19  C   UNL     1       4.998  -2.747  -0.061  0.00  0.00    +0.136 C 
BRANCH  19  20
ATOM     20  C   UNL     1       4.742  -4.255  -0.067  0.00  0.00    +0.135 C 
ATOM     21  C   UNL     1       6.085  -5.028  -0.049  0.00  0.00    +0.035 C 
ATOM     22  C   UNL     1       5.640  -6.377   0.579  0.00  0.00    +0.031 C 
ATOM     23  C   UNL     1       4.540  -5.932   1.567  0.00  0.00    +0.160 C 
ATOM     24  O   UNL     1       4.063  -4.650   1.136  0.00  0.00    -0.375 OA
ENDBRANCH  19  20
ENDBRANCH  17  19
ENDBRANCH   4  15
BRANCH   6  25
ATOM     25  N   UNL     1      -1.202  -0.719   0.010  0.00  0.00    -0.216 N 
ATOM     26  H   UNL     1      -1.310  -1.480   0.601  0.00  0.00    +0.174 HD
BRANCH  25  27
ATOM     27  S   UNL     1      -2.442  -0.263  -0.989  0.00  0.00    +0.072 S 
ATOM     28  O   UNL     1      -3.500  -1.186  -0.770  0.00  0.00    -0.150 OA
ATOM     29  O   UNL     1      -2.606   1.138  -0.821  0.00  0.00    -0.150 OA
BRANCH  27  30
ATOM     30  C   UNL     1      -1.893  -0.510  -2.645  0.00  0.00    +0.109 A 
ATOM     31  C   UNL     1      -1.243   0.507  -3.320  0.00  0.00    +0.029 A 
ATOM     32  C   UNL     1      -0.819   0.307  -4.617  0.00  0.00    +0.006 A 
ATOM     33  C   UNL     1      -1.038  -0.909  -5.252  0.00  0.00    -0.044 A 
ATOM     34  C   UNL     1      -1.681  -1.923  -4.579  0.00  0.00    -0.042 A 
ATOM     35  C   UNL     1      -2.106  -1.721  -3.272  0.00  0.00    +0.032 A 
ATOM     36  C   UNL     1      -1.939  -3.272  -5.199  0.00  0.00    +0.035 C 
ATOM     37  C   UNL     1      -1.810  -3.197  -6.719  0.00  0.00    +0.005 C 
ATOM     38  C   UNL     1      -0.472  -2.530  -7.060  0.00  0.00    +0.005 C 
ATOM     39  C   UNL     1      -0.556  -1.056  -6.671  0.00  0.00    +0.035 C 
ENDBRANCH  27  30
ENDBRANCH  25  27
ENDBRANCH   6  25
TORSDOF 7
