REMARK  Name = ZINC07022717
REMARK  6 active torsions:
REMARK  status: ('A' for Active; 'I' for Inactive)
REMARK    1  A    between atoms: C_1  and  C_2
REMARK    2  A    between atoms: C_5  and  C_14
REMARK    3  A    between atoms: C_12  and  C_13
REMARK    4  A    between atoms: C_14  and  O_15
REMARK    5  A    between atoms: O_15  and  C_16
REMARK    6  A    between atoms: C_21  and  C_22
REMARK                            x       y       z     vdW  Elec       q    Type
REMARK                         _______ _______ _______ _____ _____    ______ ____
ROOT
ATOM      1  C   UNL     1      -4.802   3.868   0.029  0.00  0.00    +0.265 C 
ENDROOT
BRANCH   1   6
ATOM      2  C   UNL     1      -9.148   6.792   0.043  0.00  0.00    +0.044 C 
ATOM      3  C   UNL     1      -8.886   5.307   0.035  0.00  0.00    -0.047 A 
ATOM      4  C   UNL     1      -7.599   4.845   0.033  0.00  0.00    +0.015 A 
ATOM      5  C   UNL     1      -7.358   3.469   0.026  0.00  0.00    +0.024 A 
ATOM      6  C   UNL     1      -5.990   2.941   0.023  0.00  0.00    +0.007 A 
ATOM      7  C   UNL     1      -5.823   1.594   0.010  0.00  0.00    +0.099 A 
ATOM      8  C   UNL     1      -6.952   0.747   0.011  0.00  0.00    +0.338 A 
ATOM      9  O   UNL     1      -6.789  -0.460   0.005  0.00  0.00    -0.245 OA
ATOM     10  O   UNL     1      -8.201   1.237   0.014  0.00  0.00    -0.422 OA
ATOM     11  C   UNL     1      -8.436   2.567   0.021  0.00  0.00    +0.140 A 
ATOM     12  C   UNL     1      -9.735   3.058   0.023  0.00  0.00    +0.050 A 
ATOM     13  C   UNL     1      -9.953   4.421   0.031  0.00  0.00    -0.044 A 
ATOM     14  C   UNL     1     -11.363   4.951   0.033  0.00  0.00    +0.044 C 
ENDBRANCH   1   6
BRANCH   1  15
ATOM     15  O   UNL     1      -3.598   3.099   0.024  0.00  0.00    -0.487 OA
BRANCH  15  16
ATOM     16  C   UNL     1      -2.428   3.787   0.028  0.00  0.00    +0.133 A 
ATOM     17  C   UNL     1      -2.436   5.174   0.042  0.00  0.00    +0.048 A 
ATOM     18  C   UNL     1      -1.245   5.873   0.039  0.00  0.00    +0.023 A 
ATOM     19  C   UNL     1      -0.035   5.196   0.030  0.00  0.00    +0.042 A 
ATOM     20  C   UNL     1      -0.009   3.818   0.023  0.00  0.00    +0.036 A 
ATOM     21  C   UNL     1      -1.207   3.099   0.025  0.00  0.00    +0.079 A 
ATOM     22 CL   UNL     1       1.454   6.089   0.028  0.00  0.00    -0.084 Cl
BRANCH  21  23
ATOM     23  C   UNL     1      -1.187   1.624   0.017  0.00  0.00    +0.245 C 
ATOM     24  O   UNL     1      -2.232   1.002   0.018  0.00  0.00    -0.270 OA
ATOM     25  N   UNL     1      -0.011   0.966   0.007  0.00  0.00    -0.325 N 
ATOM     26  H   UNL     1       0.002  -0.004   0.002  0.00  0.00    +0.145 HD
ATOM     27  H   UNL     1       0.822   1.462   0.002  0.00  0.00    +0.145 HD
ENDBRANCH  21  23
ENDBRANCH  15  16
ENDBRANCH   1  15
TORSDOF 4
