REMARK  Name = ZINC38588216
REMARK  5 active torsions:
REMARK  status: ('A' for Active; 'I' for Inactive)
REMARK    1  A    between atoms: C_1  and  S_2
REMARK    2  A    between atoms: S_2  and  C_5
REMARK    3  A    between atoms: N_13  and  C_14
REMARK    4  A    between atoms: C_14  and  C_16
REMARK    5  A    between atoms: N_22  and  C_24
REMARK                            x       y       z     vdW  Elec       q    Type
REMARK                         _______ _______ _______ _____ _____    ______ ____
ROOT
ATOM      1  C   UNL     1       6.531  -1.972  -5.277  0.00  0.00    +0.265 C 
ATOM      2  O   UNL     1       6.853  -1.753  -4.125  0.00  0.00    -0.271 OA
ENDROOT
BRANCH   1  11
ATOM      3  C   UNL     1       0.845  -0.437  -1.483  0.00  0.00    +0.089 A 
ATOM      4  C   UNL     1       0.140  -0.615  -2.662  0.00  0.00    +0.029 A 
ATOM      5  C   UNL     1       0.780  -0.953  -3.831  0.00  0.00    +0.028 A 
ATOM      6  C   UNL     1       2.171  -1.128  -3.858  0.00  0.00    +0.055 A 
ATOM      7  C   UNL     1       2.860  -0.942  -2.652  0.00  0.00    +0.040 A 
ATOM      8  C   UNL     1       2.220  -0.598  -1.485  0.00  0.00    +0.044 A 
ATOM      9  S   UNL     1       4.549  -1.247  -3.101  0.00  0.00    -0.052 S 
ATOM     10  C   UNL     1       4.326  -1.584  -4.732  0.00  0.00    +0.164 A 
ATOM     11  N   UNL     1       5.253  -1.898  -5.635  0.00  0.00    -0.155 NA
ATOM     12  N   UNL     1       2.988  -1.464  -4.921  0.00  0.00    -0.335 N 
ATOM     13  H   UNL     1       2.605  -1.614  -5.800  0.00  0.00    +0.168 HD
BRANCH   3  15
ATOM     14  C   UNL     1      -0.022   1.810   0.012  0.00  0.00    +0.200 C 
ATOM     15  S   UNL     1       0.002  -0.004   0.002  0.00  0.00    -0.006 S 
ATOM     16  O   UNL     1       0.835  -0.488   1.046  0.00  0.00    -0.170 OA
ATOM     17  O   UNL     1      -1.315  -0.510  -0.168  0.00  0.00    -0.170 OA
ENDBRANCH   3  15
ENDBRANCH   1  11
BRANCH   1  18
ATOM     18  C   UNL     1       7.580  -2.327  -6.299  0.00  0.00    +0.231 C 
ATOM     19  C   UNL     1       7.287  -3.693  -6.871  0.00  0.00    +0.185 C 
ATOM     20  O   UNL     1       6.540  -3.813  -7.822  0.00  0.00    -0.290 OA
ATOM     21  C   UNL     1       7.886  -4.824  -6.293  0.00  0.00    +0.065 C 
ATOM     22  C   UNL     1       8.731  -4.664  -5.241  0.00  0.00    +0.097 C 
ATOM     23  N   UNL     1       8.987  -3.402  -4.782  0.00  0.00    -0.242 N 
ATOM     24  N   UNL     1       8.905  -2.348  -5.658  0.00  0.00    -0.217 NA
ATOM     25  H   UNL     1       9.640  -2.394  -6.348  0.00  0.00    +0.146 HD
BRANCH  23  26
ATOM     26  C   UNL     1       9.326  -3.187  -3.443  0.00  0.00    +0.049 A 
ATOM     27  C   UNL     1       9.578  -1.899  -2.987  0.00  0.00    +0.025 A 
ATOM     28  C   UNL     1       9.912  -1.690  -1.663  0.00  0.00    +0.002 A 
ATOM     29  C   UNL     1       9.996  -2.761  -0.793  0.00  0.00    +0.000 A 
ATOM     30  C   UNL     1       9.745  -4.045  -1.244  0.00  0.00    +0.002 A 
ATOM     31  C   UNL     1       9.406  -4.260  -2.565  0.00  0.00    +0.025 A 
ENDBRANCH  23  26
ENDBRANCH   1  18
TORSDOF 4
