REMARK  Name = ZINC04228290
REMARK  7 active torsions:
REMARK  status: ('A' for Active; 'I' for Inactive)
REMARK    1  A    between atoms: C_1  and  C_2
REMARK    2  A    between atoms: N_4  and  C_5
REMARK    3  A    between atoms: C_7  and  O_20
REMARK    4  A    between atoms: C_9  and  O_19
REMARK    5  A    between atoms: C_11  and  C_17
REMARK    6  A    between atoms: C_14  and  O_16
REMARK    7  A    between atoms: C_17  and  O_18
REMARK                            x       y       z     vdW  Elec       q    Type
REMARK                         _______ _______ _______ _____ _____    ______ ____
ROOT
ATOM      1  C   UNL     1      -0.737   3.086  -3.700  0.00  0.00    +0.160 C 
ATOM      2  C   UNL     1      -0.819   1.557  -3.726  0.00  0.00    +0.171 C 
ATOM      3  C   UNL     1      -0.111   0.998  -2.488  0.00  0.00    +0.176 C 
ATOM      4  C   UNL     1      -0.753   1.593  -1.232  0.00  0.00    +0.178 C 
ATOM      5  O   UNL     1      -0.671   3.018  -1.286  0.00  0.00    -0.341 OA
ATOM      6  C   UNL     1      -1.355   3.600  -2.397  0.00  0.00    +0.270 C 
ENDROOT
BRANCH   1  10
ATOM      7  C   UNL     1       2.423   5.148  -4.342  0.00  0.00    +0.109 C 
ATOM      8  C   UNL     1       0.981   4.719  -4.265  0.00  0.00    +0.210 C 
ATOM      9  O   UNL     1       0.104   5.467  -4.642  0.00  0.00    -0.276 OA
ATOM     10  N   UNL     1       0.665   3.503  -3.776  0.00  0.00    -0.305 N 
ATOM     11  H   UNL     1       1.366   2.905  -3.474  0.00  0.00    +0.149 HD
ENDBRANCH   1  10
BRANCH   6  12
ATOM     12  O   UNL     1      -1.232   5.023  -2.341  0.00  0.00    -0.365 OA
ATOM     13  H   UNL     1      -1.603   5.418  -1.540  0.00  0.00    +0.213 HD
ENDBRANCH   6  12
BRANCH   3  14
ATOM     14  O   UNL     1      -0.242  -0.425  -2.463  0.00  0.00    -0.387 OA
ATOM     15  H   UNL     1       0.180  -0.845  -1.701  0.00  0.00    +0.210 HD
ENDBRANCH   3  14
BRANCH   2  16
ATOM     16  O   UNL     1      -0.179   1.064  -4.905  0.00  0.00    -0.387 OA
ATOM     17  H   UNL     1      -0.187   0.100  -4.984  0.00  0.00    +0.210 HD
ENDBRANCH   2  16
BRANCH   4  18
ATOM     18  C   UNL     1      -0.013   1.086   0.008  0.00  0.00    +0.190 C 
BRANCH  18  19
ATOM     19  O   UNL     1      -0.682   1.547   1.184  0.00  0.00    -0.392 OA
ATOM     20  H   UNL     1      -0.266   1.262   2.009  0.00  0.00    +0.210 HD
ENDBRANCH  18  19
ENDBRANCH   4  18
TORSDOF 6
