REMARK  Name = ZINC20344736
REMARK  6 active torsions:
REMARK  status: ('A' for Active; 'I' for Inactive)
REMARK    1  A    between atoms: C_1  and  C_2
REMARK    2  A    between atoms: C_5  and  N_9
REMARK    3  A    between atoms: C_6  and  N_8
REMARK    4  A    between atoms: C_10  and  C_12
REMARK    5  A    between atoms: C_12  and  C_13
REMARK    6  A    between atoms: C_13  and  N_14
REMARK                            x       y       z     vdW  Elec       q    Type
REMARK                         _______ _______ _______ _____ _____    ______ ____
ROOT
ATOM      1  N   UNL     1       0.064  -2.709   2.597  0.00  0.00    -0.284 N 
ATOM      2  C   UNL     1       0.040  -2.028   1.433  0.00  0.00    +0.219 C 
ATOM      3  O   UNL     1       0.044  -2.629   0.380  0.00  0.00    -0.275 OA
ATOM      4  H   UNL     1       0.151  -2.166   3.550  0.00  0.00    +0.155 HD
ENDROOT
BRANCH   1   9
ATOM      5  C   UNL     1      -0.289  -8.378   2.572  0.00  0.00    +0.044 C 
ATOM      6  C   UNL     1      -0.194  -6.874   2.582  0.00  0.00    -0.049 A 
ATOM      7  C   UNL     1      -0.713  -6.143   1.529  0.00  0.00    +0.005 A 
ATOM      8  C   UNL     1      -0.629  -4.763   1.532  0.00  0.00    +0.025 A 
ATOM      9  C   UNL     1      -0.023  -4.108   2.592  0.00  0.00    +0.054 A 
ATOM     10  C   UNL     1       0.505  -4.844   3.652  0.00  0.00    +0.046 A 
ATOM     11  C   UNL     1       0.411  -6.228   3.644  0.00  0.00    +0.028 A 
BRANCH  10  12
ATOM     12  N   UNL     1       1.122  -4.189   4.723  0.00  0.00    -0.357 N 
ATOM     13  H   UNL     1       1.538  -4.772   5.558  0.00  0.00    +0.142 HD
ATOM     14  H   UNL     1       1.192  -3.091   4.730  0.00  0.00    +0.142 HD
ENDBRANCH  10  12
ENDBRANCH   1   9
BRANCH   2  15
ATOM     15  C   UNL     1       0.007  -0.522   1.442  0.00  0.00    +0.115 C 
BRANCH  15  16
ATOM     16  C   UNL     1      -0.015  -0.004   0.003  0.00  0.00    +0.126 C 
BRANCH  16  17
ATOM     17  N   UNL     1      -0.047   1.461   0.011  0.00  0.00    -0.234 N 
ATOM     18  C   UNL     1      -1.172   2.198   0.019  0.00  0.00    +0.254 C 
ATOM     19  O   UNL     1      -2.305   1.762   0.020  0.00  0.00    -0.270 OA
ATOM     20  C   UNL     1      -0.798   3.628   0.028  0.00  0.00    +0.049 A 
ATOM     21  C   UNL     1      -1.513   4.815   0.040  0.00  0.00    +0.014 A 
ATOM     22  C   UNL     1      -0.836   6.025   0.041  0.00  0.00    +0.001 A 
ATOM     23  C   UNL     1       0.546   6.055   0.030  0.00  0.00    +0.001 A 
ATOM     24  C   UNL     1       1.274   4.875   0.019  0.00  0.00    +0.014 A 
ATOM     25  C   UNL     1       0.611   3.659   0.018  0.00  0.00    +0.049 A 
ATOM     26  C   UNL     1       1.046   2.246   0.007  0.00  0.00    +0.254 C 
ATOM     27  O   UNL     1       2.197   1.858  -0.004  0.00  0.00    -0.270 OA
ENDBRANCH  16  17
ENDBRANCH  15  16
ENDBRANCH   2  15
TORSDOF 5
