REMARK  Name = ZINC16757119
REMARK  2 active torsions:
REMARK  status: ('A' for Active; 'I' for Inactive)
REMARK    1  A    between atoms: C_3  and  C_8
REMARK    2  A    between atoms: C_13  and  C_15
REMARK                            x       y       z     vdW  Elec       q    Type
REMARK                         _______ _______ _______ _____ _____    ______ ____
ROOT
ATOM      1  C   UNL     1       1.172   3.564   0.009  0.00  0.00    +0.281 C 
ATOM      2  O   UNL     1       0.118   4.163  -0.076  0.00  0.00    -0.265 OA
ATOM      3  N   UNL     1       2.330   4.247   0.104  0.00  0.00    -0.163 N 
ATOM      4  C   UNL     1       2.477   5.598   0.213  0.00  0.00    +0.219 A 
ATOM      5  N   UNL     1       3.765   5.854   0.282  0.00  0.00    -0.190 NA
ATOM      6  C   UNL     1       4.456   4.715   0.212  0.00  0.00    +0.257 A 
ATOM      7  N   UNL     1       3.628   3.712   0.103  0.00  0.00    -0.137 NA
ATOM      8  N   UNL     1       1.459   6.529   0.248  0.00  0.00    -0.327 N 
ATOM      9  H   UNL     1       0.535   6.239   0.192  0.00  0.00    +0.145 HD
ATOM     10  H   UNL     1       1.667   7.473   0.328  0.00  0.00    +0.145 HD
ENDROOT
BRANCH   1  13
ATOM     11  C   UNL     1       0.001  -0.004   0.040  0.00  0.00    +0.002 A 
ATOM     12  C   UNL     1      -0.017   1.376   0.040  0.00  0.00    +0.013 A 
ATOM     13  C   UNL     1       1.184   2.087   0.010  0.00  0.00    +0.042 A 
ATOM     14  C   UNL     1       2.397   1.396  -0.021  0.00  0.00    +0.028 A 
ATOM     15  C   UNL     1       2.401   0.015  -0.021  0.00  0.00    +0.019 A 
ATOM     16  C   UNL     1       1.206  -0.683   0.009  0.00  0.00    +0.015 A 
ATOM     17 BR   UNL     1       4.042  -0.924  -0.063  0.00  0.00    -0.050 Br
ENDBRANCH   1  13
BRANCH   6  18
ATOM     18  C   UNL     1       5.958   4.603   0.254  0.00  0.00    +0.454 C 
ATOM     19  F   UNL     1       6.490   5.011  -0.974  0.00  0.00    -0.163 F 
ATOM     20  F   UNL     1       6.459   5.421   1.273  0.00  0.00    -0.163 F 
ATOM     21  F   UNL     1       6.321   3.275   0.501  0.00  0.00    -0.163 F 
ENDBRANCH   6  18
TORSDOF 2
