REMARK  Name = ZINC35312307
REMARK  8 active torsions:
REMARK  status: ('A' for Active; 'I' for Inactive)
REMARK    1  A    between atoms: C_1  and  C_2
REMARK    2  A    between atoms: C_3  and  C_7
REMARK    3  A    between atoms: C_10  and  S_13
REMARK    4  A    between atoms: N_11  and  C_12
REMARK    5  A    between atoms: S_13  and  C_14
REMARK    6  A    between atoms: C_14  and  C_15
REMARK    7  A    between atoms: N_17  and  C_18
REMARK    8  A    between atoms: C_19  and  C_27
REMARK                            x       y       z     vdW  Elec       q    Type
REMARK                         _______ _______ _______ _____ _____    ______ ____
ROOT
ATOM      1  C   UNL     1      -8.688   0.455  -0.931  0.00  0.00    +0.228 C 
ATOM      2  O   UNL     1      -9.076  -0.681  -1.104  0.00  0.00    -0.275 OA
ATOM      3  N   UNL     1      -9.555   1.483  -1.014  0.00  0.00    -0.279 N 
ATOM      4  H   UNL     1      -9.245   2.391  -0.876  0.00  0.00    +0.155 HD
ENDROOT
BRANCH   3   5
ATOM      5  C   UNL     1     -10.891   1.242  -1.296  0.00  0.00    +0.084 A 
ATOM      6  C   UNL     1     -11.915   2.167  -1.424  0.00  0.00    +0.068 A 
ATOM      7  C   UNL     1     -13.240   1.653  -1.726  0.00  0.00    -0.023 A 
ATOM      8  C   UNL     1     -13.298   0.309  -1.844  0.00  0.00    -0.004 A 
ATOM      9  S   UNL     1     -11.638  -0.237  -1.569  0.00  0.00    -0.077 S 
ATOM     10  C   UNL     1     -14.510  -0.516  -2.147  0.00  0.00    +0.043 C 
ATOM     11  C   UNL     1     -15.754   0.359  -1.931  0.00  0.00    +0.005 C 
ATOM     12  C   UNL     1     -15.545   1.701  -2.639  0.00  0.00    +0.005 C 
ATOM     13  C   UNL     1     -14.480   2.517  -1.903  0.00  0.00    +0.037 C 
BRANCH   6  14
ATOM     14  C   UNL     1     -11.672   3.603  -1.261  0.00  0.00    +0.244 C 
ATOM     15  O   UNL     1     -11.368   4.282  -2.225  0.00  0.00    -0.270 OA
ATOM     16  N   UNL     1     -11.784   4.172  -0.045  0.00  0.00    -0.325 N 
ATOM     17  H   UNL     1     -12.026   3.631   0.723  0.00  0.00    +0.145 HD
ATOM     18  H   UNL     1     -11.623   5.123   0.063  0.00  0.00    +0.145 HD
ENDBRANCH   6  14
ENDBRANCH   3   5
BRANCH   1  19
ATOM     19  C   UNL     1      -7.236   0.717  -0.624  0.00  0.00    +0.173 C 
BRANCH  19  20
ATOM     20  S   UNL     1      -6.333  -0.857  -0.581  0.00  0.00    -0.077 S 
BRANCH  20  24
ATOM     21  C   UNL     1      -2.531  -0.417   0.203  0.00  0.00    +0.168 A 
ATOM     22  N   UNL     1      -2.974   0.818   0.221  0.00  0.00    -0.128 NA
ATOM     23  N   UNL     1      -4.235   0.836  -0.025  0.00  0.00    -0.122 NA
ATOM     24  C   UNL     1      -4.675  -0.387  -0.216  0.00  0.00    +0.192 A 
ATOM     25  N   UNL     1      -3.604  -1.227  -0.083  0.00  0.00    -0.305 N 
ATOM     26  C   UNL     1      -3.602  -2.686  -0.215  0.00  0.00    +0.153 C 
BRANCH  21  29
ATOM     27  C   UNL     1       0.052   0.855  -1.038  0.00  0.00    +0.087 C 
ATOM     28  C   UNL     1      -0.006  -0.315  -0.089  0.00  0.00    +0.112 A 
ATOM     29  C   UNL     1      -1.138  -0.854   0.439  0.00  0.00    +0.060 A 
ATOM     30  C   UNL     1      -0.689  -1.960   1.294  0.00  0.00    +0.053 A 
ATOM     31  C   UNL     1       0.651  -1.982   1.200  0.00  0.00    +0.196 A 
ATOM     32  O   UNL     1       1.047  -1.003   0.372  0.00  0.00    -0.467 OA
ENDBRANCH  21  29
ENDBRANCH  20  24
ENDBRANCH  19  20
ENDBRANCH   1  19
TORSDOF 6
