REMARK  Name = ZINC37818932
REMARK  8 active torsions:
REMARK  status: ('A' for Active; 'I' for Inactive)
REMARK    1  A    between atoms: C_1  and  C_2
REMARK    2  A    between atoms: C_2  and  C_3
REMARK    3  A    between atoms: C_2  and  C_4
REMARK    4  A    between atoms: C_4  and  N_5
REMARK    5  A    between atoms: N_5  and  C_6
REMARK    6  A    between atoms: C_6  and  C_7
REMARK    7  A    between atoms: C_10  and  C_12
REMARK    8  A    between atoms: C_12  and  N_18
REMARK                            x       y       z     vdW  Elec       q    Type
REMARK                         _______ _______ _______ _____ _____    ______ ____
ROOT
ATOM      1  N   UNL     1      -1.934  -2.297   0.053  0.00  0.00    -0.294 N 
ATOM      2  C   UNL     1      -1.555  -2.708  -1.173  0.00  0.00    +0.205 C 
ATOM      3  O   UNL     1      -1.355  -1.895  -2.050  0.00  0.00    -0.277 OA
ENDROOT
BRANCH   2   4
ATOM      4  C   UNL     1      -1.381  -4.178  -1.455  0.00  0.00    +0.007 C 
ATOM      5  C   UNL     1      -2.647  -4.931  -1.040  0.00  0.00    -0.004 C 
ATOM      6  C   UNL     1      -3.841  -4.397  -1.835  0.00  0.00    -0.001 C 
ATOM      7  C   UNL     1      -3.591  -4.604  -3.330  0.00  0.00    -0.000 C 
ATOM      8  C   UNL     1      -2.325  -3.852  -3.745  0.00  0.00    -0.001 C 
ATOM      9  C   UNL     1      -1.132  -4.385  -2.950  0.00  0.00    -0.004 C 
BRANCH   4  10
ATOM     10  N   UNL     1      -0.235  -4.691  -0.692  0.00  0.00    +0.388 N 
ATOM     11  H   UNL     1      -0.276  -4.339   0.253  0.00  0.00    -0.089 HD
ATOM     12  H   UNL     1      -0.265  -5.699  -0.677  0.00  0.00    -0.089 HD
ATOM     13  H   UNL     1       0.622  -4.386  -1.127  0.00  0.00    -0.089 HD
ENDBRANCH   4  10
ENDBRANCH   2   4
BRANCH   1  14
ATOM     14  C   UNL     1      -2.128  -0.870   0.320  0.00  0.00    +0.111 C 
BRANCH  14  16
ATOM     15  C   UNL     1      -0.979   1.254   0.962  0.00  0.00    +0.009 C 
ATOM     16  C   UNL     1      -0.811  -0.259   0.803  0.00  0.00    +0.000 C 
ATOM     17  C   UNL     1      -0.426  -0.874   2.150  0.00  0.00    +0.009 C 
ENDBRANCH  14  16
ENDBRANCH   1  14
BRANCH   1  18
ATOM     18  C   UNL     1      -2.153  -3.278   1.119  0.00  0.00    +0.203 C 
BRANCH  18  19
ATOM     19  C   UNL     1      -3.628  -3.561   1.247  0.00  0.00    +0.228 C 
ATOM     20  O   UNL     1      -4.418  -2.998   0.519  0.00  0.00    -0.274 OA
ATOM     21  N   UNL     1      -4.069  -4.438   2.170  0.00  0.00    -0.328 N 
ATOM     22  H   UNL     1      -3.437  -4.888   2.752  0.00  0.00    +0.145 HD
ATOM     23  H   UNL     1      -5.018  -4.620   2.252  0.00  0.00    +0.145 HD
ENDBRANCH  18  19
ENDBRANCH   1  18
TORSDOF 6
