REMARK  Name = ZINC44254367
REMARK  7 active torsions:
REMARK  status: ('A' for Active; 'I' for Inactive)
REMARK    1  A    between atoms: C_1  and  N_2
REMARK    2  A    between atoms: C_6  and  C_16
REMARK    3  A    between atoms: N_9  and  C_10
REMARK    4  A    between atoms: C_16  and  C_18
REMARK    5  A    between atoms: C_16  and  N_22
REMARK    6  A    between atoms: C_18  and  C_19
REMARK    7  A    between atoms: N_26  and  C_29
REMARK                            x       y       z     vdW  Elec       q    Type
REMARK                         _______ _______ _______ _____ _____    ______ ____
ROOT
ATOM      1  C   UNL     1      -0.143   1.451   1.026  0.00  0.00    +0.155 C 
ATOM      2  N   UNL     1      -0.123  -0.013   1.013  0.00  0.00    -0.282 N 
ATOM      3  C   UNL     1      -1.238  -0.700   0.610  0.00  0.00    +0.139 A 
ATOM      4  C   UNL     1      -1.203  -2.097   0.602  0.00  0.00    +0.099 A 
ATOM      5  C   UNL     1      -2.338  -2.825   0.192  0.00  0.00    +0.063 A 
ATOM      6  C   UNL     1      -3.455  -2.139  -0.192  0.00  0.00    +0.023 A 
ATOM      7  C   UNL     1      -3.454  -0.736  -0.172  0.00  0.00    +0.260 A 
ATOM      8  O   UNL     1      -4.455  -0.130  -0.516  0.00  0.00    -0.267 OA
ATOM      9  N   UNL     1      -2.365  -0.049   0.221  0.00  0.00    -0.262 N 
ATOM     10 CL   UNL     1      -2.317  -4.561   0.174  0.00  0.00    -0.082 Cl
ATOM     11  C   UNL     1       0.030  -2.770   1.028  0.00  0.00    +0.267 A 
ATOM     12  O   UNL     1       0.108  -3.984   1.038  0.00  0.00    -0.267 OA
ATOM     13  N   UNL     1       1.076  -2.004   1.408  0.00  0.00    -0.263 N 
ATOM     14  C   UNL     1       0.990  -0.664   1.391  0.00  0.00    +0.333 A 
ATOM     15  O   UNL     1       1.957  -0.013   1.736  0.00  0.00    -0.246 OA
ATOM     16  C   UNL     1       2.322  -2.643   1.839  0.00  0.00    +0.157 C 
ENDROOT
BRANCH   9  17
ATOM     17  C   UNL     1      -2.396   1.352   0.230  0.00  0.00    +0.051 A 
ATOM     18  C   UNL     1      -2.011   2.063  -0.898  0.00  0.00    +0.026 A 
ATOM     19  C   UNL     1      -2.042   3.444  -0.886  0.00  0.00    +0.002 A 
ATOM     20  C   UNL     1      -2.455   4.118   0.249  0.00  0.00    +0.000 A 
ATOM     21  C   UNL     1      -2.839   3.412   1.374  0.00  0.00    +0.002 A 
ATOM     22  C   UNL     1      -2.816   2.031   1.366  0.00  0.00    +0.026 A 
ENDBRANCH   9  17
BRANCH   6  23
ATOM     23  C   UNL     1      -4.685  -2.888  -0.637  0.00  0.00    -0.029 C 
BRANCH  23  24
ATOM     24  N   UNL     1      -5.837  -2.457   0.166  0.00  0.00    +0.383 N 
ATOM     25  H   UNL     1      -6.660  -2.958  -0.132  0.00  0.00    -0.089 HD
ATOM     26  H   UNL     1      -5.659  -2.651   1.140  0.00  0.00    -0.089 HD
ATOM     27  H   UNL     1      -5.982  -1.466   0.041  0.00  0.00    -0.089 HD
ENDBRANCH  23  24
BRANCH  23  28
ATOM     28  C   UNL     1      -4.954  -2.594  -2.114  0.00  0.00    +0.084 C 
BRANCH  28  29
ATOM     29  C   UNL     1      -6.109  -3.436  -2.591  0.00  0.00    +0.209 C 
ATOM     30  O   UNL     1      -6.663  -4.196  -1.825  0.00  0.00    -0.276 OA
ATOM     31  N   UNL     1      -6.527  -3.344  -3.869  0.00  0.00    -0.329 N 
ATOM     32  H   UNL     1      -6.085  -2.736  -4.482  0.00  0.00    +0.145 HD
ATOM     33  H   UNL     1      -7.271  -3.886  -4.176  0.00  0.00    +0.145 HD
ENDBRANCH  28  29
ENDBRANCH  23  28
ENDBRANCH   6  23
TORSDOF 5
