REMARK  Name = ZINC09592986
REMARK  6 active torsions:
REMARK  status: ('A' for Active; 'I' for Inactive)
REMARK    1  A    between atoms: C_1  and  C_2
REMARK    2  A    between atoms: C_7  and  N_8
REMARK    3  A    between atoms: C_11  and  C_16
REMARK    4  A    between atoms: C_16  and  N_17
REMARK    5  A    between atoms: C_20  and  C_24
REMARK    6  A    between atoms: C_20  and  C_25
REMARK                            x       y       z     vdW  Elec       q    Type
REMARK                         _______ _______ _______ _____ _____    ______ ____
ROOT
ATOM      1  C   UNL     1       4.141  -4.035   2.285  0.00  0.00    +0.194 C 
ENDROOT
BRANCH   1   5
ATOM      2  N   UNL     1       1.090  -7.736   2.410  0.00  0.00    -0.283 N 
ATOM      3  C   UNL     1       2.385  -7.270   2.290  0.00  0.00    +0.224 A 
ATOM      4  N   UNL     1       2.631  -5.963   2.346  0.00  0.00    -0.198 NA
ATOM      5  C   UNL     1       3.868  -5.516   2.227  0.00  0.00    +0.154 A 
ATOM      6  N   UNL     1       4.868  -6.364   2.061  0.00  0.00    -0.198 NA
ATOM      7  C   UNL     1       4.631  -7.673   2.009  0.00  0.00    +0.217 A 
ATOM      8  N   UNL     1       3.387  -8.126   2.123  0.00  0.00    -0.181 NA
ATOM      9  N   UNL     1       5.676  -8.557   1.836  0.00  0.00    -0.327 N 
ATOM     10  H   UNL     1       0.370  -7.120   2.618  0.00  0.00    +0.155 HD
ATOM     11  H   UNL     1       6.583  -8.226   1.752  0.00  0.00    +0.145 HD
ATOM     12  H   UNL     1       5.502  -9.511   1.798  0.00  0.00    +0.145 HD
BRANCH   2  19
ATOM     13  C   UNL     1      -1.103  -8.864   3.829  0.00  0.00    +0.045 C 
ATOM     14  C   UNL     1      -0.243  -9.688   2.904  0.00  0.00    -0.029 A 
ATOM     15  C   UNL     1      -0.513 -11.030   2.722  0.00  0.00    +0.005 A 
ATOM     16  C   UNL     1       0.278 -11.787   1.877  0.00  0.00    +0.000 A 
ATOM     17  C   UNL     1       1.338 -11.202   1.209  0.00  0.00    +0.002 A 
ATOM     18  C   UNL     1       1.610  -9.859   1.383  0.00  0.00    +0.023 A 
ATOM     19  C   UNL     1       0.817  -9.096   2.231  0.00  0.00    +0.036 A 
ENDBRANCH   2  19
ENDBRANCH   1   5
BRANCH   1  20
ATOM     20  N   UNL     1       4.073  -3.472   0.935  0.00  0.00    -0.217 N 
ATOM     21  C   UNL     1       2.949  -2.986   0.373  0.00  0.00    +0.251 C 
ATOM     22  O   UNL     1       1.845  -2.933   0.871  0.00  0.00    -0.272 OA
ATOM     23  C   UNL     1       3.352  -2.518  -1.012  0.00  0.00    +0.136 C 
ATOM     24  N   UNL     1       4.791  -2.824  -1.079  0.00  0.00    -0.281 N 
ATOM     25  C   UNL     1       5.119  -3.377   0.106  0.00  0.00    +0.310 C 
ATOM     26  O   UNL     1       6.241  -3.750   0.389  0.00  0.00    -0.252 OA
ATOM     27  C   UNL     1       2.585  -3.293  -2.086  0.00  0.00    +0.047 C 
ATOM     28  H   UNL     1       5.384  -2.660  -1.829  0.00  0.00    +0.152 HD
BRANCH  23  29
ATOM     29  C   UNL     1       3.117  -1.037  -1.161  0.00  0.00    -0.008 A 
ATOM     30  C   UNL     1       4.167  -0.196  -1.370  0.00  0.00    +0.007 A 
ATOM     31  C   UNL     1       3.969   1.176  -1.511  0.00  0.00    +0.001 A 
ATOM     32  C   UNL     1       2.721   1.716  -1.442  0.00  0.00    +0.008 A 
ATOM     33  C   UNL     1       1.613   0.879  -1.227  0.00  0.00    -0.018 A 
ATOM     34  C   UNL     1       1.814  -0.517  -1.084  0.00  0.00    -0.012 A 
ATOM     35  C   UNL     1       0.706  -1.354  -0.869  0.00  0.00    +0.009 A 
ATOM     36  C   UNL     1      -0.542  -0.815  -0.801  0.00  0.00    +0.001 A 
ATOM     37  C   UNL     1      -0.739   0.558  -0.942  0.00  0.00    +0.001 A 
ATOM     38  C   UNL     1       0.310   1.399  -1.151  0.00  0.00    +0.008 A 
ENDBRANCH  23  29
ENDBRANCH   1  20
TORSDOF 4
