REMARK  Name = ZINC00154997
REMARK  8 active torsions:
REMARK  status: ('A' for Active; 'I' for Inactive)
REMARK    1  A    between atoms: C_4  and  O_9
REMARK    2  A    between atoms: C_5  and  C_7
REMARK    3  A    between atoms: O_9  and  C_10
REMARK    4  A    between atoms: C_12  and  O_25
REMARK    5  A    between atoms: C_14  and  O_24
REMARK    6  A    between atoms: C_16  and  O_23
REMARK    7  A    between atoms: C_18  and  C_21
REMARK    8  A    between atoms: C_21  and  O_22
REMARK                            x       y       z     vdW  Elec       q    Type
REMARK                         _______ _______ _______ _____ _____    ______ ____
ROOT
ATOM      1  C   UNL     1      -2.864   1.912   2.369  0.00  0.00    +0.339 C 
ATOM      2  C   UNL     1      -2.864   3.438   2.485  0.00  0.00    +0.214 C 
ATOM      3  C   UNL     1      -1.417   3.935   2.570  0.00  0.00    +0.180 C 
ATOM      4  C   UNL     1      -0.647   3.445   1.340  0.00  0.00    +0.177 C 
ATOM      5  C   UNL     1      -0.733   1.918   1.269  0.00  0.00    +0.179 C 
ATOM      6  O   UNL     1      -2.106   1.522   1.223  0.00  0.00    -0.331 OA
ENDROOT
BRANCH   4   7
ATOM      7  O   UNL     1      -1.221   4.011   0.160  0.00  0.00    -0.386 OA
ATOM      8  H   UNL     1      -1.200   4.978   0.138  0.00  0.00    +0.210 HD
ENDBRANCH   4   7
BRANCH   3   9
ATOM      9  O   UNL     1      -1.403   5.364   2.604  0.00  0.00    -0.386 OA
ATOM     10  H   UNL     1      -1.880   5.744   3.355  0.00  0.00    +0.210 HD
ENDBRANCH   3   9
BRANCH   2  11
ATOM     11  O   UNL     1      -3.496   4.005   1.335  0.00  0.00    -0.383 OA
ATOM     12  H   UNL     1      -4.415   3.729   1.216  0.00  0.00    +0.210 HD
ENDBRANCH   2  11
BRANCH   1  13
ATOM     13  O   UNL     1      -2.280   1.345   3.543  0.00  0.00    -0.460 OA
BRANCH  13  17
ATOM     14  C   UNL     1      -2.332  -2.778   3.860  0.00  0.00    +0.001 A 
ATOM     15  C   UNL     1      -2.880  -2.153   2.751  0.00  0.00    +0.004 A 
ATOM     16  C   UNL     1      -2.864  -0.777   2.643  0.00  0.00    +0.046 A 
ATOM     17  C   UNL     1      -2.297  -0.007   3.648  0.00  0.00    +0.134 A 
ATOM     18  C   UNL     1      -1.735  -0.635   4.771  0.00  0.00    +0.056 A 
ATOM     19  C   UNL     1      -1.763  -2.032   4.868  0.00  0.00    +0.015 A 
BRANCH  18  20
ATOM     20  C   UNL     1      -1.127   0.168   5.839  0.00  0.00    +0.262 C 
ATOM     21  O   UNL     1      -0.643  -0.379   6.808  0.00  0.00    -0.296 OA
ENDBRANCH  18  20
ENDBRANCH  13  17
ENDBRANCH   1  13
BRANCH   5  22
ATOM     22  C   UNL     1      -0.017   1.425   0.010  0.00  0.00    +0.190 C 
BRANCH  22  23
ATOM     23  O   UNL     1       0.002  -0.004   0.002  0.00  0.00    -0.392 OA
ATOM     24  H   UNL     1       0.442  -0.387  -0.769  0.00  0.00    +0.210 HD
ENDBRANCH  22  23
ENDBRANCH   5  22
TORSDOF 8
