REMARK  Name = ZINC61594050
REMARK  6 active torsions:
REMARK  status: ('A' for Active; 'I' for Inactive)
REMARK    1  A    between atoms: C_1  and  C_2
REMARK    2  A    between atoms: C_2  and  C_3
REMARK    3  A    between atoms: C_3  and  N_4
REMARK    4  A    between atoms: C_10  and  S_11
REMARK    5  A    between atoms: S_11  and  C_12
REMARK    6  A    between atoms: C_13  and  N_20
REMARK                            x       y       z     vdW  Elec       q    Type
REMARK                         _______ _______ _______ _____ _____    ______ ____
ROOT
ATOM      1  S   UNL     1      -1.383  -2.261   2.791  0.00  0.00    -0.045 S 
ENDROOT
BRANCH   1   2
ATOM      2  C   UNL     1      -1.354  -3.752   3.729  0.00  0.00    +0.074 A 
ATOM      3  C   UNL     1      -2.549  -4.363   4.107  0.00  0.00    +0.042 A 
ATOM      4  C   UNL     1      -2.521  -5.537   4.845  0.00  0.00    +0.027 A 
ATOM      5  C   UNL     1      -1.310  -6.100   5.205  0.00  0.00    +0.043 A 
ATOM      6  C   UNL     1      -0.122  -5.495   4.830  0.00  0.00    +0.160 A 
ATOM      7  C   UNL     1      -0.142  -4.325   4.088  0.00  0.00    +0.174 A 
ATOM      8  F   UNL     1       1.018  -3.739   3.719  0.00  0.00    -0.201 F 
ATOM      9  F   UNL     1       1.058  -6.050   5.185  0.00  0.00    -0.202 F 
BRANCH   3  10
ATOM     10  N   UNL     1      -3.776  -3.792   3.744  0.00  0.00    -0.357 N 
ATOM     11  H   UNL     1      -3.794  -2.971   3.228  0.00  0.00    +0.142 HD
ATOM     12  H   UNL     1      -4.606  -4.218   4.008  0.00  0.00    +0.142 HD
ENDBRANCH   3  10
ENDBRANCH   1   2
BRANCH   1  19
ATOM     13  N   UNL     1      -1.413  -1.998   0.005  0.00  0.00    -0.270 N 
ATOM     14  C   UNL     1      -1.407  -2.782  -1.092  0.00  0.00    +0.345 A 
ATOM     15  O   UNL     1      -1.417  -2.400  -2.249  0.00  0.00    -0.245 OA
ATOM     16  N   UNL     1      -1.388  -4.065  -0.677  0.00  0.00    -0.226 N 
ATOM     17  H   UNL     1      -1.379  -4.852  -1.244  0.00  0.00    +0.194 HD
ATOM     18  N   UNL     1      -1.382  -4.052   0.725  0.00  0.00    -0.144 NA
ATOM     19  C   UNL     1      -1.392  -2.811   1.117  0.00  0.00    +0.197 A 
BRANCH  13  20
ATOM     20  C   UNL     1      -1.433  -0.534   0.013  0.00  0.00    +0.129 C 
BRANCH  20  22
ATOM     21  C   UNL     1      -0.019   1.526   0.010  0.00  0.00    +0.005 C 
ATOM     22  C   UNL     1       0.002  -0.004   0.002  0.00  0.00    +0.018 C 
ENDBRANCH  20  22
ENDBRANCH  13  20
ENDBRANCH   1  19
TORSDOF 5
