REMARK  Name = ZINC08003132
REMARK  9 active torsions:
REMARK  status: ('A' for Active; 'I' for Inactive)
REMARK    1  A    between atoms: C_1  and  C_2
REMARK    2  A    between atoms: C_2  and  C_3
REMARK    3  A    between atoms: C_2  and  C_4
REMARK    4  A    between atoms: C_4  and  C_6
REMARK    5  A    between atoms: C_4  and  N_48
REMARK    6  A    between atoms: C_12  and  C_13
REMARK    7  A    between atoms: C_12  and  N_48
REMARK    8  A    between atoms: N_15  and  C_16
REMARK    9  A    between atoms: C_21  and  N_22
REMARK                            x       y       z     vdW  Elec       q    Type
REMARK                         _______ _______ _______ _____ _____    ______ ____
ROOT
ATOM      1  C   UNL     1       0.035   1.819  -1.057  0.00  0.00    +0.200 C 
ATOM      2  O   UNL     1      -0.794   2.531  -0.529  0.00  0.00    -0.278 OA
ATOM      3  N   UNL     1      -0.001   1.616  -2.389  0.00  0.00    -0.285 N 
ATOM      4  H   UNL     1       0.620   0.996  -2.802  0.00  0.00    +0.155 HD
ENDROOT
BRANCH   3   5
ATOM      5  C   UNL     1      -0.935   2.299  -3.176  0.00  0.00    +0.060 A 
ATOM      6  C   UNL     1      -1.443   3.519  -2.752  0.00  0.00    +0.045 A 
ATOM      7  C   UNL     1      -2.362   4.194  -3.534  0.00  0.00    +0.043 A 
ATOM      8  C   UNL     1      -2.786   3.650  -4.735  0.00  0.00    +0.022 A 
ATOM      9  C   UNL     1      -2.289   2.433  -5.161  0.00  0.00    +0.031 A 
ATOM     10  C   UNL     1      -1.363   1.752  -4.385  0.00  0.00    +0.088 A 
ATOM     11 CL   UNL     1      -2.991   5.723  -3.006  0.00  0.00    -0.083 Cl
BRANCH  10  12
ATOM     12  N   UNL     1      -0.858   0.516  -4.816  0.00  0.00    -0.218 N 
ATOM     13  C   UNL     1      -1.088  -0.081  -6.001  0.00  0.00    +0.225 A 
ATOM     14  N   UNL     1      -0.436  -1.216  -6.016  0.00  0.00    -0.222 NA
ATOM     15  C   UNL     1       0.210  -1.381  -4.863  0.00  0.00    +0.245 A 
ATOM     16  N   UNL     1      -0.017  -0.347  -4.095  0.00  0.00    -0.153 NA
ENDBRANCH  10  12
ENDBRANCH   3   5
BRANCH   1  17
ATOM     17  C   UNL     1       1.105   1.163  -0.223  0.00  0.00    +0.016 C 
BRANCH  17  18
ATOM     18  N   UNL     1       0.920   1.545   1.189  0.00  0.00    +0.389 N 
ATOM     19  H   UNL     1       0.917   2.569   1.266  0.00  0.00    -0.084 HD
ATOM     20  H   UNL     1       0.023   1.175   1.526  0.00  0.00    -0.084 HD
BRANCH  18  21
ATOM     21  C   UNL     1       2.013   0.999   2.016  0.00  0.00    -0.038 C 
BRANCH  21  22
ATOM     22  C   UNL     1       1.673  -0.408   2.433  0.00  0.00    -0.061 A 
ATOM     23  C   UNL     1       0.379  -0.727   2.801  0.00  0.00    +0.002 A 
ATOM     24  C   UNL     1       0.067  -2.019   3.179  0.00  0.00    +0.000 A 
ATOM     25  C   UNL     1       1.050  -2.991   3.199  0.00  0.00    +0.000 A 
ATOM     26  C   UNL     1       2.345  -2.671   2.836  0.00  0.00    +0.000 A 
ATOM     27  C   UNL     1       2.657  -1.380   2.453  0.00  0.00    +0.002 A 
ENDBRANCH  21  22
BRANCH  21  29
ATOM     28  C   UNL     1       2.639   3.273   2.841  0.00  0.00    +0.006 C 
ATOM     29  C   UNL     1       2.186   1.872   3.260  0.00  0.00    -0.027 C 
ATOM     30  C   UNL     1       0.854   1.969   4.005  0.00  0.00    +0.006 C 
ENDBRANCH  21  29
ENDBRANCH  18  21
ENDBRANCH  17  18
ENDBRANCH   1  17
TORSDOF 7
