REMARK  Name = ZINC16385779
REMARK  6 active torsions:
REMARK  status: ('A' for Active; 'I' for Inactive)
REMARK    1  A    between atoms: C_3  and  C_11
REMARK    2  A    between atoms: C_6  and  N_7
REMARK    3  A    between atoms: N_13  and  C_14
REMARK    4  A    between atoms: C_14  and  N_16
REMARK    5  A    between atoms: N_16  and  C_17
REMARK    6  A    between atoms: C_22  and  C_23
REMARK                            x       y       z     vdW  Elec       q    Type
REMARK                         _______ _______ _______ _____ _____    ______ ____
ROOT
ATOM      1  C   UNL     1       7.189   3.771   0.518  0.00  0.00    +0.251 C 
ATOM      2  O   UNL     1       7.165   4.971   0.710  0.00  0.00    -0.270 OA
ATOM      3  N   UNL     1       6.037   3.096   0.331  0.00  0.00    -0.264 N 
ATOM      4  H   UNL     1       6.056   2.139   0.177  0.00  0.00    +0.157 HD
ENDROOT
BRANCH   1   7
ATOM      5  C   UNL     1       9.718   1.010   0.245  0.00  0.00    +0.033 A 
ATOM      6  C   UNL     1       8.509   1.674   0.270  0.00  0.00    +0.017 A 
ATOM      7  C   UNL     1       8.479   3.053   0.490  0.00  0.00    +0.055 A 
ATOM      8  C   UNL     1       9.675   3.751   0.678  0.00  0.00    +0.055 A 
ATOM      9  C   UNL     1      10.877   3.071   0.657  0.00  0.00    +0.053 A 
ATOM     10  C   UNL     1      10.899   1.705   0.438  0.00  0.00    +0.128 A 
ATOM     11 CL   UNL     1       9.650   5.465   0.946  0.00  0.00    -0.083 Cl
BRANCH  10  12
ATOM     12  N   UNL     1      12.191   0.984   0.409  0.00  0.00    +0.056 N 
ATOM     13  O   UNL     1      12.213  -0.218   0.216  0.00  0.00    -0.126 OA
ATOM     14  O   UNL     1      13.232   1.593   0.579  0.00  0.00    -0.126 OA
ENDBRANCH  10  12
ENDBRANCH   1   7
BRANCH   3  15
ATOM     15  C   UNL     1       4.860   3.752   0.356  0.00  0.00    +0.141 C 
ATOM     16  S   UNL     1       4.827   5.442   0.627  0.00  0.00    -0.018 S 
BRANCH  15  17
ATOM     17  N   UNL     1       3.708   3.077   0.169  0.00  0.00    -0.296 N 
ATOM     18  H   UNL     1       3.720   2.110   0.091  0.00  0.00    +0.154 HD
BRANCH  17  19
ATOM     19  C   UNL     1       2.503   3.767   0.086  0.00  0.00    +0.047 A 
ATOM     20  C   UNL     1       2.409   4.918  -0.686  0.00  0.00    +0.025 A 
ATOM     21  C   UNL     1       1.212   5.601  -0.766  0.00  0.00    +0.017 A 
ATOM     22  C   UNL     1       0.097   5.146  -0.079  0.00  0.00    +0.019 A 
ATOM     23  C   UNL     1       0.170   4.003   0.688  0.00  0.00    +0.032 A 
ATOM     24  C   UNL     1       1.376   3.304   0.783  0.00  0.00    +0.085 A 
ATOM     25 BR   UNL     1      -1.534   6.096  -0.201  0.00  0.00    -0.050 Br
BRANCH  24  26
ATOM     26  C   UNL     1       1.463   2.084   1.606  0.00  0.00    +0.388 C 
ATOM     27  O   UNL     1       2.535   1.535   1.767  0.00  0.00    -0.241 OA
ATOM     28  O   UNL     1       0.353   1.578   2.179  0.00  0.00    -0.241 OA
ENDBRANCH  24  26
ENDBRANCH  17  19
ENDBRANCH  15  17
ENDBRANCH   3  15
TORSDOF 6
