REMARK  Name = ZINC61832036
REMARK  6 active torsions:
REMARK  status: ('A' for Active; 'I' for Inactive)
REMARK    1  A    between atoms: C_1  and  C_2
REMARK    2  A    between atoms: C_9  and  O_18
REMARK    3  A    between atoms: C_10  and  O_16
REMARK    4  A    between atoms: C_12  and  O_15
REMARK    5  A    between atoms: O_16  and  C_17
REMARK    6  A    between atoms: O_18  and  C_19
REMARK                            x       y       z     vdW  Elec       q    Type
REMARK                         _______ _______ _______ _____ _____    ______ ____
ROOT
ATOM      1  C   UNL     1      -0.019   1.526   0.010  0.00  0.00    +0.007 C 
ATOM      2  C   UNL     1       0.002  -0.004   0.002  0.00  0.00    -0.011 C 
ATOM      3  C   UNL     1       0.663  -0.469  -1.280  0.00  0.00    +0.008 C 
ATOM      4  C   UNL     1       0.508  -1.981  -1.459  0.00  0.00    +0.039 C 
ATOM      5  C   UNL     1       1.631  -2.670  -0.712  0.00  0.00    -0.003 A 
ATOM      6  C   UNL     1       2.643  -3.292  -1.426  0.00  0.00    +0.131 A 
ATOM      7  C   UNL     1       3.673  -3.924  -0.749  0.00  0.00    +0.088 A 
ATOM      8  C   UNL     1       3.689  -3.932   0.637  0.00  0.00    +0.165 A 
ATOM      9  C   UNL     1       2.669  -3.305   1.347  0.00  0.00    +0.168 A 
ATOM     10  C   UNL     1       1.643  -2.677   0.658  0.00  0.00    +0.032 A 
ATOM     11  C   UNL     1       0.533  -1.997   1.432  0.00  0.00    +0.149 C 
ATOM     12  C   UNL     1       0.688  -0.483   1.267  0.00  0.00    +0.039 C 
ATOM     13  F   UNL     1       2.625  -3.284  -2.777  0.00  0.00    -0.205 F 
ENDROOT
BRANCH  11  14
ATOM     14  O   UNL     1      -0.735  -2.415   0.921  0.00  0.00    -0.387 OA
ATOM     15  H   UNL     1      -0.888  -3.368   0.982  0.00  0.00    +0.210 HD
ENDBRANCH  11  14
BRANCH   9  16
ATOM     16  O   UNL     1       2.679  -3.309   2.708  0.00  0.00    -0.491 OA
ATOM     17  C   UNL     1       3.350  -2.226   3.355  0.00  0.00    +0.277 C 
ENDBRANCH   9  16
BRANCH   8  18
ATOM     18  O   UNL     1       4.701  -4.551   1.302  0.00  0.00    -0.491 OA
ATOM     19  C   UNL     1       5.714  -5.173   0.509  0.00  0.00    +0.277 C 
ENDBRANCH   8  18
TORSDOF 3
