REMARK  Name = ZINC02240323
REMARK  2 active torsions:
REMARK  status: ('A' for Active; 'I' for Inactive)
REMARK    1  A    between atoms: C_1  and  C_2
REMARK    2  A    between atoms: C_8  and  C_31
REMARK                            x       y       z     vdW  Elec       q    Type
REMARK                         _______ _______ _______ _____ _____    ______ ____
ROOT
ATOM      1  C   UNL     1      13.018   0.371   2.231  0.00  0.00    +0.044 C 
ATOM      2  C   UNL     1      11.638   0.940   2.021  0.00  0.00    -0.050 A 
ATOM      3  C   UNL     1      10.524   0.206   2.423  0.00  0.00    +0.005 A 
ATOM      4  C   UNL     1       9.263   0.690   2.249  0.00  0.00    +0.029 A 
ATOM      5  C   UNL     1       9.079   1.948   1.656  0.00  0.00    +0.077 A 
ATOM      6  C   UNL     1      10.214   2.695   1.248  0.00  0.00    +0.022 A 
ATOM      7  C   UNL     1      11.498   2.165   1.442  0.00  0.00    +0.015 A 
ATOM      8  C   UNL     1      10.008   3.954   0.655  0.00  0.00    +0.051 A 
ATOM      9  N   UNL     1       8.772   4.380   0.501  0.00  0.00    -0.217 NA
ATOM     10  C   UNL     1       7.730   3.655   0.901  0.00  0.00    +0.231 A 
ATOM     11  N   UNL     1       7.862   2.469   1.462  0.00  0.00    -0.212 NA
ATOM     12  N   UNL     1       6.453   4.164   0.715  0.00  0.00    -0.298 N 
ATOM     13  C   UNL     1       5.361   3.485   1.210  0.00  0.00    +0.174 C 
ATOM     14  N   UNL     1       4.086   3.878   0.856  0.00  0.00    -0.241 N 
ATOM     15  C   UNL     1       3.018   3.213   1.340  0.00  0.00    +0.317 C 
ATOM     16  O   UNL     1       3.171   2.337   2.169  0.00  0.00    -0.251 OA
ATOM     17  N   UNL     1       1.780   3.520   0.905  0.00  0.00    -0.222 N 
ATOM     18  C   UNL     1       0.683   2.814   1.417  0.00  0.00    +0.057 A 
ATOM     19  C   UNL     1       0.787   1.457   1.682  0.00  0.00    +0.025 A 
ATOM     20  C   UNL     1      -0.300   0.766   2.185  0.00  0.00    +0.002 A 
ATOM     21  C   UNL     1      -1.496   1.417   2.421  0.00  0.00    +0.001 A 
ATOM     22  C   UNL     1      -1.610   2.773   2.167  0.00  0.00    +0.017 A 
ATOM     23  C   UNL     1      -0.526   3.469   1.664  0.00  0.00    +0.035 A 
ATOM     24  S   UNL     1      -0.641   5.198   1.323  0.00  0.00    -0.086 S 
ATOM     25  C   UNL     1       0.532   5.405   0.020  0.00  0.00    +0.035 A 
ATOM     26  C   UNL     1       1.624   4.536  -0.046  0.00  0.00    +0.057 A 
ATOM     27  C   UNL     1       2.552   4.689  -1.065  0.00  0.00    +0.025 A 
ATOM     28  C   UNL     1       2.392   5.694  -2.002  0.00  0.00    +0.002 A 
ATOM     29  C   UNL     1       1.310   6.551  -1.931  0.00  0.00    +0.001 A 
ATOM     30  C   UNL     1       0.377   6.408  -0.919  0.00  0.00    +0.017 A 
ATOM     31  C   UNL     1      11.175   4.793   0.201  0.00  0.00    +0.066 C 
ATOM     32  H   UNL     1       6.329   4.999   0.236  0.00  0.00    +0.171 HD
ATOM     33  H   UNL     1       6.379   2.187   2.402  0.00  0.00    +0.158 HD
ATOM     34  H   UNL     1       3.958   4.632   0.260  0.00  0.00    +0.159 HD
ATOM     35  N   UNL     1       5.469   2.444   2.019  0.00  0.00    -0.373 N 
ATOM     36  H   UNL     1       4.636   1.895   2.263  0.00  0.00    +0.158 HD
ENDROOT
TORSDOF 0
