REMARK  Name = ZINC36378850
REMARK  7 active torsions:
REMARK  status: ('A' for Active; 'I' for Inactive)
REMARK    1  A    between atoms: C_1  and  C_2
REMARK    2  A    between atoms: C_11  and  C_31
REMARK    3  A    between atoms: C_16  and  C_30
REMARK    4  A    between atoms: C_20  and  O_29
REMARK    5  A    between atoms: C_23  and  O_28
REMARK    6  A    between atoms: C_25  and  C_26
REMARK    7  A    between atoms: C_25  and  C_27
REMARK                            x       y       z     vdW  Elec       q    Type
REMARK                         _______ _______ _______ _____ _____    ______ ____
ROOT
ATOM      1  C   UNL     1       0.079   1.505  -0.034  0.00  0.00    +0.052 C 
ATOM      2  C   UNL     1       0.075  -0.024   0.002  0.00  0.00    +0.181 C 
ATOM      3  C   UNL     1      -1.368  -0.540   0.035  0.00  0.00    +0.123 C 
ATOM      4  C   UNL     1      -1.341  -2.024   0.297  0.00  0.00    +0.169 C 
ATOM      5  O   UNL     1      -2.274  -2.722  -0.055  0.00  0.00    -0.292 OA
ATOM      6  C   UNL     1      -0.242  -2.603   0.946  0.00  0.00    +0.075 C 
ATOM      7  C   UNL     1       0.791  -1.822   1.362  0.00  0.00    +0.289 C 
ATOM      8  O   UNL     1       0.741  -0.481   1.183  0.00  0.00    -0.461 OA
ATOM      9  O   UNL     1       1.895  -2.352   1.917  0.00  0.00    -0.457 OA
ATOM     10  C   UNL     1       1.809  -3.650   2.496  0.00  0.00    +0.115 C 
ATOM     11  C   UNL     1       3.210  -4.165   2.833  0.00  0.00    +0.048 C 
ATOM     12  C   UNL     1       4.021  -4.310   1.541  0.00  0.00    +0.008 C 
ATOM     13  C   UNL     1       3.381  -5.358   0.635  0.00  0.00    +0.006 C 
ATOM     14  C   UNL     1       1.933  -5.014   0.317  0.00  0.00    +0.004 C 
ATOM     15  C   UNL     1       1.124  -4.623   1.550  0.00  0.00    +0.046 C 
ATOM     16  C   UNL     1      -0.255  -4.093   1.167  0.00  0.00    +0.053 C 
ATOM     17  C   UNL     1       1.835  -3.955  -0.772  0.00  0.00    +0.124 C 
ATOM     18  C   UNL     1       2.532  -4.452  -2.042  0.00  0.00    +0.063 C 
ATOM     19  C   UNL     1       4.006  -4.695  -1.758  0.00  0.00    +0.123 C 
ATOM     20  C   UNL     1       4.243  -5.636  -0.585  0.00  0.00    -0.005 C 
ATOM     21  C   UNL     1       4.069  -7.089  -1.062  0.00  0.00    +0.014 C 
ATOM     22  C   UNL     1       5.741  -5.510  -0.216  0.00  0.00    +0.014 C 
ATOM     23  C   UNL     1       1.233  -6.298  -0.208  0.00  0.00    +0.014 C 
ATOM     24  C   UNL     1       1.006  -3.554   3.809  0.00  0.00    +0.056 C 
ENDROOT
BRANCH  19  25
ATOM     25  O   UNL     1       4.679  -3.454  -1.530  0.00  0.00    -0.391 OA
ATOM     26  H   UNL     1       4.638  -2.841  -2.278  0.00  0.00    +0.210 HD
ENDBRANCH  19  25
BRANCH  17  27
ATOM     27  O   UNL     1       2.461  -2.736  -0.373  0.00  0.00    -0.391 OA
ATOM     28  H   UNL     1       2.420  -2.037  -1.040  0.00  0.00    +0.210 HD
ENDBRANCH  17  27
TORSDOF 2
