REMARK  Name = ZINC39669694
REMARK  8 active torsions:
REMARK  status: ('A' for Active; 'I' for Inactive)
REMARK    1  A    between atoms: C_1  and  C_2
REMARK    2  A    between atoms: C_6  and  C_9
REMARK    3  A    between atoms: C_13  and  C_22
REMARK    4  A    between atoms: N_24  and  C_25
REMARK    5  A    between atoms: C_25  and  C_26
REMARK    6  A    between atoms: C_26  and  C_27
REMARK    7  A    between atoms: C_26  and  C_28
REMARK    8  A    between atoms: C_26  and  N_29
REMARK                            x       y       z     vdW  Elec       q    Type
REMARK                         _______ _______ _______ _____ _____    ______ ____
ROOT
ATOM      1  C   UNL     1      -0.021  -2.569   2.817  0.00  0.00    +0.251 C 
ATOM      2  O   UNL     1       1.011  -2.846   3.397  0.00  0.00    -0.270 OA
ATOM      3  N   UNL     1      -1.206  -2.962   3.326  0.00  0.00    -0.296 N 
ATOM      4  C   UNL     1      -2.557  -2.727   2.765  0.00  0.00    +0.121 C 
ATOM      5  C   UNL     1      -3.321  -4.045   3.025  0.00  0.00    +0.100 C 
ATOM      6  C   UNL     1      -2.592  -4.694   4.213  0.00  0.00    -0.004 C 
ATOM      7  C   UNL     1      -1.451  -3.730   4.570  0.00  0.00    +0.115 C 
ATOM      8  C   UNL     1      -3.543  -4.849   5.396  0.00  0.00    -0.010 C 
ATOM      9  C   UNL     1      -2.811  -5.549   6.545  0.00  0.00    -0.082 C 
ATOM     10  N   UNL     1      -2.337  -6.864   6.097  0.00  0.00    +0.379 N 
ATOM     11  C   UNL     1      -1.352  -6.701   5.021  0.00  0.00    -0.082 C 
ATOM     12  C   UNL     1      -2.022  -6.050   3.807  0.00  0.00    -0.010 C 
ATOM     13  H   UNL     1      -1.909  -7.348   6.872  0.00  0.00    -0.086 HD
ATOM     14  H   UNL     1      -3.119  -7.404   5.757  0.00  0.00    -0.086 HD
ENDROOT
BRANCH   1  20
ATOM     15  C   UNL     1      -0.046   1.808   0.413  0.00  0.00    +0.047 C 
ATOM     16  C   UNL     1       0.011   0.302   0.392  0.00  0.00    -0.014 A 
ATOM     17  C   UNL     1       0.106  -0.368  -0.814  0.00  0.00    +0.007 A 
ATOM     18  C   UNL     1       0.159  -1.750  -0.844  0.00  0.00    +0.021 A 
ATOM     19  C   UNL     1       0.119  -2.472   0.332  0.00  0.00    +0.056 A 
ATOM     20  C   UNL     1       0.024  -1.804   1.556  0.00  0.00    +0.091 A 
ATOM     21  C   UNL     1      -0.025  -0.406   1.579  0.00  0.00    +0.140 A 
ATOM     22  F   UNL     1      -0.112   0.249   2.757  0.00  0.00    -0.204 F 
ATOM     23 CL   UNL     1       0.185  -4.207   0.290  0.00  0.00    -0.083 Cl
ENDBRANCH   1  20
BRANCH   5  24
ATOM     24  C   UNL     1      -4.757  -3.758   3.381  0.00  0.00    +0.218 C 
ATOM     25  O   UNL     1      -5.044  -2.734   3.964  0.00  0.00    -0.275 OA
ATOM     26  N   UNL     1      -5.722  -4.639   3.052  0.00  0.00    -0.313 N 
ATOM     27  H   UNL     1      -5.493  -5.458   2.586  0.00  0.00    +0.149 HD
BRANCH  26  28
ATOM     28  C   UNL     1      -7.118  -4.360   3.398  0.00  0.00    +0.126 C 
BRANCH  28  29
ATOM     29  C   UNL     1      -7.986  -5.564   3.027  0.00  0.00    +0.032 C 
ATOM     30  C   UNL     1      -7.594  -6.761   3.894  0.00  0.00    +0.029 C 
ATOM     31  C   UNL     1      -9.459  -5.223   3.264  0.00  0.00    +0.029 C 
BRANCH  29  32
ATOM     32  N   UNL     1      -7.782  -5.897   1.611  0.00  0.00    -0.291 NA
ATOM     33  C   UNL     1      -8.096  -4.748   0.749  0.00  0.00    +0.113 C 
ATOM     34  C   UNL     1      -7.813  -5.119  -0.709  0.00  0.00    +0.175 C 
ATOM     35  O   UNL     1      -8.574  -6.279  -1.056  0.00  0.00    -0.377 OA
ATOM     36  C   UNL     1      -8.293  -7.418  -0.237  0.00  0.00    +0.175 C 
ATOM     37  C   UNL     1      -8.580  -7.070   1.226  0.00  0.00    +0.113 C 
ENDBRANCH  29  32
ENDBRANCH  28  29
ENDBRANCH  26  28
ENDBRANCH   5  24
TORSDOF 5
