REMARK  Name = ZINC67355309
REMARK  4 active torsions:
REMARK  status: ('A' for Active; 'I' for Inactive)
REMARK    1  A    between atoms: C_1  and  N_2
REMARK    2  A    between atoms: N_2  and  C_3
REMARK    3  A    between atoms: C_13  and  C_15
REMARK    4  A    between atoms: C_20  and  C_23
REMARK                            x       y       z     vdW  Elec       q    Type
REMARK                         _______ _______ _______ _____ _____    ______ ____
ROOT
ATOM      1  C   UNL     1       0.179   1.450  -0.000  0.00  0.00    +0.139 C 
ATOM      2  N   UNL     1       0.097  -0.013  -0.005  0.00  0.00    -0.266 N 
ATOM      3  C   UNL     1      -0.102  -0.673  -1.163  0.00  0.00    +0.306 C 
ATOM      4  O   UNL     1      -0.262  -1.876  -1.156  0.00  0.00    -0.265 OA
ENDROOT
BRANCH   2   5
ATOM      5  C   UNL     1       0.223  -0.721   1.188  0.00  0.00    +0.044 A 
ATOM      6  C   UNL     1      -0.892  -1.014   1.945  0.00  0.00    +0.024 A 
ATOM      7  C   UNL     1      -0.776  -1.721   3.138  0.00  0.00    +0.002 A 
ATOM      8  C   UNL     1       0.437  -2.143   3.590  0.00  0.00    +0.008 A 
ATOM      9  C   UNL     1       1.598  -1.866   2.849  0.00  0.00    -0.016 A 
ATOM     10  C   UNL     1       1.493  -1.151   1.630  0.00  0.00    +0.004 A 
ATOM     11  C   UNL     1       2.653  -0.879   0.889  0.00  0.00    +0.010 A 
ATOM     12  C   UNL     1       3.862  -1.309   1.346  0.00  0.00    +0.001 A 
ATOM     13  C   UNL     1       3.965  -2.017   2.541  0.00  0.00    +0.001 A 
ATOM     14  C   UNL     1       2.863  -2.289   3.292  0.00  0.00    +0.008 A 
ENDBRANCH   2   5
BRANCH   3  15
ATOM     15  C   UNL     1      -0.124   0.076  -2.455  0.00  0.00    +0.302 C 
ATOM     16  O   UNL     1       0.914   0.316  -3.036  0.00  0.00    -0.265 OA
ATOM     17  N   UNL     1      -1.298   0.486  -2.975  0.00  0.00    -0.294 N 
ATOM     18  C   UNL     1      -2.569   0.116  -2.339  0.00  0.00    +0.109 C 
ATOM     19  C   UNL     1      -3.473  -0.540  -3.388  0.00  0.00    +0.032 C 
ATOM     20  C   UNL     1      -3.620   0.398  -4.588  0.00  0.00    +0.078 C 
ATOM     21  C   UNL     1      -2.247   0.643  -5.218  0.00  0.00    +0.032 C 
ATOM     22  C   UNL     1      -1.330   1.318  -4.187  0.00  0.00    +0.109 C 
BRANCH  20  23
ATOM     23  C   UNL     1      -4.536  -0.229  -5.607  0.00  0.00    +0.214 C 
ATOM     24  O   UNL     1      -5.022  -1.320  -5.395  0.00  0.00    -0.276 OA
ATOM     25  N   UNL     1      -4.814   0.421  -6.754  0.00  0.00    -0.329 N 
ATOM     26  H   UNL     1      -4.425   1.293  -6.924  0.00  0.00    +0.145 HD
ATOM     27  H   UNL     1      -5.403   0.017  -7.410  0.00  0.00    +0.145 HD
ENDBRANCH  20  23
ENDBRANCH   3  15
TORSDOF 3
