REMARK  Name = ZINC36389874
REMARK  5 active torsions:
REMARK  status: ('A' for Active; 'I' for Inactive)
REMARK    1  A    between atoms: C_1  and  C_2
REMARK    2  A    between atoms: C_5  and  S_8
REMARK    3  A    between atoms: S_8  and  N_11
REMARK    4  A    between atoms: N_14  and  C_17
REMARK    5  A    between atoms: C_17  and  C_18
REMARK                            x       y       z     vdW  Elec       q    Type
REMARK                         _______ _______ _______ _____ _____    ______ ____
ROOT
ATOM      1  N   UNL     1       1.651  -4.999  -0.034  0.00  0.00    -0.174 NA
ATOM      2  C   UNL     1       2.370  -5.200  -1.302  0.00  0.00    +0.125 C 
ATOM      3  C   UNL     1       3.680  -4.408  -1.249  0.00  0.00    +0.102 C 
ATOM      4  N   UNL     1       4.429  -4.785  -0.044  0.00  0.00    -0.291 NA
ATOM      5  C   UNL     1       3.690  -4.432   1.176  0.00  0.00    +0.102 C 
ATOM      6  C   UNL     1       2.382  -5.220   1.223  0.00  0.00    +0.125 C 
ENDROOT
BRANCH   1   7
ATOM      7  S   UNL     1       0.063  -4.530  -0.023  0.00  0.00    +0.061 S 
ATOM      8  O   UNL     1      -0.476  -4.950   1.223  0.00  0.00    -0.153 OA
ATOM      9  O   UNL     1      -0.490  -4.937  -1.267  0.00  0.00    -0.153 OA
BRANCH   7  14
ATOM     10  C   UNL     1      -0.018   1.503   0.010  0.00  0.00    +0.044 C 
ATOM     11  C   UNL     1       0.002  -0.004   0.002  0.00  0.00    -0.050 A 
ATOM     12  C   UNL     1       0.006  -0.689  -1.199  0.00  0.00    +0.005 A 
ATOM     13  C   UNL     1       0.025  -2.071  -1.206  0.00  0.00    +0.029 A 
ATOM     14  C   UNL     1       0.040  -2.768  -0.013  0.00  0.00    +0.105 A 
ATOM     15  C   UNL     1       0.037  -2.084   1.188  0.00  0.00    +0.029 A 
ATOM     16  C   UNL     1       0.023  -0.702   1.195  0.00  0.00    +0.005 A 
ENDBRANCH   7  14
ENDBRANCH   1   7
BRANCH   4  17
ATOM     17  C   UNL     1       5.766  -4.177  -0.043  0.00  0.00    +0.180 C 
BRANCH  17  18
ATOM     18  C   UNL     1       6.589  -4.774   1.069  0.00  0.00    +0.225 C 
ATOM     19  O   UNL     1       6.109  -5.623   1.791  0.00  0.00    -0.275 OA
ATOM     20  N   UNL     1       7.859  -4.365   1.263  0.00  0.00    -0.328 N 
ATOM     21  H   UNL     1       8.243  -3.687   0.686  0.00  0.00    +0.145 HD
ATOM     22  H   UNL     1       8.388  -4.750   1.979  0.00  0.00    +0.145 HD
ENDBRANCH  17  18
ENDBRANCH   4  17
TORSDOF 4
