REMARK  Name = ZINC35773462
REMARK  5 active torsions:
REMARK  status: ('A' for Active; 'I' for Inactive)
REMARK    1  A    between atoms: C_1  and  C_2
REMARK    2  A    between atoms: C_6  and  N_19
REMARK    3  A    between atoms: C_7  and  S_8
REMARK    4  A    between atoms: S_8  and  N_11
REMARK    5  A    between atoms: C_16  and  C_18
REMARK                            x       y       z     vdW  Elec       q    Type
REMARK                         _______ _______ _______ _____ _____    ______ ____
ROOT
ATOM      1  C   UNL     1       0.852   1.659   0.693  0.00  0.00    +0.046 C 
ATOM      2  C   UNL     1       0.695   0.171   0.516  0.00  0.00    -0.022 A 
ATOM      3  C   UNL     1       0.735  -0.382  -0.752  0.00  0.00    +0.005 A 
ATOM      4  C   UNL     1       0.592  -1.747  -0.919  0.00  0.00    +0.002 A 
ATOM      5  C   UNL     1       0.409  -2.563   0.180  0.00  0.00    +0.025 A 
ATOM      6  C   UNL     1       0.369  -2.012   1.454  0.00  0.00    +0.051 A 
ATOM      7  C   UNL     1       0.519  -0.640   1.619  0.00  0.00    +0.129 A 
ENDROOT
BRANCH   7   8
ATOM      8  S   UNL     1       0.476   0.064   3.234  0.00  0.00    +0.063 S 
ATOM      9  O   UNL     1       0.907  -0.950   4.131  0.00  0.00    -0.153 OA
ATOM     10  O   UNL     1       1.121   1.327   3.143  0.00  0.00    -0.153 OA
BRANCH   8  11
ATOM     11  N   UNL     1      -1.112   0.369   3.593  0.00  0.00    -0.169 NA
ATOM     12  C   UNL     1      -2.087  -0.727   3.707  0.00  0.00    +0.138 C 
ATOM     13  C   UNL     1      -2.843  -0.566   5.031  0.00  0.00    +0.177 C 
ATOM     14  O   UNL     1      -3.367   0.762   5.115  0.00  0.00    -0.377 OA
ATOM     15  C   UNL     1      -2.369   1.785   5.126  0.00  0.00    +0.180 C 
ATOM     16  C   UNL     1      -1.588   1.744   3.813  0.00  0.00    +0.102 C 
ATOM     17  C   UNL     1      -0.393   2.696   3.896  0.00  0.00    +0.028 C 
ENDBRANCH   8  11
ENDBRANCH   7   8
BRANCH   6  18
ATOM     18  N   UNL     1       0.184  -2.834   2.568  0.00  0.00    -0.356 N 
ATOM     19  H   UNL     1       0.213  -3.799   2.469  0.00  0.00    +0.142 HD
ATOM     20  H   UNL     1       0.027  -2.441   3.441  0.00  0.00    +0.142 HD
ENDBRANCH   6  18
TORSDOF 3
