REMARK  Name = ZINC61322715
REMARK  6 active torsions:
REMARK  status: ('A' for Active; 'I' for Inactive)
REMARK    1  A    between atoms: C_1  and  C_2
REMARK    2  A    between atoms: C_2  and  C_3
REMARK    3  A    between atoms: C_7  and  N_20
REMARK    4  A    between atoms: N_11  and  C_12
REMARK    5  A    between atoms: C_12  and  C_13
REMARK    6  A    between atoms: C_16  and  C_19
REMARK                            x       y       z     vdW  Elec       q    Type
REMARK                         _______ _______ _______ _____ _____    ______ ____
ROOT
ATOM      1  C   UNL     1       0.707  -0.490  -1.238  0.00  0.00    +0.111 A 
ATOM      2  N   UNL     1       0.129  -0.735  -2.377  0.00  0.00    -0.232 NA
ATOM      3  C   UNL     1       1.053  -1.155  -3.279  0.00  0.00    +0.091 A 
ATOM      4  C   UNL     1       0.982  -1.543  -4.619  0.00  0.00    +0.052 A 
ATOM      5  C   UNL     1       2.131  -1.930  -5.282  0.00  0.00    +0.027 A 
ATOM      6  C   UNL     1       3.358  -1.935  -4.621  0.00  0.00    +0.025 A 
ATOM      7  C   UNL     1       3.439  -1.554  -3.300  0.00  0.00    +0.030 A 
ATOM      8  C   UNL     1       2.294  -1.163  -2.620  0.00  0.00    +0.069 A 
ATOM      9  N   UNL     1       2.043  -0.731  -1.331  0.00  0.00    -0.322 N 
ENDROOT
BRANCH   5  10
ATOM     10  N   UNL     1       2.063  -2.319  -6.625  0.00  0.00    -0.358 N 
ATOM     11  H   UNL     1       1.210  -2.317  -7.087  0.00  0.00    +0.142 HD
ATOM     12  H   UNL     1       2.868  -2.591  -7.093  0.00  0.00    +0.142 HD
ENDBRANCH   5  10
BRANCH   1  14
ATOM     13  C   UNL     1      -0.019   1.526   0.010  0.00  0.00    +0.012 C 
ATOM     14  C   UNL     1       0.002  -0.004   0.002  0.00  0.00    +0.071 C 
ENDBRANCH   1  14
BRANCH   9  15
ATOM     15  C   UNL     1       3.031  -0.567  -0.262  0.00  0.00    +0.180 C 
BRANCH  15  16
ATOM     16  C   UNL     1       3.156  -1.857   0.509  0.00  0.00    +0.079 A 
ATOM     17  C   UNL     1       4.395  -2.452   0.665  0.00  0.00    +0.136 A 
ATOM     18  N   UNL     1       4.504  -3.582   1.341  0.00  0.00    -0.257 NA
ATOM     19  C   UNL     1       3.430  -4.143   1.868  0.00  0.00    +0.056 A 
ATOM     20  C   UNL     1       2.191  -3.548   1.712  0.00  0.00    +0.134 A 
ATOM     21  N   UNL     1       2.083  -2.415   1.040  0.00  0.00    -0.255 NA
ATOM     22  C   UNL     1       3.554  -5.432   2.639  0.00  0.00    +0.067 C 
ENDBRANCH  15  16
ENDBRANCH   9  15
TORSDOF 4
