REMARK  Name = ZINC33512557
REMARK  5 active torsions:
REMARK  status: ('A' for Active; 'I' for Inactive)
REMARK    1  A    between atoms: N_5  and  C_9
REMARK    2  A    between atoms: C_7  and  N_8
REMARK    3  A    between atoms: C_9  and  C_10
REMARK    4  A    between atoms: N_12  and  C_13
REMARK    5  A    between atoms: C_14  and  C_21
REMARK                            x       y       z     vdW  Elec       q    Type
REMARK                         _______ _______ _______ _____ _____    ______ ____
ROOT
ATOM      1  C   UNL     1       4.090  -0.931  -1.463  0.00  0.00    +0.237 C 
ATOM      2  O   UNL     1       3.394  -0.541  -2.376  0.00  0.00    -0.273 OA
ATOM      3  N   UNL     1       5.245  -1.575  -1.724  0.00  0.00    -0.277 N 
ATOM      4  H   UNL     1       5.877  -1.928  -0.895  0.00  0.00    +0.155 HD
ENDROOT
BRANCH   3   5
ATOM      5  C   UNL     1       5.637  -1.794  -3.037  0.00  0.00    +0.090 A 
ATOM      6  C   UNL     1       6.777  -2.424  -3.501  0.00  0.00    +0.084 A 
ATOM      7  C   UNL     1       6.954  -2.528  -4.948  0.00  0.00    -0.018 A 
ATOM      8  C   UNL     1       5.970  -1.979  -5.684  0.00  0.00    -0.004 A 
ATOM      9  S   UNL     1       4.820  -1.337  -4.493  0.00  0.00    -0.077 S 
ATOM     10  C   UNL     1       6.222  -2.124  -7.161  0.00  0.00    +0.043 C 
ATOM     11  C   UNL     1       7.299  -3.227  -7.265  0.00  0.00    +0.010 C 
ATOM     12  C   UNL     1       8.001  -3.111  -5.898  0.00  0.00    +0.037 C 
BRANCH   6  13
ATOM     13  C   UNL     1       7.749  -2.958  -2.595  0.00  0.00    +0.102 C 
ATOM     14  N   UNL     1       8.520  -3.383  -1.877  0.00  0.00    -0.191 NA
ENDBRANCH   6  13
ENDBRANCH   3   5
BRANCH   1  15
ATOM     15  C   UNL     1       3.666  -0.693  -0.037  0.00  0.00    +0.220 C 
BRANCH  15  20
ATOM     16  C   UNL     1      -0.016   1.359   0.009  0.00  0.00    +0.029 A 
ATOM     17  C   UNL     1       0.002  -0.004   0.002  0.00  0.00    +0.072 A 
ATOM     18  C   UNL     1       1.235  -0.677  -0.013  0.00  0.00    +0.252 A 
ATOM     19  O   UNL     1       1.262  -1.898  -0.021  0.00  0.00    -0.268 OA
ATOM     20  N   UNL     1       2.386   0.021  -0.021  0.00  0.00    -0.305 N 
ATOM     21  C   UNL     1       2.376   1.381  -0.014  0.00  0.00    +0.112 A 
ATOM     22  C   UNL     1       1.201   2.063   0.002  0.00  0.00    +0.041 A 
BRANCH  22  23
ATOM     23  N   UNL     1       1.202   3.466   0.009  0.00  0.00    -0.357 N 
ATOM     24  H   UNL     1       2.155   4.016   0.003  0.00  0.00    +0.142 HD
ATOM     25  H   UNL     1       0.250   4.017   0.020  0.00  0.00    +0.142 HD
ENDBRANCH  22  23
ENDBRANCH  15  20
ENDBRANCH   1  15
TORSDOF 5
