REMARK  Name = ZINC22008661
REMARK  4 active torsions:
REMARK  status: ('A' for Active; 'I' for Inactive)
REMARK    1  A    between atoms: C_4  and  O_8
REMARK    2  A    between atoms: O_8  and  C_9
REMARK    3  A    between atoms: C_11  and  N_18
REMARK    4  A    between atoms: C_14  and  N_16
REMARK                            x       y       z     vdW  Elec       q    Type
REMARK                         _______ _______ _______ _____ _____    ______ ____
ROOT
ATOM      1  C   UNL     1      -0.264   1.817  -3.457  0.00  0.00    +0.223 C 
ATOM      2  N   UNL     1      -0.199   1.077  -2.380  0.00  0.00    -0.208 NA
ATOM      3  C   UNL     1      -0.795   1.527  -1.120  0.00  0.00    +0.305 C 
ATOM      4  N   UNL     1      -0.794   2.995  -1.080  0.00  0.00    -0.169 N 
ATOM      5  C   UNL     1      -1.140   3.679  -2.230  0.00  0.00    +0.113 C 
ATOM      6  C   UNL     1      -0.862   3.093  -3.430  0.00  0.00    +0.109 C 
ATOM      7  O   UNL     1      -0.446   3.691   0.103  0.00  0.00    -0.081 OA
ENDROOT
BRANCH   5   8
ATOM      8  N   UNL     1      -1.746   4.911  -2.167  0.00  0.00    -0.402 NA
ATOM      9  H   UNL     1      -1.936   5.280  -3.186  0.00  0.00    +0.122 HD
ATOM     10  H   UNL     1      -1.088   5.617  -1.638  0.00  0.00    +0.122 HD
ATOM     11  H   UNL     1      -2.700   4.824  -1.625  0.00  0.00    +0.122 HD
ENDBRANCH   5   8
BRANCH   3  12
ATOM     12  N   UNL     1      -0.012   1.005   0.008  0.00  0.00    -0.290 NA
ATOM     13  H   UNL     1      -0.460   1.343   0.954  0.00  0.00    +0.122 HD
ATOM     14  H   UNL     1      -0.010  -0.095  -0.025  0.00  0.00    +0.122 HD
ENDBRANCH   3  12
BRANCH   1  15
ATOM     15  O   UNL     1       0.251   1.347  -4.618  0.00  0.00    -0.435 OA
BRANCH  15  19
ATOM     16  C   UNL     1       1.979  -2.401  -4.596  0.00  0.00    +0.003 A 
ATOM     17  C   UNL     1       0.631  -2.264  -4.872  0.00  0.00    +0.024 A 
ATOM     18  C   UNL     1       0.050  -1.010  -4.879  0.00  0.00    +0.085 A 
ATOM     19  C   UNL     1       0.820   0.113  -4.611  0.00  0.00    +0.167 A 
ATOM     20  C   UNL     1       2.174  -0.027  -4.340  0.00  0.00    +0.085 A 
ATOM     21  C   UNL     1       2.749  -1.284  -4.328  0.00  0.00    +0.024 A 
ATOM     22 CL   UNL     1       3.143   1.375  -4.010  0.00  0.00    -0.080 Cl
ATOM     23 CL   UNL     1      -1.643  -0.840  -5.224  0.00  0.00    -0.080 Cl
ENDBRANCH  15  19
ENDBRANCH   1  15
TORSDOF 4
