REMARK  Name = ZINC48459214
REMARK  3 active torsions:
REMARK  status: ('A' for Active; 'I' for Inactive)
REMARK    1  A    between atoms: C_6  and  N_7
REMARK    2  A    between atoms: C_11  and  C_12
REMARK    3  A    between atoms: C_18  and  O_21
REMARK                            x       y       z     vdW  Elec       q    Type
REMARK                         _______ _______ _______ _____ _____    ______ ____
ROOT
ATOM      1  C   UNL     1       0.894   1.051  -2.393  0.00  0.00    +0.023 A 
ATOM      2  C   UNL     1       1.834   1.843  -1.795  0.00  0.00    +0.012 A 
ATOM      3  C   UNL     1       2.686   1.305  -0.834  0.00  0.00    +0.012 A 
ATOM      4  C   UNL     1       2.582  -0.049  -0.476  0.00  0.00    +0.049 A 
ATOM      5  C   UNL     1       1.622  -0.845  -1.093  0.00  0.00    +0.049 A 
ATOM      6  C   UNL     1       0.783  -0.294  -2.046  0.00  0.00    +0.027 A 
ATOM      7  N   UNL     1       3.539  -0.298   0.485  0.00  0.00    -0.360 N 
ATOM      8  H   UNL     1       3.688  -1.158   0.908  0.00  0.00    +0.165 HD
ATOM      9  C   UNL     1       4.243   0.829   0.755  0.00  0.00    +0.096 A 
ATOM     10  C   UNL     1       3.780   1.856  -0.013  0.00  0.00    +0.062 A 
ENDROOT
BRANCH  10  11
ATOM     11  C   UNL     1       4.275   3.239  -0.021  0.00  0.00    +0.249 C 
ATOM     12  O   UNL     1       3.491   4.165  -0.110  0.00  0.00    -0.270 OA
ATOM     13  N   UNL     1       5.598   3.483   0.070  0.00  0.00    -0.295 N 
ATOM     14  C   UNL     1       6.565   2.377   0.051  0.00  0.00    +0.108 C 
ATOM     15  C   UNL     1       7.601   2.647  -1.044  0.00  0.00    +0.021 C 
ATOM     16  C   UNL     1       8.227   4.026  -0.821  0.00  0.00    +0.034 C 
ATOM     17  C   UNL     1       7.141   5.101  -0.907  0.00  0.00    +0.132 C 
ATOM     18  C   UNL     1       6.100   4.859   0.183  0.00  0.00    +0.139 C 
BRANCH  17  19
ATOM     19  O   UNL     1       7.731   6.390  -0.729  0.00  0.00    -0.390 OA
ATOM     20  H   UNL     1       7.099   7.121  -0.773  0.00  0.00    +0.210 HD
ENDBRANCH  17  19
ENDBRANCH  10  11
BRANCH   6  21
ATOM     21  N   UNL     1      -0.183  -1.093  -2.665  0.00  0.00    -0.358 N 
ATOM     22  H   UNL     1      -0.773  -0.710  -3.334  0.00  0.00    +0.142 HD
ATOM     23  H   UNL     1      -0.263  -2.029  -2.426  0.00  0.00    +0.142 HD
ENDBRANCH   6  21
TORSDOF 3
