REMARK  Name = ZINC08645304
REMARK  7 active torsions:
REMARK  status: ('A' for Active; 'I' for Inactive)
REMARK    1  A    between atoms: C_1  and  C_2
REMARK    2  A    between atoms: C_8  and  N_10
REMARK    3  A    between atoms: C_14  and  C_16
REMARK    4  A    between atoms: C_16  and  S_17
REMARK    5  A    between atoms: S_17  and  C_18
REMARK    6  A    between atoms: C_21  and  C_24
REMARK    7  A    between atoms: N_22  and  N_23
REMARK                            x       y       z     vdW  Elec       q    Type
REMARK                         _______ _______ _______ _____ _____    ______ ____
ROOT
ATOM      1  S   UNL     1       6.770   7.084  -3.156  0.00  0.00    -0.075 S 
ENDROOT
BRANCH   1   2
ATOM      2  C   UNL     1       8.470   7.495  -2.942  0.00  0.00    +0.209 A 
ATOM      3  N   UNL     1       9.373   6.774  -2.317  0.00  0.00    -0.121 NA
ATOM      4  N   UNL     1      10.511   7.369  -2.348  0.00  0.00    -0.127 NA
ATOM      5  C   UNL     1      10.405   8.507  -2.995  0.00  0.00    +0.183 A 
ATOM      6  N   UNL     1       9.095   8.620  -3.400  0.00  0.00    -0.224 N 
BRANCH   5   7
ATOM      7  C   UNL     1      11.490   9.479  -3.246  0.00  0.00    +0.039 A 
ATOM      8  C   UNL     1      11.279  10.839  -3.015  0.00  0.00    +0.014 A 
ATOM      9  C   UNL     1      12.296  11.741  -3.247  0.00  0.00    +0.021 A 
ATOM     10  C   UNL     1      13.522  11.302  -3.719  0.00  0.00    +0.042 A 
ATOM     11  C   UNL     1      13.736   9.955  -3.956  0.00  0.00    +0.040 A 
ATOM     12  C   UNL     1      12.728   9.041  -3.723  0.00  0.00    +0.053 A 
ATOM     13 CL   UNL     1      12.998   7.352  -4.020  0.00  0.00    -0.083 Cl
ATOM     14 CL   UNL     1      14.795  12.444  -4.015  0.00  0.00    -0.083 Cl
ENDBRANCH   5   7
BRANCH   6  15
ATOM     15  N   UNL     1       8.537   9.644  -4.111  0.00  0.00    -0.295 N 
ATOM     16  H   UNL     1       8.257  10.397  -3.500  0.00  0.00    +0.163 HD
ATOM     17  H   UNL     1       9.167   9.974  -4.826  0.00  0.00    +0.163 HD
ENDBRANCH   6  15
ENDBRANCH   1   2
BRANCH   1  18
ATOM     18  C   UNL     1       6.721   5.490  -2.300  0.00  0.00    +0.173 C 
BRANCH  18  23
ATOM     19  N   UNL     1       3.520   2.059  -1.255  0.00  0.00    -0.296 N 
ATOM     20  C   UNL     1       3.796   3.246  -1.831  0.00  0.00    +0.306 C 
ATOM     21  O   UNL     1       2.916   3.866  -2.396  0.00  0.00    -0.252 OA
ATOM     22  N   UNL     1       5.047   3.745  -1.780  0.00  0.00    -0.239 N 
ATOM     23  C   UNL     1       5.322   4.932  -2.356  0.00  0.00    +0.231 C 
ATOM     24  O   UNL     1       4.445   5.551  -2.920  0.00  0.00    -0.274 OA
ATOM     25  H   UNL     1       4.222   1.564  -0.804  0.00  0.00    +0.151 HD
ATOM     26  H   UNL     1       5.749   3.251  -1.329  0.00  0.00    +0.159 HD
BRANCH  19  33
ATOM     27  C   UNL     1       3.042  -0.590  -2.324  0.00  0.00    +0.009 C 
ATOM     28  C   UNL     1       2.214  -0.007  -1.177  0.00  0.00    +0.006 C 
ATOM     29  C   UNL     1       0.794  -0.573  -1.234  0.00  0.00    +0.005 C 
ATOM     30  C   UNL     1      -0.035   0.010  -0.088  0.00  0.00    +0.000 C 
ATOM     31  C   UNL     1      -0.088   1.533  -0.220  0.00  0.00    +0.002 C 
ATOM     32  C   UNL     1       1.332   2.100  -0.163  0.00  0.00    +0.022 C 
ATOM     33  C   UNL     1       2.160   1.517  -1.310  0.00  0.00    +0.077 C 
ENDBRANCH  19  33
ENDBRANCH  18  23
ENDBRANCH   1  18
TORSDOF 6
