REMARK  Name = ZINC04521968
REMARK  5 active torsions:
REMARK  status: ('A' for Active; 'I' for Inactive)
REMARK    1  A    between atoms: N_8  and  C1*_10
REMARK    2  A    between atoms: C2*_12  and  O2*_22
REMARK    3  A    between atoms: C3*_14  and  O3*_21
REMARK    4  A    between atoms: C4*_16  and  C5*_19
REMARK    5  A    between atoms: C5*_19  and  O5*_20
REMARK                            x       y       z     vdW  Elec       q    Type
REMARK                         _______ _______ _______ _____ _____    ______ ____
ROOT
ATOM      1  C1* UNL     1      -3.141  -1.232   1.412  0.00  0.00    +0.271 C 
ATOM      2  C2* UNL     1      -2.801  -2.449   0.530  0.00  0.00    +0.196 C 
ATOM      3  C3* UNL     1      -1.446  -2.078  -0.122  0.00  0.00    +0.178 C 
ATOM      4  C4* UNL     1      -1.433  -0.534   0.013  0.00  0.00    +0.177 C 
ATOM      5  O4* UNL     1      -2.051  -0.302   1.297  0.00  0.00    -0.344 OA
ENDROOT
BRANCH   1  13
ATOM      6  C   UNL     1      -5.671   0.162  -0.853  0.00  0.00    +0.203 A 
ATOM      7  C   UNL     1      -6.692   0.554   0.122  0.00  0.00    +0.270 A 
ATOM      8  O   UNL     1      -7.729   1.075  -0.246  0.00  0.00    -0.266 OA
ATOM      9  N   UNL     1      -6.469   0.331   1.434  0.00  0.00    -0.300 N 
ATOM     10  H   UNL     1      -7.156   0.598   2.110  0.00  0.00    +0.171 HD
ATOM     11  C   UNL     1      -5.322  -0.250   1.833  0.00  0.00    +0.179 A 
ATOM     12  S   UNL     1      -5.057  -0.534   3.501  0.00  0.00    -0.011 S 
ATOM     13  N   UNL     1      -4.380  -0.607   0.943  0.00  0.00    -0.210 N 
ATOM     14  N   UNL     1      -4.570  -0.394  -0.428  0.00  0.00    -0.170 NA
ENDBRANCH   1  13
BRANCH   3  15
ATOM     15  O3* UNL     1      -0.357  -2.662   0.596  0.00  0.00    -0.386 OA
ATOM     16  H3* UNL     1      -0.323  -3.626   0.542  0.00  0.00    +0.210 HD
ENDBRANCH   3  15
BRANCH   2  17
ATOM     17  O2* UNL     1      -3.803  -2.636  -0.471  0.00  0.00    -0.385 OA
ATOM     18  H2* UNL     1      -3.610  -3.353  -1.091  0.00  0.00    +0.210 HD
ENDBRANCH   2  17
BRANCH   4  19
ATOM     19  C5* UNL     1       0.002  -0.004   0.002  0.00  0.00    +0.190 C 
BRANCH  19  20
ATOM     20  O5* UNL     1      -0.017   1.425   0.010  0.00  0.00    -0.392 OA
ATOM     21  H5* UNL     1       0.861   1.830   0.004  0.00  0.00    +0.210 HD
ENDBRANCH  19  20
ENDBRANCH   4  19
TORSDOF 5
