REMARK  Name = ZINC39695930
REMARK  8 active torsions:
REMARK  status: ('A' for Active; 'I' for Inactive)
REMARK    1  A    between atoms: C_1  and  C_2
REMARK    2  A    between atoms: C_2  and  C_3
REMARK    3  A    between atoms: C_6  and  C_9
REMARK    4  A    between atoms: C_9  and  C_11
REMARK    5  A    between atoms: C_9  and  N_12
REMARK    6  A    between atoms: C_13  and  C_15
REMARK    7  A    between atoms: C_26  and  C_28
REMARK    8  A    between atoms: C_34  and  C_36
REMARK                            x       y       z     vdW  Elec       q    Type
REMARK                         _______ _______ _______ _____ _____    ______ ____
ROOT
ATOM      1  C   UNL     1      -6.692  -4.983  -1.997  0.00  0.00    +0.100 C 
ATOM      2  C   UNL     1      -7.214  -4.319  -3.291  0.00  0.00    +0.121 C 
ATOM      3  N   UNL     1      -8.149  -5.312  -3.871  0.00  0.00    -0.299 N 
ATOM      4  C   UNL     1      -8.862  -5.875  -2.699  0.00  0.00    +0.115 C 
ATOM      5  C   UNL     1      -7.777  -6.003  -1.612  0.00  0.00    -0.004 C 
ATOM      6  C   UNL     1      -7.198  -7.414  -1.608  0.00  0.00    -0.010 C 
ATOM      7  C   UNL     1      -8.280  -8.404  -1.167  0.00  0.00    -0.082 C 
ATOM      8  N   UNL     1      -8.756  -8.045   0.174  0.00  0.00    +0.379 N 
ATOM      9  C   UNL     1      -9.395  -6.724   0.143  0.00  0.00    -0.082 C 
ATOM     10  C   UNL     1      -8.360  -5.663  -0.243  0.00  0.00    -0.010 C 
ATOM     11  C   UNL     1      -8.314  -5.631  -5.170  0.00  0.00    +0.236 C 
ATOM     12  O   UNL     1      -9.128  -6.472  -5.489  0.00  0.00    -0.274 OA
ATOM     13  H   UNL     1      -9.425  -8.733   0.488  0.00  0.00    -0.086 HD
ATOM     14  H   UNL     1      -7.975  -8.024   0.813  0.00  0.00    -0.086 HD
ENDROOT
BRANCH  11  15
ATOM     15  C   UNL     1      -7.488  -4.943  -6.226  0.00  0.00    +0.162 C 
ATOM     16  C   UNL     1      -8.089  -3.558  -6.543  0.00  0.00    +0.033 C 
ATOM     17  C   UNL     1      -7.901  -3.440  -8.079  0.00  0.00    +0.021 C 
ATOM     18  C   UNL     1      -8.124  -4.904  -8.532  0.00  0.00    +0.109 C 
ATOM     19  N   UNL     1      -7.511  -5.728  -7.469  0.00  0.00    -0.283 N 
ATOM     20  C   UNL     1      -7.051  -6.986  -7.612  0.00  0.00    +0.320 C 
ATOM     21  O   UNL     1      -6.565  -7.566  -6.664  0.00  0.00    -0.266 OA
BRANCH  20  22
ATOM     22  C   UNL     1      -7.138  -7.673  -8.951  0.00  0.00    +0.470 C 
ATOM     23  F   UNL     1      -6.601  -8.960  -8.851  0.00  0.00    -0.162 F 
ATOM     24  F   UNL     1      -8.478  -7.756  -9.345  0.00  0.00    -0.162 F 
ATOM     25  F   UNL     1      -6.418  -6.939  -9.900  0.00  0.00    -0.162 F 
ENDBRANCH  20  22
ENDBRANCH  11  15
BRANCH   1  27
ATOM     26  N   UNL     1      -5.604  -4.133   0.054  0.00  0.00    -0.308 N 
ATOM     27  C   UNL     1      -6.529  -3.954  -0.909  0.00  0.00    +0.219 C 
ATOM     28  O   UNL     1      -7.231  -2.965  -0.899  0.00  0.00    -0.275 OA
ATOM     29  H   UNL     1      -5.042  -4.924   0.047  0.00  0.00    +0.149 HD
BRANCH  26  30
ATOM     30  C   UNL     1      -5.445  -3.133   1.113  0.00  0.00    +0.100 C 
ATOM     31  C   UNL     1      -4.512  -2.021   0.628  0.00  0.00    +0.033 C 
BRANCH  30  35
ATOM     32  C   UNL     1      -3.773  -4.984   4.581  0.00  0.00    -0.048 A 
ATOM     33  C   UNL     1      -4.772  -4.038   4.716  0.00  0.00    +0.004 A 
ATOM     34  C   UNL     1      -5.313  -3.439   3.594  0.00  0.00    +0.006 A 
ATOM     35  C   UNL     1      -4.854  -3.785   2.336  0.00  0.00    -0.027 A 
ATOM     36  C   UNL     1      -3.855  -4.730   2.201  0.00  0.00    +0.006 A 
ATOM     37  C   UNL     1      -3.311  -5.326   3.324  0.00  0.00    +0.004 A 
BRANCH  32  39
ATOM     38  C   UNL     1      -1.993  -4.814   6.298  0.00  0.00    +0.009 C 
ATOM     39  C   UNL     1      -3.184  -5.637   5.804  0.00  0.00    +0.032 C 
ENDBRANCH  32  39
ENDBRANCH  30  35
ENDBRANCH  26  30
ENDBRANCH   1  27
TORSDOF 6
