REMARK  Name = ZINC21818386
REMARK  7 active torsions:
REMARK  status: ('A' for Active; 'I' for Inactive)
REMARK    1  A    between atoms: C_4  and  C_7
REMARK    2  A    between atoms: C_7  and  C_9
REMARK    3  A    between atoms: C_7  and  N_22
REMARK    4  A    between atoms: N_11  and  C_12
REMARK    5  A    between atoms: C_15  and  N_19
REMARK    6  A    between atoms: N_22  and  C_23
REMARK    7  A    between atoms: C_23  and  C_24
REMARK                            x       y       z     vdW  Elec       q    Type
REMARK                         _______ _______ _______ _____ _____    ______ ____
ROOT
ATOM      1  C   UNL     1      -2.569   4.142   0.252  0.00  0.00    +0.047 C 
ENDROOT
BRANCH   1   5
ATOM      2  C   UNL     1      -4.965   3.354  -3.196  0.00  0.00    +0.000 A 
ATOM      3  C   UNL     1      -5.197   2.664  -2.021  0.00  0.00    +0.000 A 
ATOM      4  C   UNL     1      -4.422   2.919  -0.905  0.00  0.00    +0.002 A 
ATOM      5  C   UNL     1      -3.414   3.864  -0.965  0.00  0.00    -0.053 A 
ATOM      6  C   UNL     1      -3.186   4.558  -2.138  0.00  0.00    +0.002 A 
ATOM      7  C   UNL     1      -3.958   4.300  -3.255  0.00  0.00    +0.000 A 
ENDBRANCH   1   5
BRANCH   1   8
ATOM      8  C   UNL     1      -1.256   3.413   0.128  0.00  0.00    +0.207 C 
ATOM      9  O   UNL     1      -0.215   4.036   0.127  0.00  0.00    -0.277 OA
ATOM     10  N   UNL     1      -1.238   2.070   0.019  0.00  0.00    -0.285 N 
ATOM     11  H   UNL     1      -2.182   1.512  -0.054  0.00  0.00    +0.155 HD
BRANCH  10  12
ATOM     12  C   UNL     1      -0.016   1.386  -0.001  0.00  0.00    +0.052 A 
ATOM     13  C   UNL     1       1.093   1.960  -0.609  0.00  0.00    +0.027 A 
ATOM     14  C   UNL     1       2.294   1.280  -0.633  0.00  0.00    +0.034 A 
ATOM     15  C   UNL     1       2.395   0.029  -0.052  0.00  0.00    +0.128 A 
ATOM     16  C   UNL     1       1.293  -0.546   0.554  0.00  0.00    +0.054 A 
ATOM     17  C   UNL     1       0.087   0.129   0.582  0.00  0.00    +0.064 A 
ATOM     18 CL   UNL     1      -1.296  -0.593   1.343  0.00  0.00    -0.082 Cl
BRANCH  15  19
ATOM     19  N   UNL     1       3.685  -0.697  -0.080  0.00  0.00    +0.056 N 
ATOM     20  O   UNL     1       3.775  -1.799   0.430  0.00  0.00    -0.126 OA
ATOM     21  O   UNL     1       4.656  -0.192  -0.614  0.00  0.00    -0.126 OA
ENDBRANCH  15  19
ENDBRANCH  10  12
ENDBRANCH   1   8
BRANCH   1  22
ATOM     22  N   UNL     1      -2.321   5.586   0.356  0.00  0.00    +0.391 N 
ATOM     23  H   UNL     1      -1.393   5.758   0.921  0.00  0.00    -0.084 HD
ATOM     24  H   UNL     1      -2.221   6.014  -0.652  0.00  0.00    -0.084 HD
BRANCH  22  25
ATOM     25  C   UNL     1      -3.427   6.262   1.047  0.00  0.00    -0.049 C 
BRANCH  25  26
ATOM     26  C   UNL     1      -3.132   7.761   1.136  0.00  0.00    +0.101 C 
ATOM     27  C   UNL     1      -4.221   8.474   1.969  0.00  0.00    +0.032 C 
ATOM     28  C   UNL     1      -4.412   9.830   1.253  0.00  0.00    +0.030 C 
ATOM     29  C   UNL     1      -3.417   9.775   0.073  0.00  0.00    +0.160 C 
ATOM     30  O   UNL     1      -3.212   8.367  -0.172  0.00  0.00    -0.378 OA
ENDBRANCH  25  26
ENDBRANCH  22  25
ENDBRANCH   1  22
TORSDOF 7
