REMARK  Name = ZINC40069766
REMARK  3 active torsions:
REMARK  status: ('A' for Active; 'I' for Inactive)
REMARK    1  A    between atoms: C_1  and  C_2
REMARK    2  A    between atoms: C_5  and  C_23
REMARK    3  A    between atoms: C_14  and  C_16
REMARK                            x       y       z     vdW  Elec       q    Type
REMARK                         _______ _______ _______ _____ _____    ______ ____
ROOT
ATOM      1  C   UNL     1       0.117   0.921  -0.310  0.00  0.00    +0.028 C 
ATOM      2  C   UNL     1      -0.639  -0.111   0.529  0.00  0.00    +0.080 C 
ATOM      3  C   UNL     1      -0.840  -1.396  -0.284  0.00  0.00    +0.040 C 
ATOM      4  C   UNL     1      -1.657  -2.384   0.547  0.00  0.00    +0.108 C 
ATOM      5  C   UNL     1      -1.047  -2.554   1.914  0.00  0.00    -0.014 A 
ATOM      6  C   UNL     1      -1.355  -3.687   2.649  0.00  0.00    +0.006 A 
ATOM      7  C   UNL     1      -0.813  -3.869   3.907  0.00  0.00    +0.000 A 
ATOM      8  C   UNL     1       0.041  -2.921   4.440  0.00  0.00    +0.002 A 
ATOM      9  C   UNL     1       0.352  -1.790   3.714  0.00  0.00    +0.024 A 
ATOM     10  C   UNL     1      -0.190  -1.604   2.447  0.00  0.00    +0.041 A 
ATOM     11  N   UNL     1       0.146  -0.452   1.723  0.00  0.00    -0.264 N 
ATOM     12  C   UNL     1       1.172   0.329   2.115  0.00  0.00    +0.252 C 
ATOM     13  O   UNL     1       1.335   1.420   1.604  0.00  0.00    -0.270 OA
ENDROOT
BRANCH  12  14
ATOM     14  C   UNL     1       2.099  -0.141   3.166  0.00  0.00    +0.051 A 
ATOM     15  C   UNL     1       2.543  -1.465   3.168  0.00  0.00    +0.014 A 
ATOM     16  C   UNL     1       3.409  -1.897   4.151  0.00  0.00    +0.001 A 
ATOM     17  C   UNL     1       3.837  -1.022   5.135  0.00  0.00    +0.001 A 
ATOM     18  C   UNL     1       3.400   0.290   5.140  0.00  0.00    +0.016 A 
ATOM     19  C   UNL     1       2.538   0.738   4.158  0.00  0.00    +0.030 A 
ATOM     20 BR   UNL     1       1.949   2.535   4.162  0.00  0.00    -0.050 Br
ENDBRANCH  12  14
BRANCH   4  21
ATOM     21  C   UNL     1      -1.686  -3.719  -0.152  0.00  0.00    +0.218 C 
ATOM     22  O   UNL     1      -0.715  -4.100  -0.771  0.00  0.00    -0.275 OA
ATOM     23  N   UNL     1      -2.791  -4.488  -0.091  0.00  0.00    -0.329 N 
ATOM     24  H   UNL     1      -3.592  -4.153   0.342  0.00  0.00    +0.145 HD
ATOM     25  H   UNL     1      -2.785  -5.377  -0.479  0.00  0.00    +0.145 HD
ENDBRANCH   4  21
TORSDOF 2
