REMARK  Name = ZINC13211186
REMARK  3 active torsions:
REMARK  status: ('A' for Active; 'I' for Inactive)
REMARK    1  A    between atoms: C_1  and  C_2
REMARK    2  A    between atoms: C_5  and  C_8
REMARK    3  A    between atoms: C_11  and  C_23
REMARK                            x       y       z     vdW  Elec       q    Type
REMARK                         _______ _______ _______ _____ _____    ______ ____
ROOT
ATOM      1  C   UNL     1       0.059  -4.275  -0.021  0.00  0.00    +0.114 C 
ATOM      2  C   UNL     1      -1.350  -4.817   0.259  0.00  0.00    +0.057 C 
ATOM      3  C   UNL     1      -1.755  -4.469   1.692  0.00  0.00    +0.114 C 
ATOM      4  N   UNL     1      -0.785  -5.016   2.646  0.00  0.00    -0.354 N 
ATOM      5  C   UNL     1       0.471  -5.116   2.299  0.00  0.00    +0.166 C 
ATOM      6  N   UNL     1       0.941  -4.769   1.044  0.00  0.00    -0.265 N 
ATOM      7  C   UNL     1       2.301  -4.977   1.019  0.00  0.00    +0.058 A 
ATOM      8  C   UNL     1       3.247  -4.776   0.021  0.00  0.00    +0.025 A 
ATOM      9  C   UNL     1       4.563  -5.095   0.324  0.00  0.00    +0.002 A 
ATOM     10  C   UNL     1       4.926  -5.592   1.561  0.00  0.00    +0.002 A 
ATOM     11  C   UNL     1       3.994  -5.798   2.568  0.00  0.00    +0.025 A 
ATOM     12  C   UNL     1       2.671  -5.483   2.280  0.00  0.00    +0.055 A 
ATOM     13  N   UNL     1       1.522  -5.569   3.052  0.00  0.00    -0.287 N 
ATOM     14  H   UNL     1       1.471  -5.894   3.965  0.00  0.00    +0.155 HD
ATOM     15  H   UNL     1      -1.073  -5.300   3.527  0.00  0.00    +0.163 HD
ENDROOT
BRANCH   1  20
ATOM     16  C   UNL     1      -0.018   1.503   0.010  0.00  0.00    +0.044 C 
ATOM     17  C   UNL     1       0.002  -0.004   0.002  0.00  0.00    -0.050 A 
ATOM     18  C   UNL     1       0.006  -0.689  -1.199  0.00  0.00    +0.004 A 
ATOM     19  C   UNL     1       0.025  -2.071  -1.206  0.00  0.00    +0.006 A 
ATOM     20  C   UNL     1       0.040  -2.768  -0.013  0.00  0.00    -0.027 A 
ATOM     21  C   UNL     1       0.037  -2.084   1.188  0.00  0.00    +0.006 A 
ATOM     22  C   UNL     1       0.023  -0.702   1.195  0.00  0.00    +0.004 A 
ENDBRANCH   1  20
BRANCH   3  23
ATOM     23  C   UNL     1      -3.115  -5.051   1.981  0.00  0.00    -0.025 A 
ATOM     24  C   UNL     1      -3.238  -6.387   2.312  0.00  0.00    +0.007 A 
ATOM     25  C   UNL     1      -4.485  -6.921   2.577  0.00  0.00    +0.015 A 
ATOM     26  C   UNL     1      -5.609  -6.118   2.513  0.00  0.00    +0.018 A 
ATOM     27  C   UNL     1      -5.485  -4.781   2.182  0.00  0.00    +0.015 A 
ATOM     28  C   UNL     1      -4.238  -4.246   1.921  0.00  0.00    +0.007 A 
ATOM     29 BR   UNL     1      -7.316  -6.849   2.875  0.00  0.00    -0.050 Br
ENDBRANCH   3  23
TORSDOF 2
