REMARK  Name = ZINC55329657
REMARK  5 active torsions:
REMARK  status: ('A' for Active; 'I' for Inactive)
REMARK    1  A    between atoms: C_1  and  N_2
REMARK    2  A    between atoms: C_3  and  C_5
REMARK    3  A    between atoms: N_10  and  S_11
REMARK    4  A    between atoms: S_11  and  C_14
REMARK    5  A    between atoms: C_16  and  C_20
REMARK                            x       y       z     vdW  Elec       q    Type
REMARK                         _______ _______ _______ _____ _____    ______ ____
ROOT
ATOM      1  S   UNL     1      -3.670  -2.398   1.314  0.00  0.00    +0.066 S 
ATOM      2  O   UNL     1      -3.384  -1.198   2.019  0.00  0.00    -0.153 OA
ATOM      3  O   UNL     1      -4.859  -2.570   0.555  0.00  0.00    -0.153 OA
ENDROOT
BRANCH   1   4
ATOM      4  C   UNL     1      -3.638  -3.699   2.502  0.00  0.00    +0.158 A 
ATOM      5  C   UNL     1      -3.406  -3.564   3.877  0.00  0.00    +0.086 A 
ATOM      6  C   UNL     1      -3.474  -4.833   4.413  0.00  0.00    +0.219 A 
ATOM      7  O   UNL     1      -3.736  -5.694   3.406  0.00  0.00    -0.439 OA
ATOM      8  C   UNL     1      -3.840  -5.016   2.257  0.00  0.00    +0.197 A 
ATOM      9 BR   UNL     1      -4.207  -5.774   0.564  0.00  0.00    -0.006 Br
BRANCH   6  10
ATOM     10  C   UNL     1      -3.299  -5.173   5.778  0.00  0.00    +0.421 C 
ATOM     11  O   UNL     1      -3.064  -4.297   6.602  0.00  0.00    -0.237 OA
ATOM     12  O   UNL     1      -3.384  -6.342   6.134  0.00  0.00    -0.237 OA
ENDBRANCH   6  10
ENDBRANCH   1   4
BRANCH   1  17
ATOM     13  C   UNL     1      -1.012  -2.241   0.508  0.00  0.00    +0.165 C 
ATOM     14  C   UNL     1      -0.185  -2.710  -0.708  0.00  0.00    +0.031 C 
ATOM     15  C   UNL     1      -1.051  -3.855  -1.296  0.00  0.00    +0.019 C 
ATOM     16  C   UNL     1      -2.484  -3.326  -1.035  0.00  0.00    +0.110 C 
ATOM     17  N   UNL     1      -2.405  -2.651   0.277  0.00  0.00    -0.165 NA
BRANCH  13  20
ATOM     18  C   UNL     1       0.047   1.272   1.593  0.00  0.00    +0.128 C 
ATOM     19  N   UNL     1       0.039  -0.176   1.375  0.00  0.00    -0.317 N 
ATOM     20  C   UNL     1      -0.934  -0.741   0.632  0.00  0.00    +0.232 C 
ATOM     21  O   UNL     1      -1.746  -0.042   0.065  0.00  0.00    -0.274 OA
ATOM     22  H   UNL     1       0.734  -0.729   1.766  0.00  0.00    +0.148 HD
ENDBRANCH  13  20
ENDBRANCH   1  17
TORSDOF 4
