REMARK  Name = ZINC20292142
REMARK  7 active torsions:
REMARK  status: ('A' for Active; 'I' for Inactive)
REMARK    1  A    between atoms: C_4  and  C_7
REMARK    2  A    between atoms: C_7  and  C_9
REMARK    3  A    between atoms: C_9  and  S_10
REMARK    4  A    between atoms: S_10  and  C_11
REMARK    5  A    between atoms: N_15  and  N_16
REMARK    6  A    between atoms: N_17  and  N_18
REMARK    7  A    between atoms: C_19  and  C_20
REMARK                            x       y       z     vdW  Elec       q    Type
REMARK                         _______ _______ _______ _____ _____    ______ ____
ROOT
ATOM      1  C   UNL     1       5.297  -4.519  -0.075  0.00  0.00    +0.210 A 
ATOM      2  N   UNL     1       4.179  -5.204  -0.073  0.00  0.00    -0.119 NA
ATOM      3  N   UNL     1       4.505  -6.566  -0.081  0.00  0.00    -0.109 NA
ATOM      4  C   UNL     1       5.812  -6.669  -0.088  0.00  0.00    +0.254 A 
ATOM      5  N   UNL     1       6.336  -5.406  -0.090  0.00  0.00    -0.211 N 
ATOM      6  N   UNL     1       6.537  -7.853  -0.098  0.00  0.00    -0.204 N 
ATOM      7  H   UNL     1       7.507  -7.827  -0.102  0.00  0.00    +0.177 HD
ENDROOT
BRANCH   5   8
ATOM      8  N   UNL     1       7.664  -5.088  -0.103  0.00  0.00    -0.294 N 
ATOM      9  H   UNL     1       8.026  -5.008   0.835  0.00  0.00    +0.163 HD
ATOM     10  H   UNL     1       8.192  -5.760  -0.639  0.00  0.00    +0.163 HD
ENDBRANCH   5   8
BRANCH   6  11
ATOM     11  N   UNL     1       5.868  -9.084  -0.101  0.00  0.00    -0.188 NA
ATOM     12  C   UNL     1       6.547 -10.191  -0.110  0.00  0.00    +0.138 C 
BRANCH  12  13
ATOM     13  C   UNL     1       5.843 -11.486  -0.113  0.00  0.00    -0.004 A 
ATOM     14  C   UNL     1       4.446 -11.527  -0.113  0.00  0.00    +0.009 A 
ATOM     15  C   UNL     1       3.794 -12.742  -0.116  0.00  0.00    +0.002 A 
ATOM     16  C   UNL     1       4.519 -13.920  -0.120  0.00  0.00    +0.015 A 
ATOM     17  C   UNL     1       5.903 -13.889  -0.120  0.00  0.00    +0.018 A 
ATOM     18  C   UNL     1       6.569 -12.680  -0.122  0.00  0.00    +0.024 A 
ATOM     19 BR   UNL     1       6.884 -15.506  -0.124  0.00  0.00    -0.050 Br
ENDBRANCH  12  13
ENDBRANCH   6  11
BRANCH   1  20
ATOM     20  S   UNL     1       5.436  -2.762  -0.067  0.00  0.00    -0.076 S 
BRANCH  20  21
ATOM     21  C   UNL     1       3.716  -2.186  -0.046  0.00  0.00    +0.157 C 
BRANCH  21  22
ATOM     22  C   UNL     1       3.691  -0.679  -0.038  0.00  0.00    +0.173 C 
ATOM     23  O   UNL     1       4.731  -0.056  -0.045  0.00  0.00    -0.291 OA
BRANCH  22  27
ATOM     24  C   UNL     1      -0.017   1.380   0.010  0.00  0.00    +0.000 A 
ATOM     25  C   UNL     1       1.168   2.095   0.002  0.00  0.00    +0.001 A 
ATOM     26  C   UNL     1       2.377   1.433  -0.013  0.00  0.00    +0.011 A 
ATOM     27  C   UNL     1       2.405   0.035  -0.021  0.00  0.00    +0.018 A 
ATOM     28  C   UNL     1       1.203  -0.681  -0.013  0.00  0.00    +0.011 A 
ATOM     29  C   UNL     1       0.002  -0.004   0.002  0.00  0.00    +0.001 A 
ENDBRANCH  22  27
ENDBRANCH  21  22
ENDBRANCH  20  21
ENDBRANCH   1  20
TORSDOF 7
