REMARK  Name = ZINC03466838
REMARK  7 active torsions:
REMARK  status: ('A' for Active; 'I' for Inactive)
REMARK    1  A    between atoms: C_1  and  C_2
REMARK    2  A    between atoms: C_4  and  C_27
REMARK    3  A    between atoms: C_9  and  S_11
REMARK    4  A    between atoms: S_11  and  C_12
REMARK    5  A    between atoms: C_12  and  C_14
REMARK    6  A    between atoms: C_12  and  C_15
REMARK    7  A    between atoms: N_17  and  C_18
REMARK                            x       y       z     vdW  Elec       q    Type
REMARK                         _______ _______ _______ _____ _____    ______ ____
ROOT
ATOM      1  C   UNL     1      -0.736   1.580   1.284  0.00  0.00    +0.137 C 
ATOM      2  C   UNL     1      -0.022   1.075   0.028  0.00  0.00    +0.029 C 
ENDROOT
BRANCH   1   3
ATOM      3  C   UNL     1      -0.752   3.087   1.281  0.00  0.00    +0.230 C 
ATOM      4  O   UNL     1      -1.749   3.682   0.931  0.00  0.00    -0.274 OA
ATOM      5  N   UNL     1       0.342   3.773   1.668  0.00  0.00    -0.283 N 
ATOM      6  H   UNL     1       1.117   3.299   2.009  0.00  0.00    +0.155 HD
BRANCH   5   7
ATOM      7  C   UNL     1       0.360   5.170   1.576  0.00  0.00    +0.053 A 
ATOM      8  C   UNL     1      -0.801   5.897   1.801  0.00  0.00    +0.046 A 
ATOM      9  C   UNL     1      -0.779   7.276   1.714  0.00  0.00    +0.061 A 
ATOM     10  C   UNL     1       0.398   7.932   1.395  0.00  0.00    +0.061 A 
ATOM     11  C   UNL     1       1.555   7.210   1.166  0.00  0.00    +0.043 A 
ATOM     12  C   UNL     1       1.540   5.831   1.256  0.00  0.00    +0.064 A 
ATOM     13 CL   UNL     1       2.993   4.925   0.968  0.00  0.00    -0.082 Cl
ATOM     14 CL   UNL     1       0.421   9.665   1.281  0.00  0.00    -0.082 Cl
ATOM     15 CL   UNL     1      -2.229   8.186   2.001  0.00  0.00    -0.082 Cl
ENDBRANCH   5   7
ENDBRANCH   1   3
BRANCH   1  16
ATOM     16  S   UNL     1      -2.439   0.957   1.303  0.00  0.00    -0.072 S 
BRANCH  16  25
ATOM     17  C   UNL     1      -0.006  -6.175   1.949  0.00  0.00    +0.066 C 
ATOM     18  C   UNL     1      -0.957  -5.012   1.833  0.00  0.00    +0.044 A 
ATOM     19  C   UNL     1      -2.338  -5.239   1.825  0.00  0.00    +0.046 A 
ATOM     20  C   UNL     1      -3.184  -4.181   1.719  0.00  0.00    +0.045 A 
ATOM     21  N   UNL     1      -2.665  -2.929   1.625  0.00  0.00    -0.200 N 
ATOM     22  C   UNL     1      -1.312  -2.741   1.636  0.00  0.00    +0.254 A 
ATOM     23  N   UNL     1      -0.486  -3.788   1.740  0.00  0.00    -0.216 NA
ATOM     24  N   UNL     1      -1.092  -1.435   1.531  0.00  0.00    -0.183 NA
ATOM     25  C   UNL     1      -2.254  -0.789   1.453  0.00  0.00    +0.212 A 
ATOM     26  N   UNL     1      -3.243  -1.658   1.512  0.00  0.00    -0.137 NA
ATOM     27  C   UNL     1      -4.676  -4.394   1.708  0.00  0.00    +0.066 C 
ENDBRANCH  16  25
ENDBRANCH   1  16
TORSDOF 4
