REMARK  Name = ZINC39687302
REMARK  10 active torsions:
REMARK  status: ('A' for Active; 'I' for Inactive)
REMARK    1  A    between atoms: C_1  and  C_2
REMARK    2  A    between atoms: C_2  and  C_3
REMARK    3  A    between atoms: C_3  and  C_5
REMARK    4  A    between atoms: C_3  and  C_6
REMARK    5  A    between atoms: C_6  and  C_7
REMARK    6  A    between atoms: C_11  and  C_20
REMARK    7  A    between atoms: N_22  and  C_23
REMARK    8  A    between atoms: C_23  and  C_25
REMARK    9  A    between atoms: C_23  and  C_32
REMARK   10  A    between atoms: C_25  and  C_26
REMARK                            x       y       z     vdW  Elec       q    Type
REMARK                         _______ _______ _______ _____ _____    ______ ____
ROOT
ATOM      1  C   UNL     1       0.262  -7.272  -2.631  0.00  0.00    +0.219 C 
ATOM      2  O   UNL     1       1.211  -7.491  -1.907  0.00  0.00    -0.275 OA
ATOM      3  N   UNL     1      -0.564  -8.277  -2.982  0.00  0.00    -0.303 N 
ATOM      4  H   UNL     1      -1.323  -8.102  -3.560  0.00  0.00    +0.149 HD
ENDROOT
BRANCH   1   9
ATOM      5  C   UNL     1       0.872  -2.394  -2.640  0.00  0.00    +0.216 C 
ATOM      6  O   UNL     1       1.407  -1.597  -3.381  0.00  0.00    -0.276 OA
ATOM      7  N   UNL     1       1.009  -3.717  -2.861  0.00  0.00    -0.300 N 
ATOM      8  C   UNL     1       0.431  -4.833  -2.077  0.00  0.00    +0.121 C 
ATOM      9  C   UNL     1       0.006  -5.875  -3.136  0.00  0.00    +0.100 C 
ATOM     10  C   UNL     1       0.891  -5.575  -4.358  0.00  0.00    -0.004 C 
ATOM     11  C   UNL     1       1.766  -4.383  -3.948  0.00  0.00    +0.115 C 
ATOM     12  C   UNL     1       0.026  -5.200  -5.557  0.00  0.00    -0.010 C 
ATOM     13  C   UNL     1       0.924  -4.962  -6.774  0.00  0.00    -0.082 C 
ATOM     14  N   UNL     1       1.693  -6.179  -7.062  0.00  0.00    +0.379 N 
ATOM     15  C   UNL     1       2.591  -6.481  -5.941  0.00  0.00    -0.082 C 
ATOM     16  C   UNL     1       1.763  -6.783  -4.689  0.00  0.00    -0.010 C 
ATOM     17  H   UNL     1       1.058  -6.951  -7.201  0.00  0.00    -0.086 HD
ATOM     18  H   UNL     1       2.238  -6.040  -7.900  0.00  0.00    -0.086 HD
BRANCH   5  19
ATOM     19  C   UNL     1       0.055  -1.906  -1.472  0.00  0.00    +0.099 C 
BRANCH  19  20
ATOM     20  C   UNL     1       0.061  -0.377  -1.448  0.00  0.00    -0.006 C 
ATOM     21  C   UNL     1       1.482   0.124  -1.184  0.00  0.00    +0.008 C 
BRANCH  20  23
ATOM     22  C   UNL     1      -0.960   1.647  -0.396  0.00  0.00    +0.004 C 
ATOM     23  C   UNL     1      -0.869   0.120  -0.339  0.00  0.00    +0.000 C 
ENDBRANCH  20  23
ENDBRANCH  19  20
ENDBRANCH   5  19
ENDBRANCH   1   9
BRANCH   3  24
ATOM     24  C   UNL     1      -0.316  -9.635  -2.490  0.00  0.00    +0.163 C 
BRANCH  24  25
ATOM     25  C   UNL     1      -0.926 -10.633  -3.439  0.00  0.00    +0.236 C 
ATOM     26  O   UNL     1      -1.768 -10.275  -4.236  0.00  0.00    -0.274 OA
ATOM     27  N   UNL     1      -0.537 -11.923  -3.404  0.00  0.00    -0.300 N 
ATOM     28  C   UNL     1       0.558 -12.350  -2.523  0.00  0.00    +0.108 C 
ATOM     29  C   UNL     1       0.067 -13.510  -1.652  0.00  0.00    +0.019 C 
ATOM     30  C   UNL     1      -0.486 -14.619  -2.551  0.00  0.00    +0.003 C 
ATOM     31  C   UNL     1      -1.672 -14.082  -3.355  0.00  0.00    +0.019 C 
ATOM     32  C   UNL     1      -1.205 -12.929  -4.240  0.00  0.00    +0.108 C 
ENDBRANCH  24  25
BRANCH  24  33
ATOM     33  C   UNL     1      -0.944  -9.798  -1.104  0.00  0.00    +0.067 C 
BRANCH  33  34
ATOM     34  C   UNL     1      -0.229  -8.909  -0.120  0.00  0.00    -0.045 A 
ATOM     35  C   UNL     1       0.870  -9.385   0.570  0.00  0.00    +0.004 A 
ATOM     36  C   UNL     1       1.526  -8.569   1.473  0.00  0.00    +0.000 A 
ATOM     37  C   UNL     1       1.084  -7.277   1.685  0.00  0.00    +0.000 A 
ATOM     38  C   UNL     1      -0.014  -6.800   0.994  0.00  0.00    +0.000 A 
ATOM     39  C   UNL     1      -0.668  -7.615   0.088  0.00  0.00    +0.004 A 
ENDBRANCH  33  34
ENDBRANCH  24  33
ENDBRANCH   3  24
TORSDOF 8
