REMARK  Name = ZINC51885029
REMARK  3 active torsions:
REMARK  status: ('A' for Active; 'I' for Inactive)
REMARK    1  A    between atoms: C_3  and  C_11
REMARK    2  A    between atoms: C_16  and  C_19
REMARK    3  A    between atoms: C_19  and  O_20
REMARK                            x       y       z     vdW  Elec       q    Type
REMARK                         _______ _______ _______ _____ _____    ______ ____
ROOT
ATOM      1  C   UNL     1      -0.012   1.589  -0.015  0.00  0.00    +0.020 C 
ATOM      2  C   UNL     1       1.433   2.093   0.011  0.00  0.00    +0.016 C 
ATOM      3  C   UNL     1       2.132   1.579   1.272  0.00  0.00    +0.093 C 
ATOM      4  C   UNL     1       2.155   0.047   1.250  0.00  0.00    +0.122 C 
ATOM      5  N   UNL     1       0.781  -0.444   1.079  0.00  0.00    -0.285 N 
ATOM      6  C   UNL     1      -0.013   0.057  -0.052  0.00  0.00    +0.109 C 
ATOM      7  C   UNL     1       0.259  -1.337   1.942  0.00  0.00    +0.300 C 
ATOM      8  O   UNL     1       0.889  -1.672   2.926  0.00  0.00    -0.253 OA
ATOM      9  N   UNL     1      -0.963  -1.860   1.714  0.00  0.00    -0.313 N 
ATOM     10  H   UNL     1      -1.434  -1.651   0.893  0.00  0.00    +0.146 HD
ATOM     11  H   UNL     1      -1.370  -2.445   2.372  0.00  0.00    +0.146 HD
ENDROOT
BRANCH   3  12
ATOM     12  C   UNL     1       3.544   2.103   1.313  0.00  0.00    +0.220 C 
ATOM     13  O   UNL     1       4.170   2.242   0.284  0.00  0.00    -0.275 OA
ATOM     14  N   UNL     1       4.112   2.417   2.495  0.00  0.00    -0.301 N 
ATOM     15  C   UNL     1       3.440   2.391   3.802  0.00  0.00    +0.108 C 
ATOM     16  C   UNL     1       4.470   2.849   4.856  0.00  0.00    +0.026 C 
ATOM     17  C   UNL     1       5.497   3.650   4.012  0.00  0.00    +0.033 C 
ATOM     18  C   UNL     1       5.511   2.838   2.690  0.00  0.00    +0.113 C 
BRANCH  17  19
ATOM     19  C   UNL     1       6.877   3.641   4.674  0.00  0.00    +0.161 C 
BRANCH  19  20
ATOM     20  O   UNL     1       6.820   4.367   5.904  0.00  0.00    -0.395 OA
ATOM     21  H   UNL     1       7.661   4.402   6.379  0.00  0.00    +0.209 HD
ENDBRANCH  19  20
ENDBRANCH  17  19
ENDBRANCH   3  12
TORSDOF 3
