REMARK  Name = ZINC52094279
REMARK  5 active torsions:
REMARK  status: ('A' for Active; 'I' for Inactive)
REMARK    1  A    between atoms: C_1  and  C_2
REMARK    2  A    between atoms: C_5  and  C_9
REMARK    3  A    between atoms: C_7  and  C_8
REMARK    4  A    between atoms: C_9  and  C_11
REMARK    5  A    between atoms: C_9  and  N_24
REMARK                            x       y       z     vdW  Elec       q    Type
REMARK                         _______ _______ _______ _____ _____    ______ ____
ROOT
ATOM      1  C   UNL     1       0.059  -4.275  -0.021  0.00  0.00    -0.012 C 
ENDROOT
BRANCH   1   2
ATOM      2  C   UNL     1      -1.335  -4.794  -0.263  0.00  0.00    -0.042 A 
ATOM      3  C   UNL     1      -1.700  -5.223  -1.525  0.00  0.00    +0.031 A 
ATOM      4  C   UNL     1      -2.982  -5.700  -1.747  0.00  0.00    +0.067 A 
ATOM      5  C   UNL     1      -3.900  -5.746  -0.695  0.00  0.00    +0.068 A 
ATOM      6  C   UNL     1      -3.525  -5.314   0.567  0.00  0.00    +0.043 A 
ATOM      7  C   UNL     1      -2.242  -4.845   0.781  0.00  0.00    +0.022 A 
ATOM      8 BR   UNL     1      -1.728  -4.263   2.505  0.00  0.00    -0.050 Br
ATOM      9  N   UNL     1      -5.083  -6.264  -1.216  0.00  0.00    -0.306 N 
ATOM     10  H   UNL     1      -5.904  -6.413  -0.721  0.00  0.00    +0.170 HD
ATOM     11  C   UNL     1      -4.895  -6.521  -2.524  0.00  0.00    +0.325 A 
ATOM     12  O   UNL     1      -5.734  -6.981  -3.276  0.00  0.00    -0.247 OA
ATOM     13  N   UNL     1      -3.637  -6.192  -2.874  0.00  0.00    -0.306 N 
ATOM     14  H   UNL     1      -3.253  -6.281  -3.760  0.00  0.00    +0.170 HD
ENDBRANCH   1   2
BRANCH   1  19
ATOM     15  C   UNL     1      -0.018   1.503   0.010  0.00  0.00    +0.044 C 
ATOM     16  C   UNL     1       0.002  -0.004   0.002  0.00  0.00    -0.048 A 
ATOM     17  C   UNL     1       0.006  -0.689  -1.199  0.00  0.00    +0.004 A 
ATOM     18  C   UNL     1       0.025  -2.071  -1.207  0.00  0.00    +0.002 A 
ATOM     19  C   UNL     1       0.040  -2.768  -0.013  0.00  0.00    -0.057 A 
ATOM     20  C   UNL     1       0.037  -2.084   1.188  0.00  0.00    +0.006 A 
ATOM     21  C   UNL     1       0.023  -0.702   1.195  0.00  0.00    -0.047 A 
ATOM     22  C   UNL     1       0.025   0.045   2.504  0.00  0.00    +0.044 C 
ENDBRANCH   1  19
BRANCH   1  23
ATOM     23  N   UNL     1       0.950  -4.748  -1.090  0.00  0.00    +0.385 N 
ATOM     24  H   UNL     1       0.963  -5.757  -1.095  0.00  0.00    -0.089 HD
ATOM     25  H   UNL     1       0.615  -4.411  -1.980  0.00  0.00    -0.089 HD
ATOM     26  H   UNL     1       1.883  -4.400  -0.928  0.00  0.00    -0.089 HD
ENDBRANCH   1  23
TORSDOF 3
