REMARK  Name = ZINC35700620
REMARK  8 active torsions:
REMARK  status: ('A' for Active; 'I' for Inactive)
REMARK    1  A    between atoms: C_1  and  C_2
REMARK    2  A    between atoms: C_2  and  C_4
REMARK    3  A    between atoms: C_2  and  N_15
REMARK    4  A    between atoms: N_6  and  C_7
REMARK    5  A    between atoms: C_9  and  N_14
REMARK    6  A    between atoms: N_15  and  C_16
REMARK    7  A    between atoms: N_15  and  C_17
REMARK    8  A    between atoms: C_17  and  C_18
REMARK                            x       y       z     vdW  Elec       q    Type
REMARK                         _______ _______ _______ _____ _____    ______ ____
ROOT
ATOM      1  C   UNL     1       0.884  -0.395   1.044  0.00  0.00    +0.203 C 
ATOM      2  O   UNL     1       1.863  -1.046   0.747  0.00  0.00    -0.277 OA
ATOM      3  N   UNL     1       0.599  -0.160   2.340  0.00  0.00    -0.284 N 
ATOM      4  H   UNL     1      -0.222   0.299   2.581  0.00  0.00    +0.155 HD
ENDROOT
BRANCH   3   5
ATOM      5  C   UNL     1       1.486  -0.578   3.339  0.00  0.00    +0.071 A 
ATOM      6  C   UNL     1       2.810  -0.848   3.024  0.00  0.00    +0.049 A 
ATOM      7  C   UNL     1       3.687  -1.261   4.017  0.00  0.00    +0.026 A 
ATOM      8  C   UNL     1       3.237  -1.404   5.324  0.00  0.00    +0.025 A 
ATOM      9  C   UNL     1       1.919  -1.134   5.636  0.00  0.00    +0.042 A 
ATOM     10  C   UNL     1       1.043  -0.717   4.650  0.00  0.00    +0.145 A 
ATOM     11  F   UNL     1      -0.244  -0.449   4.960  0.00  0.00    -0.204 F 
BRANCH   7  12
ATOM     12  N   UNL     1       5.021  -1.534   3.702  0.00  0.00    -0.358 N 
ATOM     13  H   UNL     1       5.335  -1.435   2.790  0.00  0.00    +0.142 HD
ATOM     14  H   UNL     1       5.634  -1.823   4.397  0.00  0.00    +0.142 HD
ENDBRANCH   7  12
ENDBRANCH   3   5
BRANCH   1  16
ATOM     15  C   UNL     1       0.439   1.567  -0.407  0.00  0.00    -0.004 C 
ATOM     16  C   UNL     1      -0.013   0.153  -0.036  0.00  0.00    +0.017 C 
BRANCH  16  17
ATOM     17  N   UNL     1       0.064  -0.712  -1.221  0.00  0.00    +0.390 N 
ATOM     18  C   UNL     1      -0.435  -2.052  -0.883  0.00  0.00    -0.095 C 
ATOM     19  H   UNL     1       1.023  -0.778  -1.528  0.00  0.00    -0.081 HD
BRANCH  17  20
ATOM     20  C   UNL     1      -0.757  -0.142  -2.298  0.00  0.00    -0.003 C 
BRANCH  20  21
ATOM     21  C   UNL     1      -0.582  -0.961  -3.551  0.00  0.00    +0.089 A 
ATOM     22  C   UNL     1      -1.328  -2.021  -3.908  0.00  0.00    +0.042 A 
ATOM     23  C   UNL     1      -0.820  -2.482  -5.145  0.00  0.00    +0.041 A 
ATOM     24  C   UNL     1       0.206  -1.675  -5.469  0.00  0.00    +0.195 A 
ATOM     25  O   UNL     1       0.343  -0.752  -4.503  0.00  0.00    -0.470 OA
ENDBRANCH  20  21
ENDBRANCH  17  20
ENDBRANCH  16  17
ENDBRANCH   1  16
TORSDOF 6
