REMARK  Name = ZINC54969041
REMARK  3 active torsions:
REMARK  status: ('A' for Active; 'I' for Inactive)
REMARK    1  A    between atoms: C_1  and  N_2
REMARK    2  A    between atoms: C_3  and  C_8
REMARK    3  A    between atoms: C_11  and  C_15
REMARK                            x       y       z     vdW  Elec       q    Type
REMARK                         _______ _______ _______ _____ _____    ______ ____
ROOT
ATOM      1  C   UNK     1      -0.006  -0.323  -2.526  0.00  0.00    +0.163 C 
ATOM      2  N   UNK     1       0.842  -1.194  -3.370  0.00  0.00    -0.287 NA
ATOM      3  C   UNK     1       2.053  -0.574  -3.913  0.00  0.00    +0.179 C 
ATOM      4  C   UNK     1       1.829   0.945  -4.170  0.00  0.00    +0.101 C 
ATOM      5  S   UNK     1       0.798   1.328  -2.678  0.00  0.00    -0.134 S 
ATOM      6  H   UNK     1       1.059  -2.057  -2.895  0.00  0.00    +0.124 HD
ENDROOT
BRANCH   1   9
ATOM      7  C   UNK     1       2.489  -0.712  -0.727  0.00  0.00    +0.172 C 
ATOM      8  N   UNK     1       1.103  -0.957  -0.321  0.00  0.00    -0.268 N 
ATOM      9  C   UNK     1       0.008  -0.792  -1.094  0.00  0.00    +0.080 A 
ATOM     10  C   UNK     1      -1.075  -1.124  -0.352  0.00  0.00    +0.061 A 
ATOM     11  C   UNK     1      -0.626  -1.504   0.918  0.00  0.00    +0.150 A 
ATOM     12  N   UNK     1       0.679  -1.409   0.935  0.00  0.00    -0.178 NA
ATOM     13 BR   UNK     1      -2.875  -1.080  -0.929  0.00  0.00    -0.047 Br
ENDBRANCH   1   9
BRANCH   3  14
ATOM     14  C   UNK     1       2.414  -1.248  -5.212  0.00  0.00    +0.373 C 
ATOM     15  O   UNK     1       1.646  -2.046  -5.719  0.00  0.00    -0.245 OA
ATOM     16  O   UNK     1       3.476  -0.994  -5.755  0.00  0.00    -0.245 OA
ENDBRANCH   3  14
TORSDOF 2
