REMARK  Name = ZINC01058515
REMARK  8 active torsions:
REMARK  status: ('A' for Active; 'I' for Inactive)
REMARK    1  A    between atoms: C_4  and  C_7
REMARK    2  A    between atoms: C_7  and  C_8
REMARK    3  A    between atoms: C_8  and  C_10
REMARK    4  A    between atoms: C_8  and  N_13
REMARK    5  A    between atoms: C_14  and  C_16
REMARK    6  A    between atoms: C_21  and  S_22
REMARK    7  A    between atoms: S_22  and  C_23
REMARK    8  A    between atoms: C_28  and  C_29
REMARK                            x       y       z     vdW  Elec       q    Type
REMARK                         _______ _______ _______ _____ _____    ______ ____
ROOT
ATOM      1  N   UNL     1      -4.031   3.021  -2.171  0.00  0.00    -0.300 N 
ATOM      2  C   UNL     1      -3.727   2.870  -3.475  0.00  0.00    +0.246 C 
ATOM      3  O   UNL     1      -3.356   3.827  -4.128  0.00  0.00    -0.270 OA
ATOM      4  H   UNL     1      -4.327   2.258  -1.650  0.00  0.00    +0.150 HD
ENDROOT
BRANCH   2   5
ATOM      5  C   UNL     1      -3.844   1.545  -4.110  0.00  0.00    +0.050 A 
ATOM      6  C   UNL     1      -4.264   0.442  -3.363  0.00  0.00    +0.014 A 
ATOM      7  C   UNL     1      -4.376  -0.793  -3.964  0.00  0.00    +0.001 A 
ATOM      8  C   UNL     1      -4.064  -0.950  -5.306  0.00  0.00    +0.001 A 
ATOM      9  C   UNL     1      -3.642   0.128  -6.056  0.00  0.00    +0.016 A 
ATOM     10  C   UNL     1      -3.528   1.383  -5.469  0.00  0.00    +0.025 A 
BRANCH  10  11
ATOM     11  S   UNL     1      -2.990   2.762  -6.424  0.00  0.00    -0.087 S 
BRANCH  11  12
ATOM     12  C   UNL     1      -2.878   2.127  -8.064  0.00  0.00    +0.030 A 
ATOM     13  C   UNL     1      -1.637   1.830  -8.614  0.00  0.00    +0.016 A 
ATOM     14  C   UNL     1      -1.552   1.327  -9.897  0.00  0.00    +0.001 A 
ATOM     15  C   UNL     1      -2.699   1.125 -10.649  0.00  0.00    +0.001 A 
ATOM     16  C   UNL     1      -3.938   1.419 -10.122  0.00  0.00    +0.020 A 
ATOM     17  C   UNL     1      -4.041   1.923  -8.823  0.00  0.00    +0.065 A 
BRANCH  17  18
ATOM     18  C   UNL     1      -5.326   2.232  -8.270  0.00  0.00    +0.100 C 
ATOM     19  N   UNL     1      -6.345   2.476  -7.832  0.00  0.00    -0.191 NA
ENDBRANCH  17  18
ENDBRANCH  11  12
ENDBRANCH  10  11
ENDBRANCH   2   5
BRANCH   1  20
ATOM     20  C   UNL     1      -3.915   4.338  -1.539  0.00  0.00    +0.163 C 
BRANCH  20  21
ATOM     21  C   UNL     1      -5.180   5.122  -1.776  0.00  0.00    +0.231 C 
ATOM     22  O   UNL     1      -6.089   4.630  -2.410  0.00  0.00    -0.274 OA
ATOM     23  N   UNL     1      -5.301   6.371  -1.284  0.00  0.00    -0.328 N 
ATOM     24  H   UNL     1      -4.574   6.765  -0.777  0.00  0.00    +0.145 HD
ATOM     25  H   UNL     1      -6.115   6.875  -1.436  0.00  0.00    +0.145 HD
ENDBRANCH  20  21
BRANCH  20  26
ATOM     26  C   UNL     1      -3.697   4.165  -0.035  0.00  0.00    +0.067 C 
BRANCH  26  30
ATOM     27  C   UNL     1       0.060   2.249   0.648  0.00  0.00    +0.000 A 
ATOM     28  C   UNL     1      -1.085   1.490   0.492  0.00  0.00    +0.000 A 
ATOM     29  C   UNL     1      -2.300   2.110   0.265  0.00  0.00    +0.004 A 
ATOM     30  C   UNL     1      -2.371   3.489   0.206  0.00  0.00    -0.045 A 
ATOM     31  C   UNL     1      -1.226   4.248   0.361  0.00  0.00    +0.004 A 
ATOM     32  C   UNL     1      -0.011   3.628   0.583  0.00  0.00    +0.000 A 
ENDBRANCH  26  30
ENDBRANCH  20  26
ENDBRANCH   1  20
TORSDOF 8
