REMARK  Name = ZINC23813830
REMARK  6 active torsions:
REMARK  status: ('A' for Active; 'I' for Inactive)
REMARK    1  A    between atoms: C_1  and  C_2
REMARK    2  A    between atoms: C_8  and  N_10
REMARK    3  A    between atoms: C_14  and  C_16
REMARK    4  A    between atoms: C_16  and  N_17
REMARK    5  A    between atoms: N_20  and  S_23
REMARK    6  A    between atoms: S_23  and  C_26
REMARK                            x       y       z     vdW  Elec       q    Type
REMARK                         _______ _______ _______ _____ _____    ______ ____
ROOT
ATOM      1  N   UNL     1       0.865  -6.395  -5.100  0.00  0.00    +0.387 N 
ATOM      2  C   UNL     1      -0.440  -6.298  -5.768  0.00  0.00    -0.061 C 
ATOM      3  C   UNL     1      -0.272  -6.610  -7.258  0.00  0.00    +0.091 C 
ATOM      4  N   UNL     1       0.399  -7.912  -7.390  0.00  0.00    -0.180 NA
ATOM      5  C   UNL     1       1.645  -8.132  -6.639  0.00  0.00    +0.091 C 
ATOM      6  C   UNL     1       1.401  -7.760  -5.173  0.00  0.00    -0.061 C 
ATOM      7  H   UNL     1       1.563  -5.732  -5.633  0.00  0.00    -0.081 HD
ENDROOT
BRANCH   4   8
ATOM      8  S   UNL     1      -0.231  -9.099  -8.358  0.00  0.00    +0.062 S 
ATOM      9  O   UNL     1      -0.894  -8.441  -9.428  0.00  0.00    -0.153 OA
ATOM     10  O   UNL     1       0.810 -10.043  -8.573  0.00  0.00    -0.153 OA
BRANCH   8  11
ATOM     11  C   UNL     1      -1.476  -9.925  -7.426  0.00  0.00    +0.125 A 
ATOM     12  C   UNL     1      -2.804  -9.818  -7.798  0.00  0.00    +0.030 A 
ATOM     13  C   UNL     1      -3.781 -10.466  -7.066  0.00  0.00    +0.003 A 
ATOM     14  C   UNL     1      -3.433 -11.222  -5.962  0.00  0.00    +0.021 A 
ATOM     15  C   UNL     1      -2.106 -11.330  -5.588  0.00  0.00    +0.061 A 
ATOM     16  C   UNL     1      -1.126 -10.686  -6.325  0.00  0.00    +0.086 A 
ATOM     17 CL   UNL     1       0.541 -10.827  -5.862  0.00  0.00    -0.080 Cl
ATOM     18 CL   UNL     1      -1.669 -12.278  -4.202  0.00  0.00    -0.082 Cl
ENDBRANCH   8  11
ENDBRANCH   4   8
BRANCH   1  19
ATOM     19  C   UNL     1       0.779  -5.936  -3.707  0.00  0.00    +0.019 C 
BRANCH  19  24
ATOM     20  N   UNL     1      -0.074  -1.863  -1.301  0.00  0.00    -0.296 N 
ATOM     21  C   UNL     1       0.053  -2.504  -2.480  0.00  0.00    +0.306 C 
ATOM     22  O   UNL     1      -0.087  -1.895  -3.522  0.00  0.00    -0.252 OA
ATOM     23  N   UNL     1       0.336  -3.822  -2.503  0.00  0.00    -0.242 N 
ATOM     24  C   UNL     1       0.463  -4.463  -3.681  0.00  0.00    +0.204 C 
ATOM     25  O   UNL     1       0.323  -3.855  -4.721  0.00  0.00    -0.277 OA
ATOM     26  H   UNL     1       0.052  -2.415  -0.358  0.00  0.00    +0.151 HD
ATOM     27  H   UNL     1       0.463  -4.374  -1.560  0.00  0.00    +0.159 HD
BRANCH  20  34
ATOM     28  C   UNL     1      -2.365  -0.882   0.174  0.00  0.00    +0.009 C 
ATOM     29  C   UNL     1      -1.069  -0.079   0.045  0.00  0.00    +0.006 C 
ATOM     30  C   UNL     1      -1.390   1.416   0.071  0.00  0.00    +0.005 C 
ATOM     31  C   UNL     1      -0.094   2.218  -0.059  0.00  0.00    +0.000 C 
ATOM     32  C   UNL     1       0.594   1.867  -1.380  0.00  0.00    +0.002 C 
ATOM     33  C   UNL     1       0.915   0.372  -1.406  0.00  0.00    +0.022 C 
ATOM     34  C   UNL     1      -0.382  -0.431  -1.276  0.00  0.00    +0.077 C 
ENDBRANCH  20  34
ENDBRANCH  19  24
ENDBRANCH   1  19
TORSDOF 5
