REMARK  Name = ZINC66427486
REMARK  6 active torsions:
REMARK  status: ('A' for Active; 'I' for Inactive)
REMARK    1  A    between atoms: C_3  and  C_6
REMARK    2  A    between atoms: N_8  and  C_9
REMARK    3  A    between atoms: C_12  and  C_14
REMARK    4  A    between atoms: N_16  and  C_17
REMARK    5  A    between atoms: C_17  and  C_18
REMARK    6  A    between atoms: C_22  and  C_24
REMARK                            x       y       z     vdW  Elec       q    Type
REMARK                         _______ _______ _______ _____ _____    ______ ____
ROOT
ATOM      1  C   UNL     1       9.565   0.329  -0.083  0.00  0.00    +0.251 C 
ATOM      2  O   UNL     1      10.510  -0.439  -0.100  0.00  0.00    -0.270 OA
ATOM      3  N   UNL     1       9.777   1.659  -0.072  0.00  0.00    -0.304 N 
ATOM      4  H   UNL     1       9.024   2.271  -0.058  0.00  0.00    +0.149 HD
ENDROOT
BRANCH   1   8
ATOM      5  C   UNL     1       5.593  -0.598  -0.055  0.00  0.00    +0.073 A 
ATOM      6  C   UNL     1       6.413  -1.703  -0.074  0.00  0.00    +0.032 A 
ATOM      7  C   UNL     1       7.770  -1.514  -0.085  0.00  0.00    +0.022 A 
ATOM      8  C   UNL     1       8.200  -0.193  -0.076  0.00  0.00    +0.076 A 
ATOM      9  S   UNL     1       6.658   0.701  -0.058  0.00  0.00    -0.069 S 
BRANCH   5  12
ATOM     10  C   UNL     1       3.560   0.619  -0.029  0.00  0.00    +0.284 C 
ATOM     11  O   UNL     1       4.194   1.658  -0.029  0.00  0.00    -0.266 OA
ATOM     12  N   UNL     1       4.206  -0.564  -0.041  0.00  0.00    -0.273 N 
ATOM     13  H   UNL     1       3.700  -1.392  -0.041  0.00  0.00    +0.156 HD
BRANCH  10  16
ATOM     14  C   UNL     1      -0.016   1.347   0.009  0.00  0.00    +0.042 A 
ATOM     15  C   UNL     1       1.319   1.778  -0.001  0.00  0.00    +0.054 A 
ATOM     16  C   UNL     1       2.095   0.654  -0.014  0.00  0.00    +0.189 A 
ATOM     17  O   UNL     1       1.276  -0.418  -0.012  0.00  0.00    -0.458 OA
ATOM     18  C   UNL     1       0.002  -0.004   0.002  0.00  0.00    +0.196 A 
ENDBRANCH  10  16
ENDBRANCH   5  12
ENDBRANCH   1   8
BRANCH   3  19
ATOM     19  C   UNL     1      11.146   2.183  -0.079  0.00  0.00    +0.180 C 
BRANCH  19  20
ATOM     20  C   UNL     1      11.107   3.689  -0.063  0.00  0.00    +0.143 A 
ATOM     21  N   UNL     1      11.198   4.468   1.030  0.00  0.00    -0.261 N 
ATOM     22  H   UNL     1      11.300   4.170   1.947  0.00  0.00    +0.190 HD
ATOM     23  N   UNL     1      11.118   5.796   0.583  0.00  0.00    -0.152 NA
ATOM     24  C   UNL     1      10.986   5.747  -0.727  0.00  0.00    +0.188 A 
ATOM     25  N   UNL     1      10.986   4.462  -1.110  0.00  0.00    -0.209 NA
BRANCH  24  26
ATOM     26  C   UNL     1      10.865   6.915  -1.625  0.00  0.00    +0.058 A 
ATOM     27  C   UNL     1      10.868   8.248  -1.313  0.00  0.00    +0.019 A 
ATOM     28  C   UNL     1      10.739   9.167  -2.332  0.00  0.00    +0.008 A 
ATOM     29  C   UNL     1      10.614   8.726  -3.609  0.00  0.00    +0.046 A 
ATOM     30  S   UNL     1      10.684   6.954  -3.401  0.00  0.00    -0.093 S 
ENDBRANCH  24  26
ENDBRANCH  19  20
ENDBRANCH   3  19
TORSDOF 6
