REMARK  Name = ZINC38937080
REMARK  4 active torsions:
REMARK  status: ('A' for Active; 'I' for Inactive)
REMARK    1  A    between atoms: C_4  and  C_7
REMARK    2  A    between atoms: N_13  and  N_14
REMARK    3  A    between atoms: C_15  and  C_16
REMARK    4  A    between atoms: C_21  and  O_22
REMARK                            x       y       z     vdW  Elec       q    Type
REMARK                         _______ _______ _______ _____ _____    ______ ____
ROOT
ATOM      1  C   UNL     1       3.834  -0.776   0.036  0.00  0.00    +0.264 C 
ATOM      2  N   UNL     1       4.705   0.053  -0.810  0.00  0.00    -0.189 NA
ATOM      3  N   UNL     1       4.867  -0.532  -1.884  0.00  0.00    -0.219 N 
ATOM      4  C   UNL     1       4.214  -1.723  -1.953  0.00  0.00    +0.174 C 
ATOM      5  S   UNL     1       4.235  -2.776  -3.303  0.00  0.00    -0.015 S 
ATOM      6  N   UNL     1       3.545  -1.956  -0.799  0.00  0.00    -0.172 N 
ATOM      7  H   UNL     1       5.408  -0.179  -2.607  0.00  0.00    +0.176 HD
ENDROOT
BRANCH   1  11
ATOM      8  C   UNL     1       0.229   1.315   0.976  0.00  0.00    +0.000 A 
ATOM      9  C   UNL     1       1.415   2.011   0.833  0.00  0.00    +0.000 A 
ATOM     10  C   UNL     1       2.581   1.335   0.529  0.00  0.00    +0.007 A 
ATOM     11  C   UNL     1       2.562  -0.038   0.369  0.00  0.00    -0.002 A 
ATOM     12  C   UNL     1       1.377  -0.735   0.513  0.00  0.00    +0.007 A 
ATOM     13  C   UNL     1       0.210  -0.058   0.816  0.00  0.00    +0.000 A 
ENDBRANCH   1  11
BRANCH   6  14
ATOM     14  N   UNL     1       2.755  -3.066  -0.470  0.00  0.00    -0.183 NA
ATOM     15  C   UNL     1       2.690  -4.080  -1.281  0.00  0.00    +0.142 C 
BRANCH  15  16
ATOM     16  C   UNL     1       1.738  -5.173  -1.018  0.00  0.00    +0.038 A 
ATOM     17  C   UNL     1       1.669  -6.267  -1.884  0.00  0.00    +0.028 A 
ATOM     18  C   UNL     1       0.776  -7.288  -1.633  0.00  0.00    +0.020 A 
ATOM     19  C   UNL     1      -0.053  -7.233  -0.524  0.00  0.00    +0.034 A 
ATOM     20  C   UNL     1       0.005  -6.155   0.340  0.00  0.00    +0.061 A 
ATOM     21  C   UNL     1       0.901  -5.124   0.105  0.00  0.00    +0.139 A 
ATOM     22 BR   UNL     1      -1.133  -6.091   1.849  0.00  0.00    -0.046 Br
ATOM     23 BR   UNL     1       0.683  -8.768  -2.805  0.00  0.00    -0.050 Br
BRANCH  21  24
ATOM     24  O   UNL     1       0.964  -4.067   0.956  0.00  0.00    -0.505 OA
ATOM     25  H   UNL     1       0.368  -3.341   0.727  0.00  0.00    +0.292 HD
ENDBRANCH  21  24
ENDBRANCH  15  16
ENDBRANCH   6  14
TORSDOF 4
