REMARK  Name = ZINC18996973
REMARK  5 active torsions:
REMARK  status: ('A' for Active; 'I' for Inactive)
REMARK    1  A    between atoms: C_1  and  C_2
REMARK    2  A    between atoms: C_2  and  C_3
REMARK    3  A    between atoms: C_3  and  O_4
REMARK    4  A    between atoms: O_4  and  C_5
REMARK    5  A    between atoms: C_6  and  C_13
REMARK                            x       y       z     vdW  Elec       q    Type
REMARK                         _______ _______ _______ _____ _____    ______ ____
ROOT
ATOM      1  C   UNL     1       0.858   2.982   0.035  0.00  0.00    +0.142 A 
ATOM      2  C   UNL     1       1.140   1.637  -0.268  0.00  0.00    +0.020 A 
ATOM      3  C   UNL     1       0.134   0.826  -0.815  0.00  0.00    +0.027 A 
ATOM      4  C   UNL     1      -1.115   1.352  -1.055  0.00  0.00    +0.020 A 
ATOM      5  C   UNL     1      -1.389   2.678  -0.749  0.00  0.00    +0.034 A 
ATOM      6  C   UNL     1      -0.409   3.489  -0.210  0.00  0.00    +0.061 A 
ATOM      7 BR   UNL     1      -0.797   5.295   0.195  0.00  0.00    -0.046 Br
ATOM      8 BR   UNL     1      -2.468   0.261  -1.799  0.00  0.00    -0.050 Br
ENDROOT
BRANCH   2   9
ATOM      9  C   UNL     1       2.471   1.088  -0.016  0.00  0.00    +0.030 C 
ATOM     10  C   UNL     1       2.609  -0.107   0.663  0.00  0.00    +0.100 C 
ATOM     11  C   UNL     1       1.460  -0.753   1.329  0.00  0.00    +0.256 C 
ATOM     12  O   UNL     1       0.355  -0.246   1.298  0.00  0.00    -0.270 OA
ATOM     13  N   UNL     1       1.669  -1.922   1.968  0.00  0.00    -0.236 N 
ATOM     14  C   UNL     1       2.883  -2.488   2.015  0.00  0.00    +0.313 C 
ATOM     15  O   UNL     1       3.004  -3.540   2.612  0.00  0.00    -0.252 OA
ATOM     16  N   UNL     1       3.971  -1.957   1.440  0.00  0.00    -0.236 N 
ATOM     17  C   UNL     1       3.913  -0.793   0.760  0.00  0.00    +0.256 C 
ATOM     18  O   UNL     1       4.907  -0.322   0.242  0.00  0.00    -0.270 OA
ATOM     19  H   UNL     1       0.924  -2.361   2.407  0.00  0.00    +0.159 HD
ATOM     20  H   UNL     1       4.819  -2.421   1.513  0.00  0.00    +0.159 HD
ENDBRANCH   2   9
BRANCH   1  21
ATOM     21  O   UNL     1       1.820   3.777   0.565  0.00  0.00    -0.490 OA
BRANCH  21  22
ATOM     22  C   UNL     1       2.644   4.499  -0.353  0.00  0.00    +0.229 C 
BRANCH  22  24
ATOM     23  C   UNL     1       4.545   6.107  -0.560  0.00  0.00    +0.007 C 
ATOM     24  C   UNL     1       3.663   5.335   0.423  0.00  0.00    +0.038 C 
ENDBRANCH  22  24
ENDBRANCH  21  22
ENDBRANCH   1  21
TORSDOF 4
