REMARK  Name = ZINC37350133
REMARK  3 active torsions:
REMARK  status: ('A' for Active; 'I' for Inactive)
REMARK    1  A    between atoms: C_6  and  C_7
REMARK    2  A    between atoms: C_8  and  C_13
REMARK    3  A    between atoms: C_11  and  N_12
REMARK                            x       y       z     vdW  Elec       q    Type
REMARK                         _______ _______ _______ _____ _____    ______ ____
ROOT
ATOM      1  C   UNL     1      -1.269  -0.765   0.011  0.00  0.00    +0.074 A 
ATOM      2  C   UNL     1      -1.757  -1.642   1.079  0.00  0.00    +0.158 A 
ATOM      3  N   UNL     1      -2.918  -2.118   0.688  0.00  0.00    -0.072 NA
ATOM      4  O   UNL     1      -3.218  -1.595  -0.590  0.00  0.00    -0.339 OA
ATOM      5  C   UNL     1      -2.226  -0.781  -0.983  0.00  0.00    +0.224 A 
ENDROOT
BRANCH   1  11
ATOM      6  C   UNL     1      -0.017   1.391   0.010  0.00  0.00    +0.010 A 
ATOM      7  C   UNL     1       1.170   2.094   0.002  0.00  0.00    +0.016 A 
ATOM      8  C   UNL     1       2.378   1.418  -0.013  0.00  0.00    +0.018 A 
ATOM      9  C   UNL     1       2.403   0.034  -0.021  0.00  0.00    +0.016 A 
ATOM     10  C   UNL     1       1.222  -0.680  -0.014  0.00  0.00    +0.010 A 
ATOM     11  C   UNL     1       0.002  -0.004   0.002  0.00  0.00    -0.011 A 
ATOM     12 BR   UNL     1       4.001   2.389  -0.023  0.00  0.00    -0.050 Br
ENDBRANCH   1  11
BRANCH   2  13
ATOM     13  C   UNL     1      -1.073  -1.936   2.354  0.00  0.00    +0.159 A 
ATOM     14  C   UNL     1      -1.678  -2.148   3.554  0.00  0.00    +0.053 A 
ATOM     15  C   UNL     1      -0.653  -2.391   4.488  0.00  0.00    +0.057 A 
ATOM     16  C   UNL     1       0.517  -2.317   3.820  0.00  0.00    +0.171 A 
ATOM     17  O   UNL     1       0.258  -2.047   2.530  0.00  0.00    -0.447 OA
ATOM     18 BR   UNL     1       2.235  -2.559   4.572  0.00  0.00    -0.008 Br
ENDBRANCH   2  13
BRANCH   5  19
ATOM     19  N   UNL     1      -2.172  -0.085  -2.173  0.00  0.00    -0.327 N 
ATOM     20  H   UNL     1      -1.408   0.480  -2.370  0.00  0.00    +0.145 HD
ATOM     21  H   UNL     1      -2.897  -0.160  -2.812  0.00  0.00    +0.145 HD
ENDBRANCH   5  19
TORSDOF 3
