REMARK  Name = ZINC48990371
REMARK  4 active torsions:
REMARK  status: ('A' for Active; 'I' for Inactive)
REMARK    1  A    between atoms: C_1  and  C_2
REMARK    2  A    between atoms: C_6  and  N_20
REMARK    3  A    between atoms: C_7  and  C_12
REMARK    4  A    between atoms: N_20  and  C_21
REMARK                            x       y       z     vdW  Elec       q    Type
REMARK                         _______ _______ _______ _____ _____    ______ ____
ROOT
ATOM      1  C   UNL     1      -3.666  -1.952   3.366  0.00  0.00    +0.065 C 
ATOM      2  C   UNL     1      -2.595  -2.583   2.514  0.00  0.00    +0.041 A 
ATOM      3  C   UNL     1      -2.969  -3.346   1.412  0.00  0.00    +0.024 A 
ATOM      4  C   UNL     1      -2.006  -3.924   0.629  0.00  0.00    +0.015 A 
ATOM      5  C   UNL     1      -0.661  -3.721   0.975  0.00  0.00    +0.041 A 
ATOM      6  C   UNL     1       0.388  -4.287   0.212  0.00  0.00    +0.056 A 
ATOM      7  C   UNL     1       1.705  -4.034   0.627  0.00  0.00    +0.077 A 
ATOM      8  C   UNL     1       1.925  -3.243   1.764  0.00  0.00    +0.128 A 
ATOM      9  N   UNL     1       0.933  -2.732   2.450  0.00  0.00    -0.235 NA
ATOM     10  C   UNL     1      -0.347  -2.934   2.108  0.00  0.00    +0.162 A 
ATOM     11  N   UNL     1      -1.335  -2.394   2.828  0.00  0.00    -0.232 NA
ENDROOT
BRANCH   7  12
ATOM     12  C   UNL     1       2.842  -4.594  -0.123  0.00  0.00    +0.250 C 
ATOM     13  O   UNL     1       3.487  -5.512   0.347  0.00  0.00    -0.270 OA
ATOM     14  N   UNL     1       3.168  -4.089  -1.329  0.00  0.00    -0.297 N 
ATOM     15  C   UNL     1       2.439  -2.939  -1.881  0.00  0.00    +0.108 C 
ATOM     16  C   UNL     1       3.449  -1.852  -2.261  0.00  0.00    +0.019 C 
ATOM     17  C   UNL     1       4.498  -2.442  -3.205  0.00  0.00    +0.003 C 
ATOM     18  C   UNL     1       5.249  -3.571  -2.494  0.00  0.00    +0.019 C 
ATOM     19  C   UNL     1       4.264  -4.674  -2.114  0.00  0.00    +0.108 C 
ENDBRANCH   7  12
BRANCH   6  20
ATOM     20  N   UNL     1       0.125  -5.059  -0.897  0.00  0.00    -0.313 N 
ATOM     21  H   UNL     1      -0.008  -4.637  -1.761  0.00  0.00    +0.152 HD
BRANCH  20  22
ATOM     22  C   UNL     1       0.051  -6.449  -0.780  0.00  0.00    +0.032 A 
ATOM     23  C   UNL     1       0.071  -7.045   0.475  0.00  0.00    +0.023 A 
ATOM     24  C   UNL     1      -0.003  -8.418   0.586  0.00  0.00    +0.006 A 
ATOM     25  C   UNL     1      -0.097  -9.207  -0.550  0.00  0.00    -0.044 A 
ATOM     26  C   UNL     1      -0.117  -8.617  -1.801  0.00  0.00    -0.042 A 
ATOM     27  C   UNL     1      -0.049  -7.240  -1.916  0.00  0.00    +0.027 A 
ATOM     28  C   UNL     1      -0.223  -9.685  -2.868  0.00  0.00    +0.036 C 
ATOM     29  C   UNL     1       0.175 -11.000  -2.164  0.00  0.00    +0.009 C 
ATOM     30  C   UNL     1      -0.188 -10.711  -0.692  0.00  0.00    +0.036 C 
ENDBRANCH  20  22
ENDBRANCH   6  20
TORSDOF 3
