REMARK  Name = ZINC31773760
REMARK  7 active torsions:
REMARK  status: ('A' for Active; 'I' for Inactive)
REMARK    1  A    between atoms: C_1  and  C_2
REMARK    2  A    between atoms: C_5  and  N_9
REMARK    3  A    between atoms: N_19  and  C_23
REMARK    4  A    between atoms: C_23  and  C_24
REMARK    5  A    between atoms: C_24  and  C_25
REMARK    6  A    between atoms: C_28  and  S_31
REMARK    7  A    between atoms: S_31  and  N_34
REMARK                            x       y       z     vdW  Elec       q    Type
REMARK                         _______ _______ _______ _____ _____    ______ ____
ROOT
ATOM      1  N   UNL     1       0.763  -0.298   2.325  0.00  0.00    -0.270 N 
ATOM      2  C   UNL     1       1.137  -0.430   0.922  0.00  0.00    +0.090 C 
ATOM      3  C   UNL     1       2.412   0.409   0.663  0.00  0.00    +0.187 C 
ATOM      4  S   UNL     1       1.730   2.009   0.066  0.00  0.00    -0.031 S 
ATOM      5  O   UNL     1       2.156   2.222  -1.273  0.00  0.00    -0.174 OA
ATOM      6  O   UNL     1       1.972   3.009   1.046  0.00  0.00    -0.174 OA
ATOM      7  C   UNL     1      -0.066   1.594   0.064  0.00  0.00    +0.152 C 
ATOM      8  C   UNL     1       0.000   0.043   0.009  0.00  0.00    -0.024 C 
ATOM      9  N   UNL     1      -1.278  -0.503   0.479  0.00  0.00    +0.390 N 
ATOM     10  C   UNL     1      -1.639   0.068   1.783  0.00  0.00    +0.020 C 
ATOM     11  C   UNL     1      -0.489  -0.083   2.738  0.00  0.00    +0.203 C 
ATOM     12  O   UNL     1      -0.706  -0.006   3.929  0.00  0.00    -0.277 OA
ATOM     13  H   UNL     1      -1.158  -1.589   0.603  0.00  0.00    -0.081 HD
ENDROOT
BRANCH   1  18
ATOM     14  C   UNL     1       4.846  -0.718   6.244  0.00  0.00    +0.045 C 
ATOM     15  C   UNL     1       3.762  -0.606   5.203  0.00  0.00    -0.032 A 
ATOM     16  C   UNL     1       3.121   0.602   5.000  0.00  0.00    +0.006 A 
ATOM     17  C   UNL     1       2.127   0.707   4.047  0.00  0.00    +0.024 A 
ATOM     18  C   UNL     1       1.770  -0.402   3.291  0.00  0.00    +0.038 A 
ATOM     19  C   UNL     1       2.411  -1.616   3.500  0.00  0.00    +0.043 A 
ATOM     20  C   UNL     1       3.409  -1.714   4.452  0.00  0.00    +0.046 A 
ATOM     21 CL   UNL     1       4.216  -3.229   4.709  0.00  0.00    -0.083 Cl
ENDBRANCH   1  18
BRANCH   9  22
ATOM     22  C   UNL     1      -2.342  -0.277  -0.508  0.00  0.00    -0.073 C 
BRANCH  22  23
ATOM     23  C   UNL     1      -3.587  -1.069  -0.105  0.00  0.00    +0.016 C 
BRANCH  23  24
ATOM     24  C   UNL     1      -4.679  -0.837  -1.118  0.00  0.00    -0.049 A 
ATOM     25  C   UNL     1      -5.574   0.203  -0.945  0.00  0.00    +0.005 A 
ATOM     26  C   UNL     1      -6.572   0.417  -1.876  0.00  0.00    +0.029 A 
ATOM     27  C   UNL     1      -6.683  -0.413  -2.975  0.00  0.00    +0.105 A 
ATOM     28  C   UNL     1      -5.791  -1.456  -3.146  0.00  0.00    +0.029 A 
ATOM     29  C   UNL     1      -4.790  -1.668  -2.217  0.00  0.00    +0.005 A 
BRANCH  27  30
ATOM     30  S   UNL     1      -7.959  -0.142  -4.159  0.00  0.00    +0.056 S 
ATOM     31  O   UNL     1      -8.325   1.227  -4.056  0.00  0.00    -0.153 OA
ATOM     32  O   UNL     1      -7.513  -0.722  -5.378  0.00  0.00    -0.153 OA
BRANCH  30  33
ATOM     33  N   UNL     1      -9.274  -1.022  -3.671  0.00  0.00    -0.204 NA
ATOM     34  H   UNL     1     -10.097  -0.880  -4.386  0.00  0.00    +0.144 HD
ATOM     35  H   UNL     1      -9.593  -0.683  -2.674  0.00  0.00    +0.144 HD
ENDBRANCH  30  33
ENDBRANCH  27  30
ENDBRANCH  23  24
ENDBRANCH  22  23
ENDBRANCH   9  22
TORSDOF 6
