REMARK  Name = ZINC37315299
REMARK  3 active torsions:
REMARK  status: ('A' for Active; 'I' for Inactive)
REMARK    1  A    between atoms: C_6  and  N_7
REMARK    2  A    between atoms: N_7  and  C_8
REMARK    3  A    between atoms: C_8  and  C_9
REMARK                            x       y       z     vdW  Elec       q    Type
REMARK                         _______ _______ _______ _____ _____    ______ ____
ROOT
ATOM      1  C   UNL     1      -0.017   1.385   0.010  0.00  0.00    +0.025 A 
ATOM      2  C   UNL     1       1.169   2.091   0.002  0.00  0.00    +0.025 A 
ATOM      3  C   UNL     1       2.381   1.414  -0.013  0.00  0.00    +0.037 A 
ATOM      4  C   UNL     1       2.400   0.025  -0.020  0.00  0.00    -0.024 A 
ATOM      5  C   UNL     1       1.215  -0.682  -0.013  0.00  0.00    +0.028 A 
ATOM      6  C   UNL     1       0.002  -0.004   0.002  0.00  0.00    +0.028 A 
ATOM      7  C   UNL     1       3.717  -0.707  -0.035  0.00  0.00    +0.046 C 
ATOM      8  C   UNL     1       4.737   0.093  -0.846  0.00  0.00    +0.101 C 
ATOM      9  C   UNL     1       4.730   1.531  -0.402  0.00  0.00    +0.218 C 
ATOM     10  O   UNL     1       5.767   2.160  -0.389  0.00  0.00    -0.275 OA
ATOM     11  N   UNL     1       3.586   2.128  -0.020  0.00  0.00    -0.285 N 
ATOM     12  H   UNL     1       3.596   3.059   0.252  0.00  0.00    +0.155 HD
ENDROOT
BRANCH   6  13
ATOM     13  N   UNL     1      -1.200  -0.720   0.010  0.00  0.00    -0.337 N 
ATOM     14  H   UNL     1      -1.186  -1.690   0.004  0.00  0.00    +0.147 HD
BRANCH  13  15
ATOM     15  C   UNL     1      -2.478  -0.005   0.026  0.00  0.00    +0.176 C 
BRANCH  15  16
ATOM     16  C   UNL     1      -3.610  -1.000   0.031  0.00  0.00    +0.123 A 
ATOM     17  C   UNL     1      -4.194  -1.521   1.125  0.00  0.00    +0.047 A 
ATOM     18  C   UNL     1      -5.201  -2.403   0.672  0.00  0.00    +0.056 A 
ATOM     19  C   UNL     1      -5.173  -2.368  -0.673  0.00  0.00    +0.165 A 
ATOM     20  O   UNL     1      -4.211  -1.512  -1.055  0.00  0.00    -0.453 OA
ATOM     21  I   UNL     1      -6.422  -3.458  -1.954  0.00  0.00    -0.001 I 
ENDBRANCH  15  16
ENDBRANCH  13  15
ENDBRANCH   6  13
TORSDOF 3
