REMARK  Name = ZINC39533664
REMARK  11 active torsions:
REMARK  status: ('A' for Active; 'I' for Inactive)
REMARK    1  A    between atoms: C_1  and  C_2
REMARK    2  A    between atoms: C_2  and  C_3
REMARK    3  A    between atoms: C_2  and  S_4
REMARK    4  A    between atoms: S_4  and  N_7
REMARK    5  A    between atoms: N_7  and  C_8
REMARK    6  A    between atoms: C_8  and  C_9
REMARK    7  A    between atoms: C_9  and  C_11
REMARK    8  A    between atoms: C_9  and  N_23
REMARK    9  A    between atoms: C_14  and  C_17
REMARK   10  A    between atoms: C_27  and  C_30
REMARK   11  A    between atoms: C_35  and  O_36
REMARK                            x       y       z     vdW  Elec       q    Type
REMARK                         _______ _______ _______ _____ _____    ______ ____
ROOT
ATOM      1  C   UNL     1      -1.793  -0.072   4.399  0.00  0.00    +0.102 C 
ENDROOT
BRANCH   1   2
ATOM      2  N   UNL     1      -0.777  -0.992   4.929  0.00  0.00    -0.297 NA
ATOM      3  C   UNL     1      -0.826  -2.287   4.237  0.00  0.00    +0.066 C 
ATOM      4  C   UNL     1       0.283  -3.193   4.776  0.00  0.00    -0.066 C 
ATOM      5  N   UNL     1       0.100  -3.383   6.221  0.00  0.00    +0.385 N 
ATOM      6  C   UNL     1       0.176  -2.084   6.902  0.00  0.00    -0.023 C 
ATOM      7  C   UNL     1      -0.934  -1.169   6.380  0.00  0.00    +0.074 C 
ATOM      8  H   UNL     1      -0.802  -3.801   6.394  0.00  0.00    -0.085 HD
ATOM      9  H   UNL     1       0.824  -3.990   6.574  0.00  0.00    -0.085 HD
BRANCH   6  10
ATOM     10  C   UNL     1       0.006  -2.283   8.386  0.00  0.00    -0.019 A 
ATOM     11  C   UNL     1      -0.578  -3.440   8.866  0.00  0.00    +0.005 A 
ATOM     12  C   UNL     1      -0.734  -3.623  10.227  0.00  0.00    +0.000 A 
ATOM     13  C   UNL     1      -0.306  -2.650  11.112  0.00  0.00    +0.004 A 
ATOM     14  C   UNL     1       0.278  -1.492  10.637  0.00  0.00    +0.045 A 
ATOM     15  C   UNL     1       0.441  -1.308   9.271  0.00  0.00    +0.118 A 
BRANCH  15  16
ATOM     16  O   UNL     1       1.021  -0.172   8.802  0.00  0.00    -0.507 OA
ATOM     17  H   UNL     1       0.397   0.545   8.628  0.00  0.00    +0.292 HD
ENDBRANCH  15  16
ENDBRANCH   6  10
ENDBRANCH   1   2
BRANCH   1  18
ATOM     18  C   UNL     1      -3.158  -0.691   4.549  0.00  0.00    -0.029 A 
ATOM     19  C   UNL     1      -4.047  -0.182   5.479  0.00  0.00    +0.006 A 
ATOM     20  C   UNL     1      -5.299  -0.745   5.621  0.00  0.00    +0.009 A 
ATOM     21  C   UNL     1      -5.667  -1.828   4.825  0.00  0.00    -0.018 A 
ATOM     22  C   UNL     1      -4.768  -2.337   3.890  0.00  0.00    +0.009 A 
ATOM     23  C   UNL     1      -3.521  -1.762   3.752  0.00  0.00    +0.006 A 
BRANCH  21  24
ATOM     24  C   UNL     1      -7.012  -2.438   4.973  0.00  0.00    -0.018 A 
ATOM     25  C   UNL     1      -7.913  -1.926   5.905  0.00  0.00    +0.008 A 
ATOM     26  C   UNL     1      -9.163  -2.497   6.038  0.00  0.00    +0.001 A 
ATOM     27  C   UNL     1      -9.521  -3.575   5.250  0.00  0.00    +0.000 A 
ATOM     28  C   UNL     1      -8.630  -4.088   4.324  0.00  0.00    +0.001 A 
ATOM     29  C   UNL     1      -7.380  -3.521   4.177  0.00  0.00    +0.008 A 
ENDBRANCH  21  24
ENDBRANCH   1  18
BRANCH   1  30
ATOM     30  C   UNL     1      -1.514   0.196   2.918  0.00  0.00    +0.129 C 
BRANCH  30  31
ATOM     31  N   UNL     1      -0.143   0.686   2.760  0.00  0.00    -0.192 NA
ATOM     32  H   UNL     1       0.353   0.998   3.533  0.00  0.00    +0.148 HD
BRANCH  31  33
ATOM     33  S   UNL     1       0.561   0.707   1.262  0.00  0.00    +0.032 S 
ATOM     34  O   UNL     1       0.365  -0.604   0.750  0.00  0.00    -0.158 OA
ATOM     35  O   UNL     1       1.872   1.210   1.484  0.00  0.00    -0.158 OA
BRANCH  33  37
ATOM     36  C   UNL     1      -0.344   3.273   0.983  0.00  0.00    +0.033 C 
ATOM     37  C   UNL     1      -0.412   1.903   0.306  0.00  0.00    +0.142 C 
ATOM     38  C   UNL     1       0.154   2.006  -1.111  0.00  0.00    +0.033 C 
ENDBRANCH  33  37
ENDBRANCH  31  33
ENDBRANCH  30  31
ENDBRANCH   1  30
TORSDOF 9
