REMARK  Name = ZINC40724880
REMARK  7 active torsions:
REMARK  status: ('A' for Active; 'I' for Inactive)
REMARK    1  A    between atoms: C_1  and  C_2
REMARK    2  A    between atoms: C_2  and  C_3
REMARK    3  A    between atoms: C_2  and  C_4
REMARK    4  A    between atoms: C_2  and  N_5
REMARK    5  A    between atoms: N_5  and  N_6
REMARK    6  A    between atoms: C_8  and  N_19
REMARK    7  A    between atoms: C_9  and  N_13
REMARK                            x       y       z     vdW  Elec       q    Type
REMARK                         _______ _______ _______ _____ _____    ______ ____
ROOT
ATOM      1  N   UNL     1       2.021  -0.108  -1.190  0.00  0.00    -0.264 N 
ATOM      2  C   UNL     1       2.821  -0.403  -2.287  0.00  0.00    +0.136 A 
ATOM      3  C   UNL     1       4.134   0.070  -2.354  0.00  0.00    +0.105 A 
ATOM      4  C   UNL     1       4.894  -0.256  -3.478  0.00  0.00    +0.147 A 
ATOM      5  N   UNL     1       4.344  -0.999  -4.436  0.00  0.00    -0.221 NA
ATOM      6  C   UNL     1       3.101  -1.425  -4.333  0.00  0.00    +0.200 A 
ATOM      7  N   UNL     1       2.351  -1.144  -3.287  0.00  0.00    -0.332 N 
ATOM      8  H   UNL     1       2.372   0.433  -0.465  0.00  0.00    +0.168 HD
ATOM      9  H   UNL     1       1.442  -1.480  -3.247  0.00  0.00    +0.168 HD
ENDROOT
BRANCH   4  10
ATOM     10  N   UNL     1       6.206   0.189  -3.596  0.00  0.00    -0.314 N 
ATOM     11  C   UNL     1       7.325  -0.655  -3.155  0.00  0.00    +0.106 C 
ATOM     12  C   UNL     1       8.320  -0.797  -4.311  0.00  0.00    +0.019 C 
ATOM     13  C   UNL     1       8.735   0.594  -4.795  0.00  0.00    +0.003 C 
ATOM     14  C   UNL     1       7.504   1.345  -5.308  0.00  0.00    +0.019 C 
ATOM     15  C   UNL     1       6.500   1.509  -4.169  0.00  0.00    +0.106 C 
ENDBRANCH   4  10
BRANCH   3  16
ATOM     16  N   UNL     1       4.673   0.851  -1.320  0.00  0.00    -0.353 N 
ATOM     17  H   UNL     1       4.108   1.146  -0.589  0.00  0.00    +0.143 HD
ATOM     18  H   UNL     1       5.612   1.097  -1.336  0.00  0.00    +0.143 HD
ENDBRANCH   3  16
BRANCH   1  19
ATOM     19  N   UNL     1       0.741  -0.580  -1.132  0.00  0.00    -0.236 NA
ATOM     20  H   UNL     1       0.212  -0.293  -1.943  0.00  0.00    +0.145 HD
BRANCH  19  22
ATOM     21  C   UNL     1       0.039   1.376   0.164  0.00  0.00    +0.029 C 
ATOM     22  C   UNL     1       0.077  -0.152   0.107  0.00  0.00    +0.028 C 
ATOM     23  C   UNL     1       0.852  -0.688   1.312  0.00  0.00    +0.029 C 
ATOM     24  C   UNL     1      -1.352  -0.699   0.135  0.00  0.00    +0.029 C 
ENDBRANCH  19  22
ENDBRANCH   1  19
TORSDOF 4
