REMARK  Name = ZINC40703445
REMARK  6 active torsions:
REMARK  status: ('A' for Active; 'I' for Inactive)
REMARK    1  A    between atoms: C_1  and  C_2
REMARK    2  A    between atoms: C_7  and  N_8
REMARK    3  A    between atoms: C_10  and  N_24
REMARK    4  A    between atoms: C_11  and  N_15
REMARK    5  A    between atoms: N_15  and  C_16
REMARK    6  A    between atoms: C_16  and  C_17
REMARK                            x       y       z     vdW  Elec       q    Type
REMARK                         _______ _______ _______ _____ _____    ______ ____
ROOT
ATOM      1  N   UNL     1       0.025  -0.015   2.416  0.00  0.00    -0.298 N 
ATOM      2  C   UNL     1      -0.059  -0.716   3.614  0.00  0.00    +0.149 A 
ATOM      3  C   UNL     1      -0.168  -0.035   4.828  0.00  0.00    +0.105 A 
ATOM      4  C   UNL     1      -0.250  -0.787   6.001  0.00  0.00    +0.145 A 
ATOM      5  N   UNL     1      -0.221  -2.115   5.918  0.00  0.00    -0.219 NA
ATOM      6  C   UNL     1      -0.117  -2.719   4.752  0.00  0.00    +0.225 A 
ATOM      7  N   UNL     1      -0.042  -2.047   3.621  0.00  0.00    -0.219 NA
ATOM      8  H   UNL     1      -0.086   0.949   2.409  0.00  0.00    +0.154 HD
ENDROOT
BRANCH   1  15
ATOM      9  C   UNL     1      -0.933   1.129  -0.006  0.00  0.00    +0.046 C 
ATOM     10  C   UNL     1      -0.180  -0.177   0.016  0.00  0.00    -0.028 A 
ATOM     11  C   UNL     1       0.069  -0.852  -1.163  0.00  0.00    +0.025 A 
ATOM     12  C   UNL     1       0.760  -2.050  -1.143  0.00  0.00    +0.041 A 
ATOM     13  C   UNL     1       1.204  -2.576   0.057  0.00  0.00    +0.022 A 
ATOM     14  C   UNL     1       0.959  -1.905   1.239  0.00  0.00    +0.025 A 
ATOM     15  C   UNL     1       0.270  -0.699   1.222  0.00  0.00    +0.035 A 
ATOM     16 CL   UNL     1       1.070  -2.896  -2.627  0.00  0.00    -0.084 Cl
ENDBRANCH   1  15
BRANCH   3  17
ATOM     17  N   UNL     1      -0.195   1.368   4.868  0.00  0.00    -0.353 N 
ATOM     18  H   UNL     1      -0.137   1.878   4.045  0.00  0.00    +0.143 HD
ATOM     19  H   UNL     1      -0.271   1.828   5.718  0.00  0.00    +0.143 HD
ENDBRANCH   3  17
BRANCH   4  20
ATOM     20  N   UNL     1      -0.360  -0.160   7.236  0.00  0.00    -0.323 N 
ATOM     21  H   UNL     1      -0.380   0.809   7.287  0.00  0.00    +0.148 HD
BRANCH  20  22
ATOM     22  C   UNL     1      -0.445  -0.960   8.460  0.00  0.00    +0.138 C 
BRANCH  22  23
ATOM     23  C   UNL     1      -0.556  -0.045   9.652  0.00  0.00    -0.030 A 
ATOM     24  C   UNL     1       0.587   0.399  10.291  0.00  0.00    +0.008 A 
ATOM     25  C   UNL     1       0.486   1.238  11.384  0.00  0.00    +0.038 A 
ATOM     26  C   UNL     1      -0.759   1.635  11.839  0.00  0.00    +0.123 A 
ATOM     27  C   UNL     1      -1.903   1.189  11.199  0.00  0.00    +0.038 A 
ATOM     28  C   UNL     1      -1.800   0.354  10.102  0.00  0.00    +0.008 A 
ATOM     29  F   UNL     1      -0.859   2.455  12.908  0.00  0.00    -0.205 F 
ENDBRANCH  22  23
ENDBRANCH  20  22
ENDBRANCH   4  20
TORSDOF 5
