REMARK  Name = ZINC37029467
REMARK  9 active torsions:
REMARK  status: ('A' for Active; 'I' for Inactive)
REMARK    1  A    between atoms: C_1  and  C_2
REMARK    2  A    between atoms: C_2  and  C_3
REMARK    3  A    between atoms: C_3  and  C_5
REMARK    4  A    between atoms: C_3  and  C_6
REMARK    5  A    between atoms: C_6  and  C_8
REMARK    6  A    between atoms: C_6  and  N_22
REMARK    7  A    between atoms: N_10  and  C_11
REMARK    8  A    between atoms: C_13  and  S_18
REMARK    9  A    between atoms: S_18  and  C_21
REMARK                            x       y       z     vdW  Elec       q    Type
REMARK                         _______ _______ _______ _____ _____    ______ ____
ROOT
ATOM      1  C   UNL     1       1.336  -2.503  -2.571  0.00  0.00    +0.203 C 
ATOM      2  O   UNL     1       0.695  -2.800  -3.557  0.00  0.00    -0.277 OA
ATOM      3  N   UNL     1       2.679  -2.620  -2.580  0.00  0.00    -0.285 N 
ATOM      4  H   UNL     1       3.197  -2.323  -1.815  0.00  0.00    +0.155 HD
ENDROOT
BRANCH   3   5
ATOM      5  C   UNL     1       3.327  -3.170  -3.693  0.00  0.00    +0.071 A 
ATOM      6  C   UNL     1       2.828  -2.945  -4.969  0.00  0.00    +0.053 A 
ATOM      7  C   UNL     1       3.469  -3.488  -6.066  0.00  0.00    +0.090 A 
ATOM      8  C   UNL     1       4.607  -4.255  -5.894  0.00  0.00    +0.030 A 
ATOM      9  C   UNL     1       5.107  -4.482  -4.626  0.00  0.00    +0.042 A 
ATOM     10  C   UNL     1       4.474  -3.936  -3.524  0.00  0.00    +0.145 A 
ATOM     11  F   UNL     1       4.966  -4.153  -2.284  0.00  0.00    -0.204 F 
BRANCH   7  12
ATOM     12  S   UNL     1       2.836  -3.204  -7.685  0.00  0.00    -0.006 S 
ATOM     13  O   UNL     1       3.282  -4.316  -8.450  0.00  0.00    -0.170 OA
ATOM     14  O   UNL     1       1.448  -2.965  -7.495  0.00  0.00    -0.170 OA
ATOM     15  C   UNL     1       3.659  -1.688  -8.248  0.00  0.00    +0.200 C 
ENDBRANCH   7  12
ENDBRANCH   3   5
BRANCH   1  16
ATOM     16  C   UNL     1       0.631  -2.005  -1.336  0.00  0.00    +0.016 C 
BRANCH  16  17
ATOM     17  N   UNL     1      -0.781  -2.406  -1.382  0.00  0.00    +0.386 N 
ATOM     18  H   UNL     1      -1.253  -2.072  -0.555  0.00  0.00    -0.089 HD
ATOM     19  H   UNL     1      -1.217  -2.010  -2.201  0.00  0.00    -0.089 HD
ATOM     20  H   UNL     1      -0.843  -3.413  -1.422  0.00  0.00    -0.089 HD
ENDBRANCH  16  17
BRANCH  16  21
ATOM     21  C   UNL     1       0.726  -0.479  -1.276  0.00  0.00    -0.020 C 
ATOM     22  C   UNL     1       2.197  -0.060  -1.228  0.00  0.00    +0.006 C 
BRANCH  21  24
ATOM     23  C   UNL     1      -0.004   1.557  -0.025  0.00  0.00    +0.004 C 
ATOM     24  C   UNL     1       0.010   0.027  -0.022  0.00  0.00    -0.001 C 
ENDBRANCH  21  24
ENDBRANCH  16  21
ENDBRANCH   1  16
TORSDOF 6
