REMARK  Name = ZINC35339622
REMARK  6 active torsions:
REMARK  status: ('A' for Active; 'I' for Inactive)
REMARK    1  A    between atoms: C_1  and  N_2
REMARK    2  A    between atoms: N_2  and  S_3
REMARK    3  A    between atoms: S_3  and  C_6
REMARK    4  A    between atoms: C_9  and  N_13
REMARK    5  A    between atoms: C_10  and  N_12
REMARK    6  A    between atoms: C_17  and  C_20
REMARK                            x       y       z     vdW  Elec       q    Type
REMARK                         _______ _______ _______ _____ _____    ______ ____
ROOT
ATOM      1  C   UNL     1       2.438  -0.437  -1.202  0.00  0.00    +0.107 A 
ATOM      2  C   UNL     1       2.924   0.657  -1.894  0.00  0.00    +0.030 A 
ATOM      3  C   UNL     1       4.272   0.959  -1.860  0.00  0.00    +0.027 A 
ATOM      4  C   UNL     1       5.143   0.165  -1.128  0.00  0.00    +0.051 A 
ATOM      5  C   UNL     1       4.653  -0.938  -0.429  0.00  0.00    +0.048 A 
ATOM      6  C   UNL     1       3.298  -1.231  -0.465  0.00  0.00    +0.053 A 
ENDROOT
BRANCH   4   7
ATOM      7  N   UNL     1       6.509   0.470  -1.092  0.00  0.00    -0.328 N 
ATOM      8  C   UNL     1       7.428  -0.091  -2.092  0.00  0.00    +0.105 C 
ATOM      9  C   UNL     1       8.581  -0.790  -1.365  0.00  0.00    +0.020 C 
ATOM     10  C   UNL     1       9.235   0.193  -0.392  0.00  0.00    +0.016 C 
ATOM     11  C   UNL     1       8.208   0.641   0.651  0.00  0.00    +0.092 C 
ATOM     12  C   UNL     1       7.050   1.361  -0.057  0.00  0.00    +0.118 C 
BRANCH  11  13
ATOM     13  C   UNL     1       8.862   1.583   1.628  0.00  0.00    +0.215 C 
ATOM     14  O   UNL     1       8.444   2.715   1.753  0.00  0.00    -0.276 OA
ATOM     15  N   UNL     1       9.913   1.169   2.364  0.00  0.00    -0.329 N 
ATOM     16  H   UNL     1      10.248   0.264   2.264  0.00  0.00    +0.145 HD
ATOM     17  H   UNL     1      10.334   1.775   2.993  0.00  0.00    +0.145 HD
ENDBRANCH  11  13
ENDBRANCH   4   7
BRANCH   1  18
ATOM     18  S   UNL     1       0.718  -0.816  -1.251  0.00  0.00    +0.058 S 
ATOM     19  O   UNL     1       0.599  -2.201  -0.959  0.00  0.00    -0.153 OA
ATOM     20  O   UNL     1       0.211  -0.243  -2.449  0.00  0.00    -0.153 OA
BRANCH  18  22
ATOM     21  C   UNL     1      -0.018   1.461   0.010  0.00  0.00    +0.127 C 
ATOM     22  N   UNL     1       0.002  -0.004   0.002  0.00  0.00    -0.193 NA
ATOM     23  H   UNL     1      -0.404  -0.499   0.731  0.00  0.00    +0.148 HD
ENDBRANCH  18  22
ENDBRANCH   1  18
BRANCH   5  24
ATOM     24  N   UNL     1       5.526  -1.744   0.311  0.00  0.00    -0.356 N 
ATOM     25  H   UNL     1       6.473  -1.536   0.338  0.00  0.00    +0.142 HD
ATOM     26  H   UNL     1       5.184  -2.511   0.797  0.00  0.00    +0.142 HD
ENDBRANCH   5  24
TORSDOF 5
