REMARK  Name = ZINC43509118
REMARK  4 active torsions:
REMARK  status: ('A' for Active; 'I' for Inactive)
REMARK    1  A    between atoms: C_3  and  C_12
REMARK    2  A    between atoms: C_7  and  C_9
REMARK    3  A    between atoms: N_14  and  C_15
REMARK    4  A    between atoms: C_15  and  C_20
REMARK                            x       y       z     vdW  Elec       q    Type
REMARK                         _______ _______ _______ _____ _____    ______ ____
ROOT
ATOM      1  C   UNL     1       3.424   0.314   0.276  0.00  0.00    +0.234 C 
ATOM      2  O   UNL     1       3.570  -0.828  -0.106  0.00  0.00    -0.274 OA
ATOM      3  N   UNL     1       4.441   1.192   0.178  0.00  0.00    -0.298 N 
ATOM      4  H   UNL     1       4.324   2.106   0.483  0.00  0.00    +0.150 HD
ENDROOT
BRANCH   1   7
ATOM      5  C   UNL     1      -0.019   1.545   0.011  0.00  0.00    +0.021 C 
ATOM      6  C   UNL     1       1.497   1.877  -0.002  0.00  0.00    +0.033 C 
ATOM      7  C   UNL     1       2.105   0.750   0.860  0.00  0.00    +0.162 C 
ATOM      8  N   UNL     1       1.153  -0.370   0.847  0.00  0.00    -0.290 N 
ATOM      9  C   UNL     1       0.002  -0.004   0.002  0.00  0.00    +0.108 C 
ATOM     10  C   UNL     1       1.308  -1.540   1.499  0.00  0.00    +0.219 C 
ATOM     11  O   UNL     1       2.301  -1.734   2.168  0.00  0.00    -0.275 OA
BRANCH  10  12
ATOM     12  C   UNL     1       0.248  -2.606   1.397  0.00  0.00    +0.075 C 
ATOM     13  C   UNL     1      -0.568  -2.914   2.655  0.00  0.00    +0.013 C 
ATOM     14  C   UNL     1       0.482  -3.911   2.161  0.00  0.00    +0.013 C 
ENDBRANCH  10  12
ENDBRANCH   1   7
BRANCH   3  15
ATOM     15  C   UNL     1       5.723   0.768  -0.390  0.00  0.00    +0.146 C 
ATOM     16  C   UNL     1       6.716   1.941  -0.341  0.00  0.00    +0.049 C 
ATOM     17  C   UNL     1       6.291   2.981  -1.416  0.00  0.00    +0.072 C 
ATOM     18  S   UNL     1       5.826   1.860  -2.803  0.00  0.00    -0.158 S 
ATOM     19  C   UNL     1       5.512   0.316  -1.855  0.00  0.00    +0.106 C 
BRANCH  15  20
ATOM     20  C   UNL     1       6.270  -0.383   0.415  0.00  0.00    +0.380 C 
ATOM     21  O   UNL     1       5.652  -0.800   1.380  0.00  0.00    -0.244 OA
ATOM     22  O   UNL     1       7.330  -0.897   0.101  0.00  0.00    -0.244 OA
ENDBRANCH  15  20
ENDBRANCH   3  15
TORSDOF 4
