REMARK  Name = ZINC01299226
REMARK  3 active torsions:
REMARK  status: ('A' for Active; 'I' for Inactive)
REMARK    1  A    between atoms: C_1  and  C_2
REMARK    2  A    between atoms: C_7  and  N_8
REMARK    3  A    between atoms: N_18  and  N_19
REMARK                            x       y       z     vdW  Elec       q    Type
REMARK                         _______ _______ _______ _____ _____    ______ ____
ROOT
ATOM      1  N   UNL     1      -2.429   1.040   0.019  0.00  0.00    -0.247 N 
ATOM      2  C   UNL     1      -2.992   0.696   1.193  0.00  0.00    +0.268 A 
ATOM      3  O   UNL     1      -2.461   1.001   2.247  0.00  0.00    -0.266 OA
ATOM      4  C   UNL     1      -4.222  -0.033   1.184  0.00  0.00    +0.076 A 
ATOM      5  C   UNL     1      -5.003  -0.506   2.339  0.00  0.00    -0.023 A 
ATOM      6  C   UNL     1      -6.137  -1.173   2.073  0.00  0.00    -0.004 A 
ATOM      7  S   UNL     1      -6.239  -1.219   0.298  0.00  0.00    -0.073 S 
ATOM      8  C   UNL     1      -4.750  -0.334  -0.080  0.00  0.00    +0.118 A 
ATOM      9  N   UNL     1      -4.145   0.034  -1.204  0.00  0.00    -0.207 NA
ATOM     10  C   UNL     1      -3.014   0.709  -1.170  0.00  0.00    +0.218 A 
ATOM     11  N   UNL     1      -2.412   1.081  -2.346  0.00  0.00    -0.253 N 
ATOM     12  C   UNL     1      -6.851  -1.603   3.327  0.00  0.00    +0.043 C 
ATOM     13  C   UNL     1      -6.227  -0.739   4.444  0.00  0.00    +0.010 C 
ATOM     14  C   UNL     1      -4.835  -0.428   3.859  0.00  0.00    +0.037 C 
ATOM     15  H   UNL     1      -1.578   1.575  -2.329  0.00  0.00    +0.169 HD
ENDROOT
BRANCH   1  22
ATOM     16  C   UNL     1      -2.551   3.883   0.047  0.00  0.00    +0.046 C 
ATOM     17  C   UNL     1      -1.239   3.143   0.030  0.00  0.00    -0.026 A 
ATOM     18  C   UNL     1      -0.049   3.845   0.022  0.00  0.00    +0.005 A 
ATOM     19  C   UNL     1       1.155   3.166   0.007  0.00  0.00    +0.000 A 
ATOM     20  C   UNL     1       1.173   1.783   0.000  0.00  0.00    +0.002 A 
ATOM     21  C   UNL     1      -0.013   1.076   0.008  0.00  0.00    +0.026 A 
ATOM     22  C   UNL     1      -1.224   1.754   0.017  0.00  0.00    +0.056 A 
ENDBRANCH   1  22
BRANCH  11  23
ATOM     23  N   UNL     1      -2.989   0.755  -3.541  0.00  0.00    -0.254 NA
ATOM     24  H   UNL     1      -2.435   1.094  -4.314  0.00  0.00    +0.140 HD
ATOM     25  H   UNL     1      -3.138  -0.240  -3.612  0.00  0.00    +0.140 HD
ENDBRANCH  11  23
TORSDOF 2
