REMARK  Name = ZINC43763845
REMARK  10 active torsions:
REMARK  status: ('A' for Active; 'I' for Inactive)
REMARK    1  A    between atoms: C_1  and  C_2
REMARK    2  A    between atoms: C_2  and  C_29
REMARK    3  A    between atoms: C_6  and  O_28
REMARK    4  A    between atoms: C_7  and  C_27
REMARK    5  A    between atoms: C_8  and  O_26
REMARK    6  A    between atoms: C_12  and  C_24
REMARK    7  A    between atoms: C_12  and  C_25
REMARK    8  A    between atoms: C_15  and  O_23
REMARK    9  A    between atoms: C_17  and  O_22
REMARK   10  A    between atoms: C_19  and  C_21
REMARK                            x       y       z     vdW  Elec       q    Type
REMARK                         _______ _______ _______ _____ _____    ______ ____
ROOT
ATOM      1  C   UNL     1       0.621   1.757   0.464  0.00  0.00    +0.046 C 
ATOM      2  C   UNL     1       0.573   0.280  -0.000  0.00  0.00    +0.092 C 
ATOM      3  C   UNL     1      -0.807   0.049  -0.608  0.00  0.00    +0.116 C 
ATOM      4  C   UNL     1      -1.317  -1.350  -0.301  0.00  0.00    +0.171 C 
ATOM      5  O   UNL     1      -1.829  -2.017  -1.157  0.00  0.00    -0.294 OA
ATOM      6  C   UNL     1      -1.103  -1.780   1.134  0.00  0.00    +0.162 C 
ATOM      7  C   UNL     1      -1.856  -3.028   1.554  0.00  0.00    +0.038 C 
ATOM      8  C   UNL     1      -3.362  -2.716   1.566  0.00  0.00    +0.124 C 
ATOM      9  C   UNL     1      -4.131  -3.956   2.023  0.00  0.00    +0.032 C 
ATOM     10  C   UNL     1      -3.764  -4.265   3.467  0.00  0.00    +0.009 C 
ATOM     11  C   UNL     1      -2.257  -4.460   3.656  0.00  0.00    -0.029 C 
ATOM     12  C   UNL     1      -1.433  -3.384   2.986  0.00  0.00    +0.037 C 
ATOM     13  C   UNL     1       0.069  -3.653   3.007  0.00  0.00    +0.150 C 
ATOM     14  C   UNL     1       0.816  -2.357   2.667  0.00  0.00    +0.178 C 
ATOM     15  C   UNL     1       0.416  -1.844   1.289  0.00  0.00    +0.132 C 
ATOM     16  O   UNL     1       0.914  -0.521   1.105  0.00  0.00    -0.357 OA
ATOM     17  C   UNL     1       1.063  -2.741   0.229  0.00  0.00    +0.048 C 
ATOM     18  C   UNL     1      -1.859  -5.872   3.232  0.00  0.00    +0.011 C 
ATOM     19  C   UNL     1      -2.043  -4.368   5.191  0.00  0.00    +0.011 C 
ATOM     20  C   UNL     1      -1.617  -4.189   0.594  0.00  0.00    +0.017 C 
ENDROOT
BRANCH  14  21
ATOM     21  O   UNL     1       0.538  -1.366   3.659  0.00  0.00    -0.386 OA
ATOM     22  H   UNL     1       0.804  -1.619   4.553  0.00  0.00    +0.210 HD
ENDBRANCH  14  21
BRANCH  13  23
ATOM     23  O   UNL     1       0.518  -4.080   4.296  0.00  0.00    -0.389 OA
ATOM     24  H   UNL     1       1.467  -4.259   4.343  0.00  0.00    +0.210 HD
ENDBRANCH  13  23
BRANCH   8  25
ATOM     25  O   UNL     1      -3.805  -2.345   0.263  0.00  0.00    -0.391 OA
ATOM     26  H   UNL     1      -4.748  -2.137   0.213  0.00  0.00    +0.210 HD
ENDBRANCH   8  25
BRANCH   6  27
ATOM     27  O   UNL     1      -1.574  -0.690   1.964  0.00  0.00    -0.377 OA
ATOM     28  H   UNL     1      -1.110   0.146   1.816  0.00  0.00    +0.211 HD
ENDBRANCH   6  27
BRANCH   2  29
ATOM     29  C   UNL     1       1.614   0.149  -1.094  0.00  0.00    -0.000 C 
ATOM     30  C   UNL     1       2.689  -0.572  -0.892  0.00  0.00    +0.007 C 
ENDBRANCH   2  29
TORSDOF 5
