REMARK  Name = ZINC06122123
REMARK  7 active torsions:
REMARK  status: ('A' for Active; 'I' for Inactive)
REMARK    1  A    between atoms: C_9  and  C_12
REMARK    2  A    between atoms: C_10  and  O_11
REMARK    3  A    between atoms: C_12  and  O_14
REMARK    4  A    between atoms: O_14  and  C_15
REMARK    5  A    between atoms: C_15  and  C_16
REMARK    6  A    between atoms: C_16  and  C_18
REMARK    7  A    between atoms: C_18  and  C_28
REMARK                            x       y       z     vdW  Elec       q    Type
REMARK                         _______ _______ _______ _____ _____    ______ ____
ROOT
ATOM      1  C   UNL     1       2.173   9.555   0.028  0.00  0.00    +0.312 C 
ENDROOT
BRANCH   1   2
ATOM      2  C   UNL     1       3.564  10.136   0.017  0.00  0.00    +0.214 C 
ATOM      3  O   UNL     1       4.530   9.399   0.004  0.00  0.00    -0.288 OA
BRANCH   2   4
ATOM      4  C   UNL     1       3.743  11.529   0.022  0.00  0.00    +0.133 C 
ATOM      5  C   UNL     1       5.040  12.072   0.012  0.00  0.00    +0.114 C 
ATOM      6  N   UNL     1       6.193  11.353   0.004  0.00  0.00    -0.300 N 
ATOM      7  C   UNL     1       7.261  12.243  -0.007  0.00  0.00    +0.054 A 
ATOM      8  C   UNL     1       8.638  12.071  -0.020  0.00  0.00    +0.025 A 
ATOM      9  C   UNL     1       9.469  13.173  -0.022  0.00  0.00    +0.002 A 
ATOM     10  C   UNL     1       8.935  14.450  -0.012  0.00  0.00    +0.002 A 
ATOM     11  C   UNL     1       7.567  14.633   0.002  0.00  0.00    +0.025 A 
ATOM     12  C   UNL     1       6.722  13.532   0.004  0.00  0.00    +0.054 A 
ATOM     13  N   UNL     1       5.339  13.397   0.015  0.00  0.00    -0.300 N 
ATOM     14  H   UNL     1       6.259  10.386   0.004  0.00  0.00    +0.153 HD
ATOM     15  H   UNL     1       4.697  14.124   0.025  0.00  0.00    +0.153 HD
BRANCH   4  16
ATOM     16  C   UNL     1       2.604  12.397   0.037  0.00  0.00    +0.106 C 
ATOM     17  N   UNL     1       1.700  13.086   0.049  0.00  0.00    -0.191 NA
ENDBRANCH   4  16
ENDBRANCH   2   4
ENDBRANCH   1   2
BRANCH   1  18
ATOM     18  O   UNL     1       2.255   8.105   0.020  0.00  0.00    -0.453 OA
BRANCH  18  19
ATOM     19  C   UNL     1       1.090   7.426   0.028  0.00  0.00    +0.343 C 
ATOM     20  O   UNL     1       0.035   8.030   0.041  0.00  0.00    -0.245 OA
BRANCH  19  29
ATOM     21  C   UNL     1      -0.013   1.076   0.008  0.00  0.00    +0.001 A 
ATOM     22  C   UNL     1      -1.234   1.745   0.017  0.00  0.00    +0.001 A 
ATOM     23  C   UNL     1      -1.286   3.106   0.030  0.00  0.00    +0.012 A 
ATOM     24  C   UNL     1      -0.093   3.848   0.023  0.00  0.00    +0.024 A 
ATOM     25  C   UNL     1       1.150   3.167   0.008  0.00  0.00    -0.014 A 
ATOM     26  C   UNL     1       1.163   1.763   0.000  0.00  0.00    +0.008 A 
ATOM     27  C   UNL     1       2.350   3.904  -0.000  0.00  0.00    +0.009 A 
ATOM     28  C   UNL     1       2.319   5.259   0.007  0.00  0.00    +0.019 A 
ATOM     29  C   UNL     1       1.095   5.955   0.021  0.00  0.00    +0.101 A 
ATOM     30  C   UNL     1      -0.112   5.257   0.029  0.00  0.00    +0.138 A 
BRANCH  30  31
ATOM     31  O   UNL     1      -1.289   5.926   0.043  0.00  0.00    -0.505 OA
ATOM     32  H   UNL     1      -1.623   6.116   0.931  0.00  0.00    +0.292 HD
ENDBRANCH  30  31
ENDBRANCH  19  29
ENDBRANCH  18  19
ENDBRANCH   1  18
TORSDOF 7
