REMARK  Name = ZINC63308313
REMARK  9 active torsions:
REMARK  status: ('A' for Active; 'I' for Inactive)
REMARK    1  A    between atoms: C_1  and  C_2
REMARK    2  A    between atoms: C_4  and  C_35
REMARK    3  A    between atoms: N_10  and  C_11
REMARK    4  A    between atoms: N_13  and  C_14
REMARK    5  A    between atoms: N_21  and  C_22
REMARK    6  A    between atoms: C_22  and  C_23
REMARK    7  A    between atoms: C_23  and  C_24
REMARK    8  A    between atoms: C_27  and  O_33
REMARK    9  A    between atoms: O_33  and  C_34
REMARK                            x       y       z     vdW  Elec       q    Type
REMARK                         _______ _______ _______ _____ _____    ______ ____
ROOT
ATOM      1  C   UNL     1      -0.394  -7.251   5.753  0.00  0.00    +0.066 C 
ATOM      2  C   UNL     1      -0.372  -6.742   4.335  0.00  0.00    +0.044 A 
ATOM      3  C   UNL     1      -0.299  -7.630   3.272  0.00  0.00    +0.046 A 
ATOM      4  C   UNL     1      -0.282  -7.120   1.983  0.00  0.00    +0.044 A 
ATOM      5  N   UNL     1      -0.336  -5.810   1.807  0.00  0.00    -0.217 NA
ATOM      6  C   UNL     1      -0.405  -4.989   2.845  0.00  0.00    +0.231 A 
ATOM      7  N   UNL     1      -0.428  -5.444   4.088  0.00  0.00    -0.217 NA
ATOM      8  N   UNL     1      -0.459  -3.620   2.623  0.00  0.00    -0.297 N 
ATOM      9  C   UNL     1      -0.422  -2.753   3.681  0.00  0.00    +0.198 C 
ATOM     10  N   UNL     1      -0.230  -3.213   4.906  0.00  0.00    -0.129 NA
ATOM     11  N   UNL     1      -0.584  -1.415   3.473  0.00  0.00    -0.357 N 
ATOM     12  C   UNL     1      -0.203  -8.046   0.797  0.00  0.00    +0.066 C 
ATOM     13  H   UNL     1      -0.523  -3.277   1.718  0.00  0.00    +0.171 HD
ATOM     14  H   UNL     1      -0.474  -0.793   4.209  0.00  0.00    +0.162 HD
ENDROOT
BRANCH  10  15
ATOM     15  C   UNL     1      -0.080  -2.358   5.927  0.00  0.00    +0.330 C 
ATOM     16  O   UNL     1      -0.220  -1.162   5.746  0.00  0.00    -0.250 OA
ATOM     17  N   UNL     1       0.225  -2.822   7.155  0.00  0.00    -0.268 N 
ATOM     18  H   UNL     1       0.412  -3.765   7.285  0.00  0.00    +0.156 HD
BRANCH  17  19
ATOM     19  C   UNL     1       0.273  -1.944   8.243  0.00  0.00    +0.036 A 
ATOM     20  C   UNL     1      -0.607  -0.871   8.310  0.00  0.00    +0.023 A 
ATOM     21  C   UNL     1      -0.559  -0.005   9.385  0.00  0.00    +0.003 A 
ATOM     22  C   UNL     1       0.364  -0.205  10.395  0.00  0.00    +0.020 A 
ATOM     23  C   UNL     1       1.242  -1.273  10.332  0.00  0.00    +0.043 A 
ATOM     24  C   UNL     1       1.195  -2.146   9.261  0.00  0.00    +0.043 A 
ATOM     25 CL   UNL     1       2.400  -1.520  11.601  0.00  0.00    -0.083 Cl
ENDBRANCH  17  19
ENDBRANCH  10  15
BRANCH  11  26
ATOM     26  C   UNL     1      -0.923  -0.917   2.137  0.00  0.00    +0.120 C 
BRANCH  26  27
ATOM     27  C   UNL     1      -0.925   0.613   2.148  0.00  0.00    +0.054 C 
BRANCH  27  28
ATOM     28  C   UNL     1      -1.393   1.124   0.810  0.00  0.00    -0.040 C 
ATOM     29  C   UNL     1      -2.650   1.495   0.476  0.00  0.00    +0.002 A 
ATOM     30  C   UNL     1      -3.910   1.531   1.226  0.00  0.00    +0.055 A 
ATOM     31  C   UNL     1      -5.039   1.960   0.613  0.00  0.00    +0.121 A 
ATOM     32  C   UNL     1      -5.052   2.376  -0.730  0.00  0.00    +0.047 A 
ATOM     33  C   UNL     1      -3.944   2.378  -1.502  0.00  0.00    +0.029 A 
ATOM     34  C   UNL     1      -2.665   1.934  -0.939  0.00  0.00    +0.043 A 
ATOM     35  N   UNL     1      -1.466   1.838  -1.457  0.00  0.00    -0.380 N 
ATOM     36  C   UNL     1      -0.550   1.333  -0.428  0.00  0.00    +0.144 C 
ATOM     37  H   UNL     1      -1.223   2.067  -2.368  0.00  0.00    +0.160 HD
BRANCH  31  38
ATOM     38  O   UNL     1      -6.199   1.987   1.320  0.00  0.00    -0.495 OA
ATOM     39  C   UNL     1      -7.366   2.446   0.634  0.00  0.00    +0.277 C 
ENDBRANCH  31  38
ENDBRANCH  27  28
ENDBRANCH  26  27
ENDBRANCH  11  26
TORSDOF 6
