REMARK  Name = ZINC09449632
REMARK  7 active torsions:
REMARK  status: ('A' for Active; 'I' for Inactive)
REMARK    1  A    between atoms: C_1  and  C_2
REMARK    2  A    between atoms: C_2  and  C_30
REMARK    3  A    between atoms: C_6  and  N_23
REMARK    4  A    between atoms: C_9  and  N_22
REMARK    5  A    between atoms: C_10  and  C_12
REMARK    6  A    between atoms: N_14  and  C_15
REMARK    7  A    between atoms: C_15  and  C_16
REMARK                            x       y       z     vdW  Elec       q    Type
REMARK                         _______ _______ _______ _____ _____    ______ ____
ROOT
ATOM      1  C   UNL     1       2.045   0.006   1.888  0.00  0.00    +0.041 C 
ATOM      2  C   UNL     1       2.358   0.104   0.394  0.00  0.00    +0.068 C 
ATOM      3  C   UNL     1       2.486   1.575  -0.011  0.00  0.00    +0.070 C 
ATOM      4  C   UNL     1       1.130   2.228   0.015  0.00  0.00    -0.025 A 
ATOM      5  C   UNL     1      -0.018   1.503   0.026  0.00  0.00    +0.020 A 
ATOM      6  C   UNL     1      -1.257   2.157   0.047  0.00  0.00    +0.105 A 
ATOM      7  C   UNL     1      -0.230   4.214   0.041  0.00  0.00    +0.089 A 
ATOM      8  C   UNL     1       1.063   3.647   0.025  0.00  0.00    +0.031 A 
ATOM      9  C   UNL     1       2.158   4.603   0.022  0.00  0.00    +0.054 A 
ATOM     10  C   UNL     1       1.852   5.947   0.033  0.00  0.00    +0.097 A 
ATOM     11  S   UNL     1       0.070   5.964   0.049  0.00  0.00    -0.064 S 
ATOM     12  C   UNL     1       0.002  -0.004   0.024  0.00  0.00    +0.199 C 
ATOM     13  O   UNL     1       1.291  -0.481  -0.362  0.00  0.00    -0.369 OA
ATOM     14  C   UNL     1       3.666  -0.629   0.091  0.00  0.00    +0.041 C 
ATOM     15  N   UNL     1      -1.389   3.513   0.047  0.00  0.00    -0.337 N 
ATOM     16  H   UNL     1      -2.307   3.973   0.051  0.00  0.00    +0.168 HD
ENDROOT
BRANCH   6  17
ATOM     17  N   UNL     1      -2.428   1.412   0.059  0.00  0.00    -0.316 N 
ATOM     18  C   UNL     1      -2.517   0.583   1.288  0.00  0.00    +0.106 C 
ATOM     19  C   UNL     1      -4.030   0.265   1.392  0.00  0.00    +0.020 C 
ATOM     20  C   UNL     1      -4.692   1.579   0.918  0.00  0.00    +0.020 C 
ATOM     21  C   UNL     1      -3.616   2.292   0.080  0.00  0.00    +0.106 C 
ENDBRANCH   6  17
BRANCH  10  22
ATOM     22  C   UNL     1       2.740   7.050   0.033  0.00  0.00    +0.253 C 
ATOM     23  O   UNL     1       3.944   6.862   0.022  0.00  0.00    -0.270 OA
ATOM     24  N   UNL     1       2.254   8.306   0.045  0.00  0.00    -0.308 N 
ATOM     25  H   UNL     1       1.296   8.456   0.054  0.00  0.00    +0.149 HD
BRANCH  24  26
ATOM     26  C   UNL     1       3.173   9.447   0.045  0.00  0.00    +0.136 C 
BRANCH  26  27
ATOM     27  C   UNL     1       2.370  10.749   0.061  0.00  0.00    +0.135 C 
ATOM     28  C   UNL     1       3.315  11.965  -0.065  0.00  0.00    +0.035 C 
ATOM     29  C   UNL     1       2.679  13.031   0.855  0.00  0.00    +0.031 C 
ATOM     30  C   UNL     1       1.426  12.333   1.428  0.00  0.00    +0.160 C 
ATOM     31  O   UNL     1       1.715  10.921   1.336  0.00  0.00    -0.375 OA
ENDBRANCH  26  27
ENDBRANCH  24  26
ENDBRANCH  10  22
BRANCH   9  32
ATOM     32  N   UNL     1       3.478   4.174   0.007  0.00  0.00    -0.356 N 
ATOM     33  H   UNL     1       3.701   3.304  -0.360  0.00  0.00    +0.142 HD
ATOM     34  H   UNL     1       4.177   4.744   0.363  0.00  0.00    +0.142 HD
ENDBRANCH   9  32
TORSDOF 5
