REMARK  Name = ZINC33692547
REMARK  8 active torsions:
REMARK  status: ('A' for Active; 'I' for Inactive)
REMARK    1  A    between atoms: C_1  and  O_2
REMARK    2  A    between atoms: O_2  and  C_3
REMARK    3  A    between atoms: C_7  and  C_11
REMARK    4  A    between atoms: C_8  and  O_9
REMARK    5  A    between atoms: O_9  and  C_10
REMARK    6  A    between atoms: N_12  and  N_13
REMARK    7  A    between atoms: C_14  and  C_16
REMARK    8  A    between atoms: C_18  and  N_24
REMARK                            x       y       z     vdW  Elec       q    Type
REMARK                         _______ _______ _______ _____ _____    ______ ____
ROOT
ATOM      1  N   UNL     1      -3.766   5.845   0.064  0.00  0.00    -0.202 N 
ATOM      2  C   UNL     1      -3.784   7.193   0.071  0.00  0.00    +0.283 C 
ATOM      3  O   UNL     1      -2.739   7.815   0.065  0.00  0.00    -0.267 OA
ATOM      4  H   UNL     1      -4.711   5.282   0.070  0.00  0.00    +0.178 HD
ENDROOT
BRANCH   2   5
ATOM      5  C   UNL     1      -5.075   7.915   0.086  0.00  0.00    +0.149 A 
ATOM      6  C   UNL     1      -5.086   9.307   0.098  0.00  0.00    +0.094 A 
ATOM      7  C   UNL     1      -6.312   9.974   0.107  0.00  0.00    +0.067 A 
ATOM      8  C   UNL     1      -7.479   9.212   0.113  0.00  0.00    +0.100 A 
ATOM      9  C   UNL     1      -7.386   7.829   0.106  0.00  0.00    +0.150 A 
ATOM     10  N   UNL     1      -6.214   7.229   0.092  0.00  0.00    -0.228 NA
ATOM     11 CL   UNL     1      -8.835   6.874   0.114  0.00  0.00    -0.060 Cl
ATOM     12 CL   UNL     1      -9.033   9.986   0.131  0.00  0.00    -0.078 Cl
ATOM     13 CL   UNL     1      -3.597  10.201   0.097  0.00  0.00    -0.079 Cl
BRANCH   7  14
ATOM     14  N   UNL     1      -6.368  11.366   0.114  0.00  0.00    -0.356 N 
ATOM     15  H   UNL     1      -7.342  11.877   0.121  0.00  0.00    +0.142 HD
ATOM     16  H   UNL     1      -5.438  11.954   0.113  0.00  0.00    +0.142 HD
ENDBRANCH   7  14
ENDBRANCH   2   5
BRANCH   1  18
ATOM     17  C   UNL     1      -2.526   3.863   0.044  0.00  0.00    +0.142 C 
ATOM     18  N   UNL     1      -2.544   5.161   0.050  0.00  0.00    -0.187 NA
BRANCH  17  23
ATOM     19  C   UNL     1       1.171   3.167   0.008  0.00  0.00    +0.162 A 
ATOM     20  C   UNL     1       1.179   1.781   0.000  0.00  0.00    +0.049 A 
ATOM     21  C   UNL     1      -0.013   1.076   0.008  0.00  0.00    +0.004 A 
ATOM     22  C   UNL     1      -1.218   1.746   0.017  0.00  0.00    +0.013 A 
ATOM     23  C   UNL     1      -1.240   3.143   0.029  0.00  0.00    +0.040 A 
ATOM     24  C   UNL     1      -0.035   3.856   0.022  0.00  0.00    +0.170 A 
BRANCH  19  26
ATOM     25  C   UNL     1       3.548   3.081  -0.014  0.00  0.00    +0.277 C 
ATOM     26  O   UNL     1       2.346   3.853   0.001  0.00  0.00    -0.491 OA
ENDBRANCH  19  26
BRANCH  24  27
ATOM     27  O   UNL     1      -0.046   5.215   0.030  0.00  0.00    -0.491 OA
ATOM     28  C   UNL     1      -0.062   5.870  -1.240  0.00  0.00    +0.277 C 
ENDBRANCH  24  27
ENDBRANCH  17  23
ENDBRANCH   1  18
TORSDOF 6
