REMARK  Name = ZINC49005153
REMARK  7 active torsions:
REMARK  status: ('A' for Active; 'I' for Inactive)
REMARK    1  A    between atoms: C_1  and  C_2
REMARK    2  A    between atoms: C_2  and  C_3
REMARK    3  A    between atoms: C_10  and  C_12
REMARK    4  A    between atoms: C_17  and  N_18
REMARK    5  A    between atoms: N_18  and  C_19
REMARK    6  A    between atoms: C_23  and  C_25
REMARK    7  A    between atoms: C_30  and  C_32
REMARK                            x       y       z     vdW  Elec       q    Type
REMARK                         _______ _______ _______ _____ _____    ______ ____
ROOT
ATOM      1  C   UNL     1      -2.833   1.585  -3.324  0.00  0.00    +0.077 A 
ATOM      2  C   UNL     1      -4.066   0.973  -3.592  0.00  0.00    +0.128 A 
ATOM      3  N   UNL     1      -4.333   0.443  -4.758  0.00  0.00    -0.235 NA
ATOM      4  C   UNL     1      -3.448   0.452  -5.765  0.00  0.00    +0.162 A 
ATOM      5  C   UNL     1      -2.178   1.049  -5.584  0.00  0.00    +0.041 A 
ATOM      6  C   UNL     1      -1.860   1.636  -4.336  0.00  0.00    +0.056 A 
ATOM      7  C   UNL     1      -1.262   1.053  -6.646  0.00  0.00    +0.015 A 
ATOM      8  C   UNL     1      -1.640   0.473  -7.827  0.00  0.00    +0.024 A 
ATOM      9  C   UNL     1      -2.902  -0.097  -7.942  0.00  0.00    +0.041 A 
ATOM     10  N   UNL     1      -3.755  -0.098  -6.943  0.00  0.00    -0.232 NA
ATOM     11  C   UNL     1      -3.304  -0.732  -9.248  0.00  0.00    +0.065 C 
ENDROOT
BRANCH   1  18
ATOM     12  C   UNL     1      -2.933   2.260   0.417  0.00  0.00    +0.076 C 
ATOM     13  C   UNL     1      -2.385   1.214   1.393  0.00  0.00    +0.022 C 
ATOM     14  C   UNL     1      -3.311  -0.004   1.403  0.00  0.00    +0.003 C 
ATOM     15  C   UNL     1      -3.355  -0.625   0.005  0.00  0.00    +0.019 C 
ATOM     16  C   UNL     1      -3.914   0.400  -0.987  0.00  0.00    +0.108 C 
ATOM     17  N   UNL     1      -3.117   1.632  -0.898  0.00  0.00    -0.294 N 
ATOM     18  C   UNL     1      -2.563   2.173  -2.001  0.00  0.00    +0.250 C 
ATOM     19  O   UNL     1      -1.841   3.147  -1.904  0.00  0.00    -0.270 OA
BRANCH  12  21
ATOM     20  C   UNL     1      -2.612   4.591  -0.423  0.00  0.00    +0.006 C 
ATOM     21  C   UNL     1      -1.941   3.419   0.297  0.00  0.00    +0.019 C 
ENDBRANCH  12  21
ENDBRANCH   1  18
BRANCH   6  22
ATOM     22  N   UNL     1      -0.638   2.232  -4.119  0.00  0.00    -0.313 N 
ATOM     23  H   UNL     1      -0.425   3.073  -4.553  0.00  0.00    +0.152 HD
BRANCH  22  24
ATOM     24  C   UNL     1       0.297   1.623  -3.275  0.00  0.00    +0.033 A 
ATOM     25  C   UNL     1      -0.015   0.425  -2.642  0.00  0.00    +0.026 A 
ATOM     26  C   UNL     1       0.903  -0.181  -1.807  0.00  0.00    +0.041 A 
ATOM     27  C   UNL     1       2.139   0.401  -1.593  0.00  0.00    +0.141 A 
ATOM     28  C   UNL     1       2.462   1.606  -2.224  0.00  0.00    +0.089 A 
ATOM     29  C   UNL     1       1.534   2.213  -3.073  0.00  0.00    +0.045 A 
ATOM     30  F   UNL     1       3.034  -0.194  -0.774  0.00  0.00    -0.204 F 
BRANCH  28  31
ATOM     31  C   UNL     1       3.741   2.213  -2.006  0.00  0.00    +0.102 C 
ATOM     32  N   UNL     1       4.755   2.694  -1.833  0.00  0.00    -0.191 NA
ENDBRANCH  28  31
ENDBRANCH  22  24
ENDBRANCH   6  22
TORSDOF 5
