REMARK  Name = ZINC61951565
REMARK  6 active torsions:
REMARK  status: ('A' for Active; 'I' for Inactive)
REMARK    1  A    between atoms: C_1  and  N_2
REMARK    2  A    between atoms: N_2  and  C_3
REMARK    3  A    between atoms: C_6  and  C_9
REMARK    4  A    between atoms: C_9  and  N_11
REMARK    5  A    between atoms: C_12  and  C_14
REMARK    6  A    between atoms: C_19  and  O_20
REMARK                            x       y       z     vdW  Elec       q    Type
REMARK                         _______ _______ _______ _____ _____    ______ ____
ROOT
ATOM      1  C   UNL     1      -1.181   1.142  -0.145  0.00  0.00    +0.138 C 
ATOM      2  N   UNL     1      -0.576  -0.191  -0.090  0.00  0.00    -0.270 N 
ATOM      3  C   UNL     1      -0.128  -0.775  -1.219  0.00  0.00    +0.254 C 
ATOM      4  O   UNL     1       0.290  -1.916  -1.189  0.00  0.00    -0.270 OA
ENDROOT
BRANCH   3   5
ATOM      5  C   UNL     1      -0.146  -0.030  -2.491  0.00  0.00    +0.079 A 
ATOM      6  C   UNL     1      -0.096   1.367  -2.489  0.00  0.00    +0.018 A 
ATOM      7  C   UNL     1      -0.113   2.057  -3.680  0.00  0.00    +0.021 A 
ATOM      8  C   UNL     1      -0.181   1.373  -4.885  0.00  0.00    +0.044 A 
ATOM      9  C   UNL     1      -0.231  -0.008  -4.901  0.00  0.00    +0.066 A 
ATOM     10  C   UNL     1      -0.208  -0.719  -3.711  0.00  0.00    +0.130 A 
ATOM     11 CL   UNL     1      -0.203   2.255  -6.379  0.00  0.00    -0.083 Cl
BRANCH  10  12
ATOM     12  O   UNL     1      -0.252  -2.075  -3.726  0.00  0.00    -0.506 OA
ATOM     13  H   UNL     1      -1.147  -2.440  -3.701  0.00  0.00    +0.292 HD
ENDBRANCH  10  12
ENDBRANCH   3   5
BRANCH   2  14
ATOM     14  C   UNL     1      -0.462  -0.855   1.131  0.00  0.00    +0.036 A 
ATOM     15  C   UNL     1       0.264  -2.039   1.211  0.00  0.00    +0.024 A 
ATOM     16  C   UNL     1       0.378  -2.698   2.414  0.00  0.00    +0.012 A 
ATOM     17  C   UNL     1      -0.236  -2.175   3.557  0.00  0.00    +0.003 A 
ATOM     18  C   UNL     1      -0.964  -0.985   3.472  0.00  0.00    +0.012 A 
ATOM     19  C   UNL     1      -1.069  -0.328   2.266  0.00  0.00    +0.024 A 
BRANCH  17  20
ATOM     20  C   UNL     1      -0.116  -2.878   4.847  0.00  0.00    +0.077 C 
ATOM     21  S   UNL     1       1.331  -3.703   5.241  0.00  0.00    -0.035 S 
BRANCH  20  22
ATOM     22  N   UNL     1      -1.146  -2.870   5.716  0.00  0.00    -0.352 N 
ATOM     23  H   UNL     1      -1.966  -2.403   5.493  0.00  0.00    +0.143 HD
ATOM     24  H   UNL     1      -1.067  -3.333   6.565  0.00  0.00    +0.143 HD
ENDBRANCH  20  22
ENDBRANCH  17  20
ENDBRANCH   2  14
TORSDOF 5
