REMARK  Name = ZINC46918846
REMARK  6 active torsions:
REMARK  status: ('A' for Active; 'I' for Inactive)
REMARK    1  A    between atoms: C_4  and  N_11
REMARK    2  A    between atoms: C_5  and  C_7
REMARK    3  A    between atoms: C_12  and  C_14
REMARK    4  A    between atoms: C_14  and  N_15
REMARK    5  A    between atoms: N_23  and  C_24
REMARK    6  A    between atoms: C_24  and  C_25
REMARK                            x       y       z     vdW  Elec       q    Type
REMARK                         _______ _______ _______ _____ _____    ______ ____
ROOT
ATOM      1  N   UNL     1       7.181   0.263  -0.388  0.00  0.00    +0.387 N 
ATOM      2  C   UNL     1       7.036   1.040  -1.626  0.00  0.00    -0.059 C 
ATOM      3  C   UNL     1       8.116   2.126  -1.676  0.00  0.00    +0.091 C 
ATOM      4  N   UNL     1       9.430   1.485  -1.512  0.00  0.00    -0.289 N 
ATOM      5  C   UNL     1       9.613   0.558  -0.385  0.00  0.00    +0.091 C 
ATOM      6  C   UNL     1       8.462  -0.454  -0.395  0.00  0.00    -0.059 C 
ATOM      7  C   UNL     1      10.436   1.739  -2.371  0.00  0.00    +0.302 C 
ATOM      8  O   UNL     1      10.296   2.575  -3.243  0.00  0.00    -0.253 OA
ATOM      9  N   UNL     1      11.600   1.067  -2.264  0.00  0.00    -0.291 N 
ATOM     10  H   UNL     1      11.739   0.454  -1.525  0.00  0.00    +0.151 HD
ATOM     11  H   UNL     1       7.151   0.888   0.404  0.00  0.00    -0.081 HD
ENDROOT
BRANCH   1  12
ATOM     12  C   UNL     1       6.081  -0.705  -0.288  0.00  0.00    +0.019 C 
BRANCH  12  14
ATOM     13  N   UNL     1       3.619  -0.655  -0.049  0.00  0.00    -0.287 N 
ATOM     14  C   UNL     1       4.773   0.033  -0.156  0.00  0.00    +0.201 C 
ATOM     15  O   UNL     1       4.759   1.246  -0.147  0.00  0.00    -0.278 OA
ATOM     16  H   UNL     1       3.635  -1.623   0.010  0.00  0.00    +0.155 HD
BRANCH  13  20
ATOM     17  C   UNL     1      -0.017   1.377   0.029  0.00  0.00    +0.001 A 
ATOM     18  C   UNL     1       1.101   1.940   0.618  0.00  0.00    +0.002 A 
ATOM     19  C   UNL     1       2.308   1.269   0.594  0.00  0.00    +0.024 A 
ATOM     20  C   UNL     1       2.398   0.027  -0.022  0.00  0.00    +0.045 A 
ATOM     21  C   UNL     1       1.274  -0.536  -0.612  0.00  0.00    +0.076 A 
ATOM     22  C   UNL     1       0.070   0.141  -0.584  0.00  0.00    +0.014 A 
BRANCH  21  23
ATOM     23  C   UNL     1       1.367  -1.883  -1.281  0.00  0.00    +0.419 C 
ATOM     24  F   UNL     1       0.115  -2.235  -1.796  0.00  0.00    -0.166 F 
ATOM     25  F   UNL     1       2.299  -1.823  -2.322  0.00  0.00    -0.166 F 
ATOM     26  F   UNL     1       1.773  -2.841  -0.345  0.00  0.00    -0.166 F 
ENDBRANCH  21  23
ENDBRANCH  13  20
ENDBRANCH  12  14
ENDBRANCH   1  12
BRANCH   9  27
ATOM     27  C   UNL     1      12.653   1.261  -3.264  0.00  0.00    +0.201 C 
BRANCH  27  28
ATOM     28  C   UNL     1      13.840   0.401  -2.916  0.00  0.00    +0.233 C 
ATOM     29  O   UNL     1      13.810  -0.305  -1.930  0.00  0.00    -0.274 OA
ATOM     30  N   UNL     1      14.936   0.415  -3.700  0.00  0.00    -0.300 N 
ATOM     31  C   UNL     1      15.109   1.225  -4.915  0.00  0.00    +0.108 C 
ATOM     32  C   UNL     1      16.503   0.896  -5.491  0.00  0.00    +0.020 C 
ATOM     33  C   UNL     1      16.809  -0.498  -4.883  0.00  0.00    +0.020 C 
ATOM     34  C   UNL     1      16.162  -0.372  -3.479  0.00  0.00    +0.108 C 
ENDBRANCH  27  28
ENDBRANCH   9  27
TORSDOF 6
