REMARK  Name = ZINC08651763
REMARK  6 active torsions:
REMARK  status: ('A' for Active; 'I' for Inactive)
REMARK    1  A    between atoms: C_1  and  C_2
REMARK    2  A    between atoms: C_4  and  O_25
REMARK    3  A    between atoms: C_6  and  O_24
REMARK    4  A    between atoms: C_8  and  O_23
REMARK    5  A    between atoms: C_10  and  S_13
REMARK    6  A    between atoms: S_13  and  C_14
REMARK                            x       y       z     vdW  Elec       q    Type
REMARK                         _______ _______ _______ _____ _____    ______ ____
ROOT
ATOM      1  C   UNL     1      -1.729   0.875  -6.171  0.00  0.00    +0.040 C 
ATOM      2  C   UNL     1      -2.193   2.064  -5.328  0.00  0.00    +0.148 C 
ATOM      3  C   UNL     1      -2.204   3.328  -6.192  0.00  0.00    +0.174 C 
ATOM      4  C   UNL     1      -2.612   4.525  -5.326  0.00  0.00    +0.177 C 
ATOM      5  C   UNL     1      -1.646   4.638  -4.143  0.00  0.00    +0.185 C 
ATOM      6  C   UNL     1      -1.656   3.323  -3.358  0.00  0.00    +0.213 C 
ATOM      7  O   UNL     1      -1.298   2.248  -4.229  0.00  0.00    -0.357 OA
ENDROOT
BRANCH   5   8
ATOM      8  O   UNL     1      -0.326   4.895  -4.627  0.00  0.00    -0.386 OA
ATOM      9  H   UNL     1       0.508   5.008  -3.918  0.00  0.00    +0.210 HD
ENDBRANCH   5   8
BRANCH   4  10
ATOM     10  O   UNL     1      -2.555   5.722  -6.106  0.00  0.00    -0.386 OA
ATOM     11  H   UNL     1      -2.816   6.688  -5.649  0.00  0.00    +0.210 HD
ENDBRANCH   4  10
BRANCH   3  12
ATOM     12  O   UNL     1      -3.142   3.169  -7.258  0.00  0.00    -0.387 OA
ATOM     13  H   UNL     1      -3.288   3.980  -7.987  0.00  0.00    +0.210 HD
ENDBRANCH   3  12
BRANCH   6  14
ATOM     14  S   UNL     1      -0.465   3.422  -2.000  0.00  0.00    -0.070 S 
BRANCH  14  15
ATOM     15  C   UNL     1      -0.777   1.929  -1.221  0.00  0.00    +0.128 A 
ATOM     16  N   UNL     1      -1.923   1.091  -1.416  0.00  0.00    -0.227 NA
ATOM     17  C   UNL     1      -2.054  -0.128  -0.913  0.00  0.00    +0.224 A 
ATOM     18  N   UNL     1      -1.108  -0.715  -0.188  0.00  0.00    -0.214 NA
ATOM     19  C   UNL     1       0.002  -0.004   0.002  0.00  0.00    +0.182 A 
ATOM     20  N   UNL     1       1.245  -0.331   0.207  0.00  0.00    -0.216 NA
ATOM     21  C   UNL     1       0.919   0.717   1.846  0.00  0.00    +0.199 A 
ATOM     22  N   UNL     1       0.717   1.846   1.227  0.00  0.00    -0.341 N 
ATOM     23  C   UNL     1      -0.019   1.518   0.011  0.00  0.00    +0.117 A 
ATOM     24  H   UNL     1       0.981   2.892   1.445  0.00  0.00    +0.167 HD
ENDBRANCH  14  15
ENDBRANCH   6  14
TORSDOF 5
