REMARK  Name = ZINC48096213
REMARK  6 active torsions:
REMARK  status: ('A' for Active; 'I' for Inactive)
REMARK    1  A    between atoms: C_1  and  C_2
REMARK    2  A    between atoms: C_2  and  C_3
REMARK    3  A    between atoms: C_3  and  C_5
REMARK    4  A    between atoms: C_3  and  N_6
REMARK    5  A    between atoms: N_9  and  C_10
REMARK    6  A    between atoms: C_11  and  C_18
REMARK                            x       y       z     vdW  Elec       q    Type
REMARK                         _______ _______ _______ _____ _____    ______ ____
ROOT
ATOM      1  N   UNL     1      -2.209  -1.173   2.307  0.00  0.00    -0.297 N 
ATOM      2  C   UNL     1      -3.534  -0.968   2.447  0.00  0.00    +0.304 C 
ATOM      3  O   UNL     1      -4.291  -1.916   2.531  0.00  0.00    -0.253 OA
ATOM      4  N   UNL     1      -4.020   0.289   2.493  0.00  0.00    -0.268 N 
ATOM      5  H   UNL     1      -1.606  -0.417   2.240  0.00  0.00    +0.151 HD
ATOM      6  H   UNL     1      -3.411   1.044   2.500  0.00  0.00    +0.156 HD
ENDROOT
BRANCH   4   7
ATOM      7  C   UNL     1      -5.403   0.503   2.532  0.00  0.00    +0.056 A 
ATOM      8  C   UNL     1      -6.049   0.656   3.752  0.00  0.00    -0.027 A 
ATOM      9  C   UNL     1      -7.413   0.869   3.788  0.00  0.00    +0.020 A 
ATOM     10  C   UNL     1      -8.137   0.929   2.610  0.00  0.00    +0.020 A 
ATOM     11  C   UNL     1      -7.497   0.776   1.393  0.00  0.00    +0.037 A 
ATOM     12  C   UNL     1      -6.131   0.570   1.351  0.00  0.00    +0.063 A 
ATOM     13 CL   UNL     1      -5.327   0.386  -0.177  0.00  0.00    -0.082 Cl
ATOM     14 BR   UNL     1     -10.005   1.219   2.664  0.00  0.00    -0.050 Br
ATOM     15  C   UNL     1      -5.262   0.590   5.035  0.00  0.00    +0.046 C 
ENDBRANCH   4   7
BRANCH   1  16
ATOM     16  C   UNL     1      -1.681  -2.539   2.256  0.00  0.00    +0.071 C 
ATOM     17  C   UNL     1      -1.462  -3.054   3.680  0.00  0.00    +0.028 C 
BRANCH  16  19
ATOM     18  C   UNL     1      -0.589  -2.147   0.044  0.00  0.00    +0.005 C 
ATOM     19  C   UNL     1      -0.350  -2.543   1.502  0.00  0.00    +0.019 C 
ENDBRANCH  16  19
ENDBRANCH   1  16
TORSDOF 3
