REMARK  Name = ZINC10045925
REMARK  7 active torsions:
REMARK  status: ('A' for Active; 'I' for Inactive)
REMARK    1  A    between atoms: C_1  and  C_2
REMARK    2  A    between atoms: C_2  and  O_3
REMARK    3  A    between atoms: O_3  and  C_4
REMARK    4  A    between atoms: C_9  and  N_10
REMARK    5  A    between atoms: C_13  and  C_25
REMARK    6  A    between atoms: C_15  and  C_17
REMARK    7  A    between atoms: C_22  and  O_23
REMARK                            x       y       z     vdW  Elec       q    Type
REMARK                         _______ _______ _______ _____ _____    ______ ____
ROOT
ATOM      1  N   UNL     1      -3.904  -1.564   0.043  0.00  0.00    -0.241 N 
ATOM      2  C   UNL     1      -4.537  -1.089   1.177  0.00  0.00    +0.170 A 
ATOM      3  C   UNL     1      -5.610  -0.293   0.735  0.00  0.00    +0.117 A 
ATOM      4  C   UNL     1      -6.426   0.317   1.689  0.00  0.00    +0.154 A 
ATOM      5  N   UNL     1      -6.154   0.120   2.980  0.00  0.00    -0.220 NA
ATOM      6  C   UNL     1      -5.135  -0.636   3.354  0.00  0.00    +0.166 A 
ATOM      7  N   UNL     1      -4.337  -1.233   2.475  0.00  0.00    -0.207 NA
ATOM      8  N   UNL     1      -5.585  -0.318  -0.648  0.00  0.00    -0.303 N 
ATOM      9  H   UNL     1      -6.206   0.141  -1.235  0.00  0.00    +0.171 HD
ATOM     10  C   UNL     1      -4.548  -1.084  -1.038  0.00  0.00    +0.333 A 
ATOM     11  O   UNL     1      -4.241  -1.310  -2.193  0.00  0.00    -0.246 OA
ENDROOT
BRANCH   6  12
ATOM     12  C   UNL     1      -4.874  -0.823   4.801  0.00  0.00    +0.062 A 
ATOM     13  C   UNL     1      -3.807  -1.614   5.223  0.00  0.00    +0.030 A 
ATOM     14  C   UNL     1      -3.569  -1.785   6.572  0.00  0.00    +0.019 A 
ATOM     15  C   UNL     1      -4.387  -1.173   7.508  0.00  0.00    +0.019 A 
ATOM     16  C   UNL     1      -5.447  -0.387   7.099  0.00  0.00    +0.047 A 
ATOM     17  C   UNL     1      -5.695  -0.202   5.748  0.00  0.00    +0.128 A 
ATOM     18 BR   UNL     1      -2.122  -2.859   7.145  0.00  0.00    -0.050 Br
BRANCH  17  19
ATOM     19  O   UNL     1      -6.734   0.574   5.346  0.00  0.00    -0.506 OA
ATOM     20  H   UNL     1      -7.564   0.092   5.233  0.00  0.00    +0.292 HD
ENDBRANCH  17  19
ENDBRANCH   6  12
BRANCH   1  26
ATOM     21  C   UNL     1      -1.498  -1.849   0.006  0.00  0.00    +0.144 A 
ATOM     22  C   UNL     1      -0.389  -2.679  -0.009  0.00  0.00    +0.048 A 
ATOM     23  C   UNL     1      -0.554  -4.052  -0.015  0.00  0.00    +0.004 A 
ATOM     24  C   UNL     1      -1.823  -4.600  -0.005  0.00  0.00    +0.002 A 
ATOM     25  C   UNL     1      -2.934  -3.779   0.010  0.00  0.00    +0.030 A 
ATOM     26  C   UNL     1      -2.777  -2.401   0.021  0.00  0.00    +0.094 A 
BRANCH  21  27
ATOM     27  O   UNL     1      -1.339  -0.499   0.012  0.00  0.00    -0.490 OA
BRANCH  27  29
ATOM     28  C   UNL     1      -0.019   1.526   0.010  0.00  0.00    +0.048 C 
ATOM     29  C   UNL     1       0.002  -0.004   0.002  0.00  0.00    +0.226 C 
ENDBRANCH  27  29
ENDBRANCH  21  27
ENDBRANCH   1  26
BRANCH   4  30
ATOM     30  C   UNL     1      -7.568   1.164   1.276  0.00  0.00    +0.262 C 
ATOM     31  O   UNL     1      -7.803   1.334   0.096  0.00  0.00    -0.269 OA
ATOM     32  N   UNL     1      -8.347   1.746   2.210  0.00  0.00    -0.324 N 
ATOM     33  H   UNL     1      -8.159   1.611   3.151  0.00  0.00    +0.145 HD
ATOM     34  H   UNL     1      -9.095   2.302   1.940  0.00  0.00    +0.145 HD
ENDBRANCH   4  30
TORSDOF 6
