REMARK  Name = ZINC36505260
REMARK  8 active torsions:
REMARK  status: ('A' for Active; 'I' for Inactive)
REMARK    1  A    between atoms: C_1  and  C_2
REMARK    2  A    between atoms: C_2  and  C_8
REMARK    3  A    between atoms: N_3  and  N_4
REMARK    4  A    between atoms: C_14  and  C_35
REMARK    5  A    between atoms: C_24  and  C_34
REMARK    6  A    between atoms: C_27  and  O_30
REMARK    7  A    between atoms: O_30  and  C_31
REMARK    8  A    between atoms: C_31  and  C_33
REMARK                            x       y       z     vdW  Elec       q    Type
REMARK                         _______ _______ _______ _____ _____    ______ ____
ROOT
ATOM      1  C   UNL     1      -0.280  -1.370  -0.716  0.00  0.00    +0.041 C 
ATOM      2  C   UNL     1      -1.491  -1.103  -1.634  0.00  0.00    +0.010 C 
ATOM      3  C   UNL     1      -2.411  -2.337  -1.514  0.00  0.00    +0.005 C 
ATOM      4  C   UNL     1      -2.046  -2.941  -0.125  0.00  0.00    -0.001 C 
ATOM      5  C   UNL     1      -0.519  -2.753  -0.096  0.00  0.00    -0.021 C 
ATOM      6  C   UNL     1       0.062  -2.877   1.294  0.00  0.00    +0.008 C 
ATOM      7  C   UNL     1      -0.638  -1.924   2.260  0.00  0.00    +0.005 C 
ATOM      8  C   UNL     1      -2.130  -2.278   2.312  0.00  0.00    +0.003 C 
ATOM      9  C   UNL     1      -2.752  -2.074   0.923  0.00  0.00    +0.000 C 
ATOM     10  C   UNL     1      -4.227  -2.502   0.966  0.00  0.00    +0.031 C 
ATOM     11  C   UNL     1      -4.931  -1.804   2.090  0.00  0.00    -0.027 C 
ATOM     12  C   UNL     1      -4.323  -1.305   3.117  0.00  0.00    -0.064 C 
ATOM     13  C   UNL     1      -2.803  -1.354   3.321  0.00  0.00    -0.008 C 
ATOM     14  C   UNL     1      -2.218   0.054   3.249  0.00  0.00    +0.015 C 
ATOM     15  C   UNL     1      -3.263   1.078   3.694  0.00  0.00    +0.046 C 
ATOM     16  C   UNL     1      -4.155   0.510   4.796  0.00  0.00    +0.180 C 
ATOM     17  C   UNL     1      -5.124  -0.592   4.194  0.00  0.00    +0.075 C 
ATOM     18  C   UNL     1      -2.531  -1.899   4.725  0.00  0.00    +0.016 C 
ATOM     19  C   UNL     1       0.130  -3.815  -0.985  0.00  0.00    +0.012 C 
ENDROOT
BRANCH   1  21
ATOM     20  C   UNL     1      -1.296   0.710   0.490  0.00  0.00    +0.062 C 
ATOM     21  C   UNL     1      -0.205  -0.322   0.364  0.00  0.00    +0.037 C 
ATOM     22  N   UNL     1       0.785  -0.308   1.175  0.00  0.00    -0.188 NA
BRANCH  22  23
ATOM     23  N   UNL     1       1.946  -1.033   0.875  0.00  0.00    -0.191 N 
ATOM     24  C   UNL     1       3.007  -0.979   1.704  0.00  0.00    +0.317 C 
ATOM     25  O   UNL     1       4.046  -1.534   1.400  0.00  0.00    -0.251 OA
ATOM     26  N   UNL     1       2.918  -0.309   2.870  0.00  0.00    -0.312 N 
ATOM     27  H   UNL     1       1.986  -1.574   0.071  0.00  0.00    +0.179 HD
ATOM     28  H   UNL     1       2.070   0.071   3.147  0.00  0.00    +0.147 HD
ATOM     29  H   UNL     1       3.702  -0.208   3.433  0.00  0.00    +0.147 HD
ENDBRANCH  22  23
ENDBRANCH   1  21
BRANCH  16  30
ATOM     30  O   UNL     1      -3.340  -0.075   5.814  0.00  0.00    -0.461 OA
BRANCH  30  31
ATOM     31  C   UNL     1      -3.823  -0.058   7.066  0.00  0.00    +0.304 C 
ATOM     32  O   UNL     1      -4.902   0.438   7.291  0.00  0.00    -0.251 OA
ATOM     33  C   UNL     1      -3.020  -0.657   8.192  0.00  0.00    +0.136 C 
ENDBRANCH  30  31
ENDBRANCH  16  30
TORSDOF 4
