REMARK  Name = ZINC15932605
REMARK  7 active torsions:
REMARK  status: ('A' for Active; 'I' for Inactive)
REMARK    1  A    between atoms: C_1  and  C_2
REMARK    2  A    between atoms: C_6  and  C_7
REMARK    3  A    between atoms: C_11  and  C_21
REMARK    4  A    between atoms: C_16  and  N_20
REMARK    5  A    between atoms: C_17  and  C_18
REMARK    6  A    between atoms: C_23  and  C_27
REMARK    7  A    between atoms: C_25  and  C_26
REMARK                            x       y       z     vdW  Elec       q    Type
REMARK                         _______ _______ _______ _____ _____    ______ ____
ROOT
ATOM      1  C   UNL     1       0.093  -0.422   2.558  0.00  0.00    +0.089 C 
ATOM      2  C   UNL     1       1.378  -0.759   3.323  0.00  0.00    +0.141 C 
ATOM      3  C   UNL     1       2.450   0.274   3.063  0.00  0.00    +0.084 C 
ATOM      4  N   UNL     1       2.680   0.855   4.211  0.00  0.00    -0.150 NA
ATOM      5  N   UNL     1       1.855   0.366   5.224  0.00  0.00    -0.115 NA
ATOM      6  C   UNL     1       1.047  -0.556   4.799  0.00  0.00    +0.227 C 
ATOM      7  O   UNL     1       0.024  -1.220   5.383  0.00  0.00    -0.425 OA
ATOM      8  C   UNL     1      -1.073  -1.357   4.594  0.00  0.00    +0.200 C 
ATOM      9  C   UNL     1      -1.084  -1.010   3.289  0.00  0.00    +0.095 C 
ENDROOT
BRANCH   3  10
ATOM     10  C   UNL     1       3.102   0.566   1.778  0.00  0.00    +0.009 A 
ATOM     11  C   UNL     1       2.959   1.848   1.133  0.00  0.00    +0.021 A 
ATOM     12  C   UNL     1       3.608   1.988  -0.041  0.00  0.00    -0.012 A 
ATOM     13  S   UNL     1       4.396   0.407  -0.258  0.00  0.00    -0.098 S 
ATOM     14  C   UNL     1       3.884  -0.370   1.138  0.00  0.00    -0.004 A 
ATOM     15  C   UNL     1       4.204  -1.772   1.587  0.00  0.00    +0.052 C 
ATOM     16  C   UNL     1       3.655   3.191  -0.949  0.00  0.00    +0.051 C 
ENDBRANCH   3  10
BRANCH   1  22
ATOM     17  C   UNL     1      -0.049   1.129  -0.090  0.00  0.00    +0.044 C 
ATOM     18  C   UNL     1       0.109  -0.369  -0.027  0.00  0.00    -0.040 A 
ATOM     19  C   UNL     1       0.204  -1.114  -1.187  0.00  0.00    +0.011 A 
ATOM     20  C   UNL     1       0.346  -2.459  -1.094  0.00  0.00    +0.046 A 
ATOM     21  S   UNL     1       0.348  -2.709   0.674  0.00  0.00    -0.101 S 
ATOM     22  C   UNL     1       0.166  -1.004   1.169  0.00  0.00    +0.002 A 
ENDBRANCH   1  22
BRANCH   8  23
ATOM     23  N   UNL     1      -2.220  -1.871   5.146  0.00  0.00    -0.328 N 
ATOM     24  H   UNL     1      -2.235  -2.126   6.082  0.00  0.00    +0.145 HD
ATOM     25  H   UNL     1      -3.015  -1.978   4.601  0.00  0.00    +0.145 HD
ENDBRANCH   8  23
BRANCH   9  26
ATOM     26  C   UNL     1      -2.294  -1.215   2.551  0.00  0.00    +0.100 C 
ATOM     27  N   UNL     1      -3.254  -1.378   1.966  0.00  0.00    -0.191 NA
ENDBRANCH   9  26
TORSDOF 4
