REMARK  Name = ZINC05085910
REMARK  7 active torsions:
REMARK  status: ('A' for Active; 'I' for Inactive)
REMARK    1  A    between atoms: C_1  and  C_2
REMARK    2  A    between atoms: C_1  and  O_21
REMARK    3  A    between atoms: C_4  and  O_20
REMARK    4  A    between atoms: C_6  and  O_19
REMARK    5  A    between atoms: C_8  and  N_14
REMARK    6  A    between atoms: C_10  and  O_13
REMARK    7  A    between atoms: C_15  and  C_17
REMARK                            x       y       z     vdW  Elec       q    Type
REMARK                         _______ _______ _______ _____ _____    ______ ____
ROOT
ATOM      1  C   UNL     1       0.002  -0.004   0.002  0.00  0.00    +0.178 C 
ATOM      2  C   UNL     1       0.718  -0.510   1.257  0.00  0.00    +0.176 C 
ATOM      3  C   UNL     1       2.133   0.073   1.299  0.00  0.00    +0.171 C 
ATOM      4  C   UNL     1       2.046   1.601   1.256  0.00  0.00    +0.160 C 
ATOM      5  C   UNL     1       1.279   2.026   0.001  0.00  0.00    +0.270 C 
ATOM      6  O   UNL     1      -0.017   1.425   0.010  0.00  0.00    -0.341 OA
ENDROOT
BRANCH   4   7
ATOM      7  N   UNL     1       1.342   2.085   2.446  0.00  0.00    -0.303 N 
ATOM      8  C   UNL     1       1.564   3.335   2.899  0.00  0.00    +0.244 C 
ATOM      9  O   UNL     1       2.345   4.059   2.321  0.00  0.00    -0.273 OA
ATOM     10  H   UNL     1       0.717   1.505   2.909  0.00  0.00    +0.149 HD
BRANCH   8  11
ATOM     11  C   UNL     1       0.840   3.832   4.124  0.00  0.00    +0.308 C 
ATOM     12  F   UNL     1       1.232   5.147   4.395  0.00  0.00    -0.239 F 
ENDBRANCH   8  11
ENDBRANCH   4   7
BRANCH   5  13
ATOM     13  O   UNL     1       1.145   3.449  -0.017  0.00  0.00    -0.365 OA
ATOM     14  H   UNL     1       0.667   3.789  -0.786  0.00  0.00    +0.213 HD
ENDBRANCH   5  13
BRANCH   3  15
ATOM     15  O   UNL     1       2.783  -0.335   2.504  0.00  0.00    -0.387 OA
ATOM     16  H   UNL     1       2.867  -1.294   2.601  0.00  0.00    +0.210 HD
ENDBRANCH   3  15
BRANCH   2  17
ATOM     17  O   UNL     1       0.788  -1.937   1.224  0.00  0.00    -0.387 OA
ATOM     18  H   UNL     1      -0.075  -2.373   1.193  0.00  0.00    +0.210 HD
ENDBRANCH   2  17
BRANCH   1  19
ATOM     19  C   UNL     1      -1.433  -0.534  -0.016  0.00  0.00    +0.190 C 
BRANCH  19  20
ATOM     20  O   UNL     1      -2.064  -0.158  -1.241  0.00  0.00    -0.392 OA
ATOM     21  H   UNL     1      -2.979  -0.461  -1.322  0.00  0.00    +0.210 HD
ENDBRANCH  19  20
ENDBRANCH   1  19
TORSDOF 7
