REMARK  Name = ZINC02354609
REMARK  9 active torsions:
REMARK  status: ('A' for Active; 'I' for Inactive)
REMARK    1  A    between atoms: C_1  and  C_2
REMARK    2  A    between atoms: N_8  and  C_9
REMARK    3  A    between atoms: C_9  and  C_10
REMARK    4  A    between atoms: C_10  and  C_11
REMARK    5  A    between atoms: C_14  and  O_18
REMARK    6  A    between atoms: C_15  and  O_17
REMARK    7  A    between atoms: C_19  and  C_27
REMARK    8  A    between atoms: C_21  and  C_25
REMARK    9  A    between atoms: C_22  and  N_24
REMARK                            x       y       z     vdW  Elec       q    Type
REMARK                         _______ _______ _______ _____ _____    ______ ____
ROOT
ATOM      1  C   UNL     1      -1.340   5.419   1.487  0.00  0.00    +0.064 C 
ATOM      2  C   UNL     1      -0.059   6.214   1.479  0.00  0.00    +0.022 A 
ATOM      3  C   UNL     1      -0.113   7.563   1.487  0.00  0.00    +0.068 A 
ATOM      4  C   UNL     1       1.082   8.311   1.480  0.00  0.00    +0.141 A 
ATOM      5  C   UNL     1       2.288   7.643   1.464  0.00  0.00    +0.072 A 
ATOM      6  C   UNL     1       2.295   6.242   1.462  0.00  0.00    +0.259 A 
ATOM      7  O   UNL     1       3.356   5.637   1.454  0.00  0.00    -0.267 OA
ATOM      8  N   UNL     1       1.133   5.563   1.464  0.00  0.00    -0.312 N 
ATOM      9  C   UNL     1       3.587   8.402   1.457  0.00  0.00    +0.103 C 
ATOM     10  C   UNL     1       3.347   9.834   1.068  0.00  0.00    +0.098 C 
ATOM     11  C   UNL     1       2.106  10.373   1.105  0.00  0.00    +0.199 C 
ATOM     12  O   UNL     1       1.032   9.660   1.487  0.00  0.00    -0.441 OA
ENDROOT
BRANCH   9  13
ATOM     13  C   UNL     1       4.202   8.354   2.832  0.00  0.00    -0.032 A 
ATOM     14  C   UNL     1       5.446   7.778   3.013  0.00  0.00    +0.005 A 
ATOM     15  C   UNL     1       6.012   7.733   4.273  0.00  0.00    +0.003 A 
ATOM     16  C   UNL     1       5.334   8.264   5.354  0.00  0.00    +0.038 A 
ATOM     17  C   UNL     1       4.089   8.841   5.175  0.00  0.00    +0.124 A 
ATOM     18  C   UNL     1       3.526   8.891   3.910  0.00  0.00    +0.043 A 
ATOM     19  F   UNL     1       3.426   9.361   6.231  0.00  0.00    -0.205 F 
ENDBRANCH   9  13
BRANCH  11  20
ATOM     20  N   UNL     1       1.939  11.686   0.742  0.00  0.00    -0.328 N 
ATOM     21  H   UNL     1       1.056  12.087   0.763  0.00  0.00    +0.145 HD
ATOM     22  H   UNL     1       2.704  12.214   0.464  0.00  0.00    +0.145 HD
ENDBRANCH  11  20
BRANCH  10  23
ATOM     23  C   UNL     1       4.453  10.644   0.652  0.00  0.00    +0.101 C 
ATOM     24  N   UNL     1       5.330  11.286   0.321  0.00  0.00    -0.191 NA
ENDBRANCH  10  23
BRANCH   8  25
ATOM     25  C   UNL     1       1.155   4.098   1.456  0.00  0.00    +0.130 C 
BRANCH  25  26
ATOM     26  C   UNL     1       1.149   3.596   0.010  0.00  0.00    +0.057 C 
BRANCH  26  27
ATOM     27  C   UNL     1       1.171   2.089   0.002  0.00  0.00    -0.042 A 
ATOM     28  C   UNL     1       2.379   1.417  -0.013  0.00  0.00    +0.007 A 
ATOM     29  C   UNL     1       2.405   0.035  -0.021  0.00  0.00    +0.049 A 
ATOM     30  C   UNL     1       1.218  -0.680  -0.013  0.00  0.00    +0.158 A 
ATOM     31  C   UNL     1       0.002  -0.004   0.002  0.00  0.00    +0.158 A 
ATOM     32  C   UNL     1      -0.017   1.381   0.010  0.00  0.00    +0.052 A 
BRANCH  31  33
ATOM     33  O   UNL     1      -1.165  -0.702   0.010  0.00  0.00    -0.503 OA
ATOM     34  H   UNL     1      -1.512  -0.898  -0.871  0.00  0.00    +0.292 HD
ENDBRANCH  31  33
BRANCH  30  35
ATOM     35  O   UNL     1       1.242  -2.040  -0.021  0.00  0.00    -0.503 OA
ATOM     36  H   UNL     1       1.240  -2.428  -0.907  0.00  0.00    +0.292 HD
ENDBRANCH  30  35
ENDBRANCH  26  27
ENDBRANCH  25  26
ENDBRANCH   8  25
TORSDOF 8
