REMARK  Name = ZINC21272518
REMARK  10 active torsions:
REMARK  status: ('A' for Active; 'I' for Inactive)
REMARK    1  A    between atoms: C_1  and  C_2
REMARK    2  A    between atoms: C_5  and  N_8
REMARK    3  A    between atoms: C_9  and  N_14
REMARK    4  A    between atoms: C_11  and  C_13
REMARK    5  A    between atoms: C_15  and  C_17
REMARK    6  A    between atoms: C_17  and  S_18
REMARK    7  A    between atoms: S_18  and  C_19
REMARK    8  A    between atoms: C_22  and  C_25
REMARK    9  A    between atoms: N_23  and  N_24
REMARK   10  A    between atoms: C_29  and  C_30
REMARK                            x       y       z     vdW  Elec       q    Type
REMARK                         _______ _______ _______ _____ _____    ______ ____
ROOT
ATOM      1  N   UNL     1      -1.640  -1.854   0.008  0.00  0.00    -0.270 N 
ATOM      2  C   UNL     1      -1.412  -0.526   0.013  0.00  0.00    +0.229 C 
ATOM      3  O   UNL     1      -2.344   0.250   0.026  0.00  0.00    -0.275 OA
ATOM      4  H   UNL     1      -0.794  -2.557  -0.004  0.00  0.00    +0.156 HD
ENDROOT
BRANCH   1   6
ATOM      5  N   UNL     1      -3.324  -3.645   0.009  0.00  0.00    -0.218 N 
ATOM      6  C   UNL     1      -2.948  -2.337   0.018  0.00  0.00    +0.129 A 
ATOM      7  C   UNL     1      -4.084  -1.586   0.032  0.00  0.00    +0.068 A 
ATOM      8  C   UNL     1      -5.175  -2.459   0.038  0.00  0.00    +0.062 A 
ATOM      9  N   UNL     1      -4.724  -3.687   0.028  0.00  0.00    -0.170 NA
ATOM     10  C   UNL     1      -6.627  -2.054   0.053  0.00  0.00    +0.067 C 
BRANCH   5  15
ATOM     11  C   UNL     1       0.158  -8.126  -0.078  0.00  0.00    +0.044 C 
ATOM     12  C   UNL     1      -0.767  -6.936  -0.055  0.00  0.00    -0.050 A 
ATOM     13  C   UNL     1      -1.957  -7.000   0.646  0.00  0.00    +0.005 A 
ATOM     14  C   UNL     1      -2.806  -5.911   0.669  0.00  0.00    +0.028 A 
ATOM     15  C   UNL     1      -2.464  -4.751  -0.013  0.00  0.00    +0.067 A 
ATOM     16  C   UNL     1      -1.271  -4.691  -0.720  0.00  0.00    +0.028 A 
ATOM     17  C   UNL     1      -0.423  -5.781  -0.735  0.00  0.00    +0.005 A 
ENDBRANCH   5  15
ENDBRANCH   1   6
BRANCH   2  18
ATOM     18  C   UNL     1       0.002  -0.004   0.002  0.00  0.00    +0.173 C 
BRANCH  18  19
ATOM     19  S   UNL     1      -0.022   1.806   0.012  0.00  0.00    -0.075 S 
BRANCH  19  20
ATOM     20  C   UNL     1       1.708   2.135  -0.003  0.00  0.00    +0.209 A 
ATOM     21  N   UNL     1       2.671   1.243  -0.017  0.00  0.00    -0.121 NA
ATOM     22  N   UNL     1       3.816   1.827  -0.025  0.00  0.00    -0.127 NA
ATOM     23  C   UNL     1       3.654   3.130  -0.016  0.00  0.00    +0.185 A 
ATOM     24  N   UNL     1       2.299   3.368  -0.007  0.00  0.00    -0.224 N 
BRANCH  23  25
ATOM     25  C   UNL     1       4.726   4.149  -0.020  0.00  0.00    +0.061 A 
ATOM     26  C   UNL     1       4.562   5.608  -0.010  0.00  0.00    +0.053 A 
ATOM     27  C   UNL     1       5.803   6.121  -0.018  0.00  0.00    +0.196 A 
ATOM     28  O   UNL     1       6.692   5.116  -0.032  0.00  0.00    -0.467 OA
ATOM     29  C   UNL     1       6.068   3.929  -0.028  0.00  0.00    +0.112 A 
ATOM     30  C   UNL     1       6.740   2.580  -0.035  0.00  0.00    +0.087 C 
ENDBRANCH  23  25
BRANCH  24  31
ATOM     31  N   UNL     1       1.675   4.583  -0.001  0.00  0.00    -0.295 N 
ATOM     32  H   UNL     1       2.271   5.508  -0.006  0.00  0.00    +0.163 HD
ATOM     33  H   UNL     1       0.576   4.637   0.008  0.00  0.00    +0.163 HD
ENDBRANCH  24  31
ENDBRANCH  19  20
ENDBRANCH  18  19
ENDBRANCH   2  18
TORSDOF 7
