REMARK  Name = ZINC51153326
REMARK  3 active torsions:
REMARK  status: ('A' for Active; 'I' for Inactive)
REMARK    1  A    between atoms: C_4  and  C_7
REMARK    2  A    between atoms: C_11  and  N_13
REMARK    3  A    between atoms: N_13  and  N_14
REMARK                            x       y       z     vdW  Elec       q    Type
REMARK                         _______ _______ _______ _____ _____    ______ ____
ROOT
ATOM      1  C   UNL     1       1.591   4.298   0.010  0.00  0.00    +0.199 A 
ATOM      2  N   UNL     1       2.901   4.107  -0.009  0.00  0.00    -0.229 NA
ATOM      3  C   UNL     1       3.747   5.132  -0.014  0.00  0.00    +0.050 A 
ATOM      4  C   UNL     1       3.245   6.412  -0.003  0.00  0.00    +0.015 A 
ATOM      5  C   UNL     1       1.854   6.585   0.021  0.00  0.00    +0.139 A 
ATOM      6  N   UNL     1       1.068   5.516   0.021  0.00  0.00    -0.208 NA
ATOM      7  C   UNL     1       4.123   7.632  -0.022  0.00  0.00    +0.040 C 
ATOM      8  C   UNL     1       5.551   7.269   0.381  0.00  0.00    +0.005 C 
ATOM      9  C   UNL     1       6.007   6.077  -0.468  0.00  0.00    +0.006 C 
ATOM     10  C   UNL     1       5.223   4.841  -0.028  0.00  0.00    +0.056 C 
ENDROOT
BRANCH   1  14
ATOM     11  C   UNL     1      -0.013   1.076   0.008  0.00  0.00    +0.245 A 
ATOM     12  N   UNL     1       1.060   1.860   0.002  0.00  0.00    -0.212 NA
ATOM     13  H   UNL     1      -1.226   3.948   0.034  0.00  0.00    +0.191 HD
ATOM     14  C   UNL     1       0.689   3.124   0.012  0.00  0.00    +0.194 A 
ATOM     15  N   UNL     1      -0.663   3.158   0.025  0.00  0.00    -0.256 N 
ATOM     16  N   UNL     1      -1.090   1.819   0.017  0.00  0.00    -0.161 NA
ENDBRANCH   1  14
BRANCH   5  17
ATOM     17  N   UNL     1       1.307   7.858   0.039  0.00  0.00    -0.267 N 
ATOM     18  H   UNL     1       1.887   8.635   0.036  0.00  0.00    +0.167 HD
BRANCH  17  19
ATOM     19  N   UNL     1      -0.049   8.018   0.062  0.00  0.00    -0.255 NA
ATOM     20  H   UNL     1      -0.458   7.532   0.847  0.00  0.00    +0.140 HD
ATOM     21  H   UNL     1      -0.298   8.996   0.073  0.00  0.00    +0.140 HD
ENDBRANCH  17  19
ENDBRANCH   5  17
TORSDOF 3
