REMARK  Name = ZINC37606960
REMARK  3 active torsions:
REMARK  status: ('A' for Active; 'I' for Inactive)
REMARK    1  A    between atoms: C_3  and  N_19
REMARK    2  A    between atoms: C_5  and  N_7
REMARK    3  A    between atoms: N_11  and  C_14
REMARK                            x       y       z     vdW  Elec       q    Type
REMARK                         _______ _______ _______ _____ _____    ______ ____
ROOT
ATOM      1  N   UNL     1       1.231  -2.086  -0.021  0.00  0.00    -0.193 N 
ATOM      2  C   UNL     1       2.351  -2.828  -0.128  0.00  0.00    +0.245 C 
ATOM      3  O   UNL     1       3.489  -2.425  -0.231  0.00  0.00    -0.273 OA
ATOM      4  C   UNL     1       1.890  -4.272  -0.091  0.00  0.00    +0.206 C 
ATOM      5  N   UNL     1       0.427  -4.165   0.044  0.00  0.00    -0.273 N 
ATOM      6  C   UNL     1       0.139  -2.852   0.081  0.00  0.00    +0.316 C 
ATOM      7  O   UNL     1      -0.988  -2.410   0.192  0.00  0.00    -0.252 OA
ENDROOT
BRANCH   1  12
ATOM      8  C   UNL     1       2.391   1.408   0.011  0.00  0.00    +0.004 A 
ATOM      9  C   UNL     1       1.188   2.087   0.004  0.00  0.00    +0.023 A 
ATOM     10  C   UNL     1      -0.009   1.383  -0.012  0.00  0.00    +0.026 A 
ATOM     11  C   UNL     1       0.004  -0.005  -0.020  0.00  0.00    +0.046 A 
ATOM     12  C   UNL     1       1.213  -0.684  -0.013  0.00  0.00    +0.047 A 
ATOM     13  C   UNL     1       2.407   0.026   0.002  0.00  0.00    +0.024 A 
BRANCH  10  14
ATOM     14  N   UNL     1      -1.225   2.071  -0.018  0.00  0.00    -0.358 N 
ATOM     15  H   UNL     1      -1.234   3.041  -0.012  0.00  0.00    +0.142 HD
ATOM     16  H   UNL     1      -2.061   1.578  -0.029  0.00  0.00    +0.142 HD
ENDBRANCH  10  14
ENDBRANCH   1  12
BRANCH   5  17
ATOM     17  C   UNL     1      -0.527  -5.274   0.127  0.00  0.00    +0.078 C 
ATOM     18  C   UNL     1      -1.575  -5.154  -0.999  0.00  0.00    +0.022 C 
ATOM     19  C   UNL     1      -2.895  -5.627  -0.341  0.00  0.00    +0.002 C 
ATOM     20  C   UNL     1      -2.791  -5.047   1.092  0.00  0.00    +0.002 C 
ATOM     21  C   UNL     1      -1.300  -5.206   1.456  0.00  0.00    +0.022 C 
ENDBRANCH   5  17
TORSDOF 3
