REMARK  Name = ZINC40824483
REMARK  6 active torsions:
REMARK  status: ('A' for Active; 'I' for Inactive)
REMARK    1  A    between atoms: C_1  and  C_2
REMARK    2  A    between atoms: C_6  and  C_7
REMARK    3  A    between atoms: C_17  and  C_19
REMARK    4  A    between atoms: N_24  and  N_25
REMARK    5  A    between atoms: N_25  and  C_26
REMARK    6  A    between atoms: C_26  and  N_28
REMARK                            x       y       z     vdW  Elec       q    Type
REMARK                         _______ _______ _______ _____ _____    ______ ____
ROOT
ATOM      1  C   UNL     1       0.300   1.260  -0.247  0.00  0.00    +0.048 C 
ATOM      2  C   UNL     1       0.072  -0.227  -0.163  0.00  0.00    +0.009 A 
ATOM      3  C   UNL     1      -0.016  -1.126  -1.233  0.00  0.00    +0.042 A 
ATOM      4  C   UNL     1      -0.230  -2.377  -0.705  0.00  0.00    +0.115 A 
ATOM      5  O   UNL     1      -0.270  -2.263   0.621  0.00  0.00    -0.454 OA
ATOM      6  C   UNL     1      -0.085  -0.971   0.974  0.00  0.00    +0.193 A 
ATOM      7  C   UNL     1      -0.385  -3.611  -1.557  0.00  0.00    +0.075 C 
ATOM      8  C   UNL     1      -0.779  -3.202  -2.979  0.00  0.00    +0.014 C 
ATOM      9  C   UNL     1       0.202  -2.164  -3.534  0.00  0.00    +0.058 C 
ATOM     10  C   UNL     1       0.085  -0.901  -2.692  0.00  0.00    +0.070 C 
ATOM     11  N   UNL     1       0.076   0.285  -3.216  0.00  0.00    -0.185 NA
ENDROOT
BRANCH   6  12
ATOM     12  C   UNL     1      -0.061  -0.453   2.346  0.00  0.00    +0.287 C 
ATOM     13  O   UNL     1      -0.013   0.747   2.543  0.00  0.00    -0.266 OA
ATOM     14  N   UNL     1      -0.091  -1.306   3.389  0.00  0.00    -0.262 N 
ATOM     15  C   UNL     1      -0.180  -0.928   4.731  0.00  0.00    +0.040 A 
ATOM     16  C   UNL     1      -0.255   0.351   5.287  0.00  0.00    +0.024 A 
ATOM     17  C   UNL     1      -0.337   0.511   6.654  0.00  0.00    +0.002 A 
ATOM     18  C   UNL     1      -0.346  -0.594   7.485  0.00  0.00    +0.000 A 
ATOM     19  C   UNL     1      -0.273  -1.863   6.942  0.00  0.00    +0.005 A 
ATOM     20  C   UNL     1      -0.190  -2.029   5.573  0.00  0.00    -0.024 A 
ATOM     21  C   UNL     1      -0.099  -3.280   4.729  0.00  0.00    +0.059 C 
ATOM     22  C   UNL     1      -0.041  -2.767   3.281  0.00  0.00    +0.083 C 
ATOM     23  C   UNL     1       1.266  -3.205   2.618  0.00  0.00    +0.029 C 
ENDBRANCH   6  12
BRANCH  11  24
ATOM     24  N   UNL     1       0.175   0.439  -4.605  0.00  0.00    -0.218 N 
ATOM     25  H   UNL     1       0.251  -0.342  -5.175  0.00  0.00    +0.176 HD
BRANCH  24  26
ATOM     26  C   UNL     1       0.166   1.672  -5.149  0.00  0.00    +0.147 C 
ATOM     27  S   UNL     1       0.287   1.859  -6.847  0.00  0.00    -0.017 S 
BRANCH  26  28
ATOM     28  N   UNL     1       0.061   2.757  -4.357  0.00  0.00    -0.339 N 
ATOM     29  H   UNL     1      -0.008   2.651  -3.396  0.00  0.00    +0.144 HD
ATOM     30  H   UNL     1       0.054   3.645  -4.749  0.00  0.00    +0.144 HD
ENDBRANCH  26  28
ENDBRANCH  24  26
ENDBRANCH  11  24
TORSDOF 4
