REMARK  Name = ZINC40685051
REMARK  4 active torsions:
REMARK  status: ('A' for Active; 'I' for Inactive)
REMARK    1  A    between atoms: C_6  and  N_7
REMARK    2  A    between atoms: C_9  and  N_23
REMARK    3  A    between atoms: C_10  and  N_14
REMARK    4  A    between atoms: N_14  and  C_15
REMARK                            x       y       z     vdW  Elec       q    Type
REMARK                         _______ _______ _______ _____ _____    ______ ____
ROOT
ATOM      1  N   UNL     1      -1.179  -0.689   0.339  0.00  0.00    -0.298 N 
ATOM      2  C   UNL     1      -2.396  -0.028   0.458  0.00  0.00    +0.149 A 
ATOM      3  C   UNL     1      -3.597  -0.739   0.407  0.00  0.00    +0.106 A 
ATOM      4  C   UNL     1      -4.791  -0.026   0.532  0.00  0.00    +0.149 A 
ATOM      5  N   UNL     1      -4.739   1.295   0.693  0.00  0.00    -0.219 NA
ATOM      6  C   UNL     1      -3.584   1.927   0.736  0.00  0.00    +0.225 A 
ATOM      7  N   UNL     1      -2.435   1.292   0.628  0.00  0.00    -0.219 NA
ATOM      8  H   UNL     1      -1.160  -1.639   0.145  0.00  0.00    +0.154 HD
ENDROOT
BRANCH   1  14
ATOM      9  C   UNL     1       0.084   1.085   1.385  0.00  0.00    +0.027 A 
ATOM     10  C   UNL     1       1.266   1.782   1.544  0.00  0.00    +0.051 A 
ATOM     11  C   UNL     1       2.390   1.419   0.820  0.00  0.00    +0.166 A 
ATOM     12  C   UNL     1       2.329   0.349  -0.069  0.00  0.00    +0.168 A 
ATOM     13  C   UNL     1       1.144  -0.350  -0.227  0.00  0.00    +0.072 A 
ATOM     14  C   UNL     1       0.019   0.017   0.499  0.00  0.00    +0.036 A 
ATOM     15  O   UNL     1       3.554   0.195  -0.652  0.00  0.00    -0.453 OA
ATOM     16  C   UNL     1       4.250   1.434  -0.417  0.00  0.00    +0.466 C 
ATOM     17  O   UNL     1       3.654   1.936   0.794  0.00  0.00    -0.453 OA
ENDBRANCH   1  14
BRANCH   3  18
ATOM     18  N   UNL     1      -3.603  -2.132   0.235  0.00  0.00    -0.353 N 
ATOM     19  H   UNL     1      -2.766  -2.614   0.150  0.00  0.00    +0.143 HD
ATOM     20  H   UNL     1      -4.445  -2.612   0.202  0.00  0.00    +0.143 HD
ENDBRANCH   3  18
BRANCH   4  21
ATOM     21  N   UNL     1      -6.014  -0.684   0.488  0.00  0.00    -0.298 N 
ATOM     22  H   UNL     1      -6.042  -1.653   0.449  0.00  0.00    +0.154 HD
BRANCH  21  23
ATOM     23  C   UNL     1      -7.205   0.050   0.500  0.00  0.00    +0.034 A 
ATOM     24  C   UNL     1      -8.335  -0.467   1.121  0.00  0.00    +0.026 A 
ATOM     25  C   UNL     1      -9.509   0.259   1.132  0.00  0.00    +0.041 A 
ATOM     26  C   UNL     1      -9.562   1.502   0.524  0.00  0.00    +0.142 A 
ATOM     27  C   UNL     1      -8.436   2.021  -0.096  0.00  0.00    +0.078 A 
ATOM     28  C   UNL     1      -7.257   1.299  -0.104  0.00  0.00    +0.046 A 
ATOM     29 CL   UNL     1      -8.505   3.579  -0.857  0.00  0.00    -0.081 Cl
ATOM     30  F   UNL     1     -10.712   2.211   0.536  0.00  0.00    -0.204 F 
ENDBRANCH  21  23
ENDBRANCH   4  21
TORSDOF 4
