REMARK  Name = ZINC40510038
REMARK  5 active torsions:
REMARK  status: ('A' for Active; 'I' for Inactive)
REMARK    1  A    between atoms: C_1  and  C_2
REMARK    2  A    between atoms: C_4  and  C_20
REMARK    3  A    between atoms: C_7  and  C_8
REMARK    4  A    between atoms: C_8  and  N_10
REMARK    5  A    between atoms: N_11  and  C_12
REMARK                            x       y       z     vdW  Elec       q    Type
REMARK                         _______ _______ _______ _____ _____    ______ ____
ROOT
ATOM      1  C   UNL     1      -0.096   1.498  -0.045  0.00  0.00    +0.044 C 
ATOM      2  C   UNL     1      -0.033  -0.007  -0.024  0.00  0.00    -0.036 A 
ATOM      3  C   UNL     1      -0.105  -0.736  -1.198  0.00  0.00    +0.025 A 
ATOM      4  C   UNL     1      -0.044  -2.117  -1.147  0.00  0.00    +0.015 A 
ATOM      5  N   UNL     1       0.080  -2.754   0.002  0.00  0.00    -0.347 N 
ATOM      6  C   UNL     1       0.153  -2.107   1.154  0.00  0.00    +0.106 A 
ATOM      7  C   UNL     1       0.105  -0.702   1.183  0.00  0.00    +0.044 A 
ATOM      8  N   UNL     1       0.283  -2.816   2.334  0.00  0.00    -0.326 N 
ATOM      9  C   UNL     1      -0.123  -2.909  -2.427  0.00  0.00    +0.063 C 
ATOM     10  H   UNL     1       0.281  -2.348   3.184  0.00  0.00    +0.148 HD
ATOM     11  H   UNL     1       0.119  -3.724   0.002  0.00  0.00    +0.167 HD
ENDROOT
BRANCH   8  12
ATOM     12  C   UNL     1       0.424  -4.274   2.302  0.00  0.00    +0.094 C 
ATOM     13  C   UNL     1       1.905  -4.639   2.103  0.00  0.00    +0.046 C 
ATOM     14  C   UNL     1       2.071  -6.160   2.384  0.00  0.00    +0.168 C 
ATOM     15  S   UNL     1       0.975  -6.353   3.852  0.00  0.00    -0.029 S 
ATOM     16  O   UNL     1       0.182  -7.521   3.687  0.00  0.00    -0.174 OA
ATOM     17  O   UNL     1       1.750  -6.195   5.032  0.00  0.00    -0.174 OA
ATOM     18  C   UNL     1      -0.090  -4.870   3.634  0.00  0.00    +0.188 C 
ENDBRANCH   8  12
BRANCH   7  19
ATOM     19  C   UNL     1       0.192   0.025   2.461  0.00  0.00    +0.080 C 
ATOM     20  S   UNL     1       1.704   0.605   3.015  0.00  0.00    -0.035 S 
BRANCH  19  21
ATOM     21  N   UNL     1      -0.919   0.233   3.195  0.00  0.00    -0.352 N 
ATOM     22  H   UNL     1      -1.786  -0.030   2.848  0.00  0.00    +0.143 HD
ATOM     23  H   UNL     1      -0.852   0.645   4.071  0.00  0.00    +0.143 HD
ENDBRANCH  19  21
ENDBRANCH   7  19
TORSDOF 3
