REMARK  Name = ZINC43415531
REMARK  5 active torsions:
REMARK  status: ('A' for Active; 'I' for Inactive)
REMARK    1  A    between atoms: C_1  and  C_2
REMARK    2  A    between atoms: C_5  and  O_7
REMARK    3  A    between atoms: O_7  and  C_8
REMARK    4  A    between atoms: C_9  and  N_17
REMARK    5  A    between atoms: C_11  and  C_15
REMARK                            x       y       z     vdW  Elec       q    Type
REMARK                         _______ _______ _______ _____ _____    ______ ____
ROOT
ATOM      1  C   UNL     1       0.070  -4.202   1.900  0.00  0.00    +0.164 A 
ATOM      2  C   UNL     1      -1.131  -4.901   1.766  0.00  0.00    +0.070 A 
ATOM      3  C   UNL     1      -1.114  -6.258   1.500  0.00  0.00    +0.045 A 
ATOM      4  C   UNL     1       0.107  -6.925   1.366  0.00  0.00    +0.055 A 
ATOM      5  C   UNL     1       1.304  -6.219   1.501  0.00  0.00    +0.037 A 
ATOM      6  C   UNL     1       1.281  -4.864   1.761  0.00  0.00    +0.059 A 
ATOM      7  I   UNL     1       3.079  -3.807   1.954  0.00  0.00    -0.040 I 
ENDROOT
BRANCH   2   8
ATOM      8  N   UNL     1      -2.351  -4.229   1.901  0.00  0.00    -0.355 N 
ATOM      9  H   UNL     1      -2.362  -3.277   2.088  0.00  0.00    +0.142 HD
ATOM     10  H   UNL     1      -3.185  -4.715   1.808  0.00  0.00    +0.142 HD
ENDBRANCH   2   8
BRANCH   4  11
ATOM     11  C   UNL     1       0.130  -8.331   1.091  0.00  0.00    +0.099 C 
ATOM     12  N   UNL     1       0.148  -9.445   0.873  0.00  0.00    -0.191 NA
ENDBRANCH   4  11
BRANCH   1  13
ATOM     13  O   UNL     1       0.053  -2.869   2.161  0.00  0.00    -0.430 OA
BRANCH  13  18
ATOM     14  C   UNL     1      -0.018   1.503   0.010  0.00  0.00    +0.066 C 
ATOM     15  C   UNL     1       0.002  -0.004   0.002  0.00  0.00    +0.049 A 
ATOM     16  C   UNL     1       0.006  -0.706  -1.158  0.00  0.00    +0.073 A 
ATOM     17  S   UNL     1       0.032  -2.378  -0.534  0.00  0.00    -0.037 S 
ATOM     18  C   UNL     1       0.036  -2.014   1.109  0.00  0.00    +0.262 A 
ATOM     19  N   UNL     1       0.023  -0.700   1.124  0.00  0.00    -0.211 NA
ENDBRANCH  13  18
ENDBRANCH   1  13
TORSDOF 4
