REMARK  Name = ZINC44762329
REMARK  3 active torsions:
REMARK  status: ('A' for Active; 'I' for Inactive)
REMARK    1  A    between atoms: C_12  and  C_14
REMARK    2  A    between atoms: C_14  and  C_20
REMARK    3  A    between atoms: C_20  and  N_21
REMARK                            x       y       z     vdW  Elec       q    Type
REMARK                         _______ _______ _______ _____ _____    ______ ____
ROOT
ATOM      1  C   UNL     1       1.218   3.421   0.010  0.00  0.00    +0.002 A 
ATOM      2  C   UNL     1       1.395   2.476  -0.985  0.00  0.00    +0.002 A 
ATOM      3  C   UNL     1       2.549   1.714  -1.023  0.00  0.00    +0.025 A 
ATOM      4  C   UNL     1       3.526   1.900  -0.061  0.00  0.00    +0.058 A 
ATOM      5  C   UNL     1       3.348   2.850   0.945  0.00  0.00    +0.055 A 
ATOM      6  C   UNL     1       2.190   3.611   0.974  0.00  0.00    +0.025 A 
ATOM      7  N   UNL     1       4.340   3.019   1.918  0.00  0.00    -0.283 N 
ATOM      8  C   UNL     1       5.569   2.498   1.745  0.00  0.00    +0.235 C 
ATOM      9  O   UNL     1       6.400   2.619   2.620  0.00  0.00    -0.274 OA
ATOM     10  C   UNL     1       5.925   1.764   0.477  0.00  0.00    +0.209 C 
ATOM     11  N   UNL     1       4.710   1.147  -0.076  0.00  0.00    -0.260 N 
ATOM     12  C   UNL     1       4.734  -0.102  -0.581  0.00  0.00    +0.225 C 
ATOM     13  O   UNL     1       3.705  -0.625  -0.954  0.00  0.00    -0.275 OA
ATOM     14  H   UNL     1       4.139   3.518   2.726  0.00  0.00    +0.155 HD
ENDROOT
BRANCH  12  15
ATOM     15  C   UNL     1       6.039  -0.849  -0.683  0.00  0.00    +0.036 C 
ATOM     16  C   UNL     1       5.837  -2.121  -1.512  0.00  0.00    +0.042 C 
ATOM     17  C   UNL     1       5.425  -1.734  -2.935  0.00  0.00    +0.161 C 
ATOM     18  O   UNL     1       6.425  -0.887  -3.505  0.00  0.00    -0.380 OA
ATOM     19  C   UNL     1       6.623   0.339  -2.799  0.00  0.00    +0.161 C 
ATOM     20  C   UNL     1       7.083   0.035  -1.371  0.00  0.00    +0.042 C 
BRANCH  15  21
ATOM     21  C   UNL     1       6.526  -1.222   0.719  0.00  0.00    -0.070 C 
BRANCH  21  22
ATOM     22  N   UNL     1       5.595  -2.185   1.321  0.00  0.00    +0.379 N 
ATOM     23  H   UNL     1       4.696  -1.746   1.454  0.00  0.00    -0.090 HD
ATOM     24  H   UNL     1       5.493  -2.982   0.710  0.00  0.00    -0.090 HD
ATOM     25  H   UNL     1       5.956  -2.489   2.213  0.00  0.00    -0.090 HD
ENDBRANCH  21  22
ENDBRANCH  15  21
ENDBRANCH  12  15
TORSDOF 3
