REMARK  Name = ZINC36290333
REMARK  4 active torsions:
REMARK  status: ('A' for Active; 'I' for Inactive)
REMARK    1  A    between atoms: C_1  and  C_2
REMARK    2  A    between atoms: C_5  and  C_8
REMARK    3  A    between atoms: C_9  and  N_17
REMARK    4  A    between atoms: C_11  and  C_16
REMARK                            x       y       z     vdW  Elec       q    Type
REMARK                         _______ _______ _______ _____ _____    ______ ____
ROOT
ATOM      1  C   UNL     1       0.058  -4.253  -0.021  0.00  0.00    +0.112 A 
ATOM      2  C   UNL     1       0.700  -5.052   0.876  0.00  0.00    +0.129 A 
ATOM      3  N   UNL     1       0.464  -6.371   0.507  0.00  0.00    -0.279 N 
ATOM      4  C   UNL     1       0.796  -7.636   0.950  0.00  0.00    +0.031 A 
ATOM      5  C   UNL     1       0.365  -8.719   0.307  0.00  0.00    +0.070 A 
ATOM      6  S   UNL     1      -0.583  -8.006  -1.028  0.00  0.00    -0.057 S 
ATOM      7  C   UNL     1      -0.325  -6.296  -0.617  0.00  0.00    +0.179 A 
ATOM      8  N   UNL     1      -0.567  -5.057  -0.922  0.00  0.00    -0.219 NA
ATOM      9  C   UNL     1       1.658  -7.793   2.176  0.00  0.00    +0.064 C 
ENDROOT
BRANCH   1  14
ATOM     10  C   UNL     1      -0.018   1.503   0.010  0.00  0.00    +0.044 C 
ATOM     11  C   UNL     1       0.002  -0.004   0.002  0.00  0.00    -0.050 A 
ATOM     12  C   UNL     1       0.006  -0.686  -1.202  0.00  0.00    +0.004 A 
ATOM     13  C   UNL     1       0.024  -2.066  -1.216  0.00  0.00    +0.010 A 
ATOM     14  C   UNL     1       0.039  -2.773  -0.013  0.00  0.00    +0.004 A 
ATOM     15  C   UNL     1       0.036  -2.079   1.197  0.00  0.00    +0.010 A 
ATOM     16  C   UNL     1       0.023  -0.699   1.198  0.00  0.00    +0.004 A 
ENDBRANCH   1  14
BRANCH   2  17
ATOM     17  N   UNL     1       1.458  -4.623   1.967  0.00  0.00    -0.342 N 
ATOM     18  H   UNL     1       1.564  -3.675   2.142  0.00  0.00    +0.144 HD
ATOM     19  H   UNL     1       1.878  -5.273   2.551  0.00  0.00    +0.144 HD
ENDBRANCH   2  17
TORSDOF 2
