REMARK  Name = ZINC05026024
REMARK  4 active torsions:
REMARK  status: ('A' for Active; 'I' for Inactive)
REMARK    1  A    between atoms: C_1  and  C_2
REMARK    2  A    between atoms: C_2  and  C_24
REMARK    3  A    between atoms: C_9  and  O_21
REMARK    4  A    between atoms: C_11  and  C_14
REMARK                            x       y       z     vdW  Elec       q    Type
REMARK                         _______ _______ _______ _____ _____    ______ ____
ROOT
ATOM      1  C   UNL     1      -0.019   1.526   0.010  0.00  0.00    +0.041 C 
ATOM      2  C   UNL     1       0.002  -0.004   0.002  0.00  0.00    +0.068 C 
ATOM      3  C   UNL     1      -1.437  -0.531  -0.005  0.00  0.00    +0.071 C 
ATOM      4  C   UNL     1      -2.050  -0.240   1.358  0.00  0.00    -0.018 A 
ATOM      5  C   UNL     1      -1.250   0.054   2.411  0.00  0.00    +0.021 A 
ATOM      6  S   UNL     1      -2.361   0.319   3.762  0.00  0.00    -0.075 S 
ATOM      7  C   UNL     1      -3.804   0.061   2.985  0.00  0.00    +0.080 A 
ATOM      8  C   UNL     1      -3.467  -0.243   1.659  0.00  0.00    +0.068 A 
ATOM      9  C   UNL     1      -4.581  -0.539   0.722  0.00  0.00    +0.220 C 
ATOM     10  N   UNL     1      -5.794  -0.256   1.113  0.00  0.00    -0.223 NA
ATOM     11  C   UNL     1      -6.126   0.387   2.378  0.00  0.00    +0.224 C 
ATOM     12  N   UNL     1      -5.112   0.108   3.411  0.00  0.00    -0.313 N 
ATOM     13  C   UNL     1       0.244   0.126   2.386  0.00  0.00    +0.203 C 
ATOM     14  O   UNL     1       0.694  -0.475   1.161  0.00  0.00    -0.368 OA
ATOM     15  C   UNL     1       0.725  -0.494  -1.254  0.00  0.00    +0.041 C 
ATOM     16  H   UNL     1      -5.353  -0.035   4.340  0.00  0.00    +0.149 HD
ENDROOT
BRANCH  11  17
ATOM     17  C   UNL     1      -6.212   1.876   2.165  0.00  0.00    -0.005 A 
ATOM     18  C   UNL     1      -5.893   2.741   3.195  0.00  0.00    +0.008 A 
ATOM     19  C   UNL     1      -5.971   4.107   3.000  0.00  0.00    +0.015 A 
ATOM     20  C   UNL     1      -6.370   4.609   1.774  0.00  0.00    +0.018 A 
ATOM     21  C   UNL     1      -6.690   3.743   0.744  0.00  0.00    +0.015 A 
ATOM     22  C   UNL     1      -6.606   2.377   0.939  0.00  0.00    +0.008 A 
ATOM     23 BR   UNL     1      -6.479   6.478   1.507  0.00  0.00    -0.050 Br
ENDBRANCH  11  17
BRANCH   9  24
ATOM     24  O   UNL     1      -4.347  -1.082  -0.495  0.00  0.00    -0.492 OA
ATOM     25  H   UNL     1      -5.145  -1.231  -1.020  0.00  0.00    +0.294 HD
ENDBRANCH   9  24
TORSDOF 2
