REMARK  Name = ZINC36231761
REMARK  6 active torsions:
REMARK  status: ('A' for Active; 'I' for Inactive)
REMARK    1  A    between atoms: C_1  and  C_2
REMARK    2  A    between atoms: C_2  and  C_19
REMARK    3  A    between atoms: C_8  and  C_10
REMARK    4  A    between atoms: C_10  and  O_11
REMARK    5  A    between atoms: O_11  and  C_12
REMARK    6  A    between atoms: C_17  and  N_18
REMARK                            x       y       z     vdW  Elec       q    Type
REMARK                         _______ _______ _______ _____ _____    ______ ____
ROOT
ATOM      1  C   UNL     1      -3.833   0.732   2.741  0.00  0.00    +0.324 C 
ENDROOT
BRANCH   1   9
ATOM      2  C   UNL     1      -0.019   1.526   0.010  0.00  0.00    +0.043 C 
ATOM      3  C   UNL     1       0.002  -0.004   0.002  0.00  0.00    +0.080 C 
ATOM      4  C   UNL     1      -1.436  -0.536   0.019  0.00  0.00    +0.142 C 
ATOM      5  N   UNL     1      -2.037  -0.205   1.321  0.00  0.00    -0.294 N 
ATOM      6  C   UNL     1      -1.289  -0.558   2.538  0.00  0.00    +0.136 C 
ATOM      7  C   UNL     1       0.141  -0.025   2.398  0.00  0.00    +0.179 C 
ATOM      8  O   UNL     1       0.693  -0.479   1.160  0.00  0.00    -0.371 OA
ATOM      9  C   UNL     1      -3.237   0.404   1.396  0.00  0.00    +0.253 C 
ATOM     10  O   UNL     1      -3.838   0.687   0.381  0.00  0.00    -0.272 OA
ATOM     11  C   UNL     1       0.716  -0.499  -1.258  0.00  0.00    +0.043 C 
ENDBRANCH   1   9
BRANCH   1  12
ATOM     12  O   UNL     1      -5.099   1.369   2.558  0.00  0.00    -0.481 OA
BRANCH  12  13
ATOM     13  C   UNL     1      -5.775   1.733   3.681  0.00  0.00    +0.142 A 
ATOM     14  C   UNL     1      -5.228   1.489   4.930  0.00  0.00    +0.047 A 
ATOM     15  C   UNL     1      -5.916   1.859   6.071  0.00  0.00    +0.004 A 
ATOM     16  C   UNL     1      -7.150   2.475   5.969  0.00  0.00    +0.002 A 
ATOM     17  C   UNL     1      -7.702   2.723   4.726  0.00  0.00    +0.026 A 
ATOM     18  C   UNL     1      -7.015   2.359   3.578  0.00  0.00    +0.067 A 
BRANCH  18  19
ATOM     19  N   UNL     1      -7.569   2.614   2.318  0.00  0.00    -0.355 N 
ATOM     20  H   UNL     1      -7.090   2.355   1.516  0.00  0.00    +0.142 HD
ATOM     21  H   UNL     1      -8.433   3.049   2.248  0.00  0.00    +0.142 HD
ENDBRANCH  18  19
ENDBRANCH  12  13
ENDBRANCH   1  12
TORSDOF 4
