REMARK  Name = ZINC54135746
REMARK  8 active torsions:
REMARK  status: ('A' for Active; 'I' for Inactive)
REMARK    1  A    between atoms: C_1  and  S_2
REMARK    2  A    between atoms: S_2  and  C_3
REMARK    3  A    between atoms: C_3  and  C_4
REMARK    4  A    between atoms: C_4  and  C_5
REMARK    5  A    between atoms: C_5  and  C_6
REMARK    6  A    between atoms: C_5  and  N_24
REMARK    7  A    between atoms: N_8  and  C_9
REMARK    8  A    between atoms: C_13  and  C_15
REMARK                            x       y       z     vdW  Elec       q    Type
REMARK                         _______ _______ _______ _____ _____    ______ ____
ROOT
ATOM      1  C   UNL     1       1.746  -3.714  -3.756  0.00  0.00    +0.238 C 
ATOM      2  O   UNL     1       2.775  -4.303  -4.009  0.00  0.00    -0.273 OA
ATOM      3  N   UNL     1       0.587  -4.394  -3.657  0.00  0.00    -0.284 N 
ATOM      4  H   UNL     1      -0.224  -3.934  -3.389  0.00  0.00    +0.155 HD
ENDROOT
BRANCH   3   5
ATOM      5  C   UNL     1       0.553  -5.764  -3.941  0.00  0.00    +0.034 A 
ATOM      6  C   UNL     1       1.637  -6.569  -3.613  0.00  0.00    +0.023 A 
ATOM      7  C   UNL     1       1.607  -7.922  -3.892  0.00  0.00    +0.002 A 
ATOM      8  C   UNL     1       0.500  -8.482  -4.497  0.00  0.00    +0.010 A 
ATOM      9  C   UNL     1      -0.592  -7.682  -4.830  0.00  0.00    +0.001 A 
ATOM     10  C   UNL     1      -0.565  -6.319  -4.544  0.00  0.00    +0.033 A 
BRANCH   9  11
ATOM     11  C   UNL     1      -1.783  -8.282  -5.481  0.00  0.00    +0.064 A 
ATOM     12  C   UNL     1      -2.908  -7.619  -5.862  0.00  0.00    +0.113 A 
ATOM     13  N   UNL     1      -3.737  -8.547  -6.414  0.00  0.00    -0.335 N 
ATOM     14  C   UNL     1      -3.107  -9.745  -6.358  0.00  0.00    +0.087 A 
ATOM     15  N   UNL     1      -1.941  -9.582  -5.808  0.00  0.00    -0.343 N 
ATOM     16  C   UNL     1      -3.702 -11.036  -6.871  0.00  0.00    +0.072 C 
ATOM     17  C   UNL     1      -5.209 -10.826  -7.064  0.00  0.00    +0.009 C 
ATOM     18  C   UNL     1      -5.442  -9.533  -7.851  0.00  0.00    +0.022 C 
ATOM     19  C   UNL     1      -5.073  -8.330  -6.976  0.00  0.00    +0.123 C 
ATOM     20  H   UNL     1      -1.289 -10.284  -5.654  0.00  0.00    +0.167 HD
ENDBRANCH   9  11
ENDBRANCH   3   5
BRANCH   1  21
ATOM     21  C   UNL     1       1.764  -2.220  -3.552  0.00  0.00    +0.161 C 
BRANCH  21  22
ATOM     22  N   UNL     1       2.973  -1.659  -4.159  0.00  0.00    -0.288 N 
ATOM     23  C   UNL     1       4.188  -2.060  -3.736  0.00  0.00    +0.298 C 
ATOM     24  O   UNL     1       4.281  -2.887  -2.850  0.00  0.00    -0.253 OA
ATOM     25  N   UNL     1       5.300  -1.543  -4.295  0.00  0.00    -0.313 N 
ATOM     26  H   UNL     1       2.899  -0.999  -4.866  0.00  0.00    +0.151 HD
ATOM     27  H   UNL     1       5.226  -0.883  -5.001  0.00  0.00    +0.146 HD
ATOM     28  H   UNL     1       6.175  -1.831  -3.990  0.00  0.00    +0.146 HD
ENDBRANCH  21  22
BRANCH  21  29
ATOM     29  C   UNL     1       1.754  -1.910  -2.054  0.00  0.00    +0.042 C 
BRANCH  29  30
ATOM     30  C   UNL     1       1.646  -0.398  -1.847  0.00  0.00    +0.071 C 
BRANCH  30  32
ATOM     31  C   UNL     1       1.503   1.778   0.002  0.00  0.00    +0.084 C 
ATOM     32  S   UNL     1       1.634  -0.030  -0.071  0.00  0.00    -0.164 S 
ENDBRANCH  30  32
ENDBRANCH  29  30
ENDBRANCH  21  29
ENDBRANCH   1  21
TORSDOF 7
