REMARK  Name = ZINC21914624
REMARK  8 active torsions:
REMARK  status: ('A' for Active; 'I' for Inactive)
REMARK    1  A    between atoms: C_1  and  C_2
REMARK    2  A    between atoms: C_3  and  C_13
REMARK    3  A    between atoms: C_4  and  C_12
REMARK    4  A    between atoms: C_13  and  C_14
REMARK    5  A    between atoms: N_16  and  C_17
REMARK    6  A    between atoms: N_16  and  C_18
REMARK    7  A    between atoms: C_18  and  C_19
REMARK    8  A    between atoms: N_21  and  C_22
REMARK                            x       y       z     vdW  Elec       q    Type
REMARK                         _______ _______ _______ _____ _____    ______ ____
ROOT
ATOM      1  C   UNL     1      -1.763   2.333   1.447  0.00  0.00    +0.220 C 
ATOM      2  O   UNL     1      -1.079   1.934   2.365  0.00  0.00    -0.275 OA
ATOM      3  N   UNL     1      -2.910   2.994   1.698  0.00  0.00    -0.295 N 
ATOM      4  C   UNL     1      -3.736   3.476   0.589  0.00  0.00    +0.132 C 
ENDROOT
BRANCH   1   5
ATOM      5  C   UNL     1      -1.330   2.091   0.024  0.00  0.00    +0.134 C 
BRANCH   5   8
ATOM      6  C   UNL     1       1.198   3.536   0.023  0.00  0.00    +0.066 C 
ATOM      7  C   UNL     1       1.192   2.029   0.014  0.00  0.00    +0.047 A 
ATOM      8  C   UNL     1      -0.024   1.337   0.017  0.00  0.00    +0.004 A 
ATOM      9  C   UNL     1      -0.015  -0.021   0.009  0.00  0.00    +0.049 A 
ATOM     10  N   UNL     1       1.177  -0.672  -0.002  0.00  0.00    -0.199 N 
ATOM     11  C   UNL     1       2.348   0.033  -0.005  0.00  0.00    +0.255 A 
ATOM     12  N   UNL     1       2.329   1.371   0.004  0.00  0.00    -0.216 NA
ATOM     13  N   UNL     1       3.342  -0.849  -0.017  0.00  0.00    -0.176 NA
ATOM     14  C   UNL     1       2.846  -2.084  -0.021  0.00  0.00    +0.234 A 
ATOM     15  N   UNL     1       1.530  -2.028  -0.013  0.00  0.00    -0.128 NA
ATOM     16  N   UNL     1       3.602  -3.254  -0.033  0.00  0.00    -0.326 N 
ATOM     17  C   UNL     1      -1.308  -0.795   0.012  0.00  0.00    +0.066 C 
ATOM     18  H   UNL     1       3.100  -4.232  -0.035  0.00  0.00    +0.145 HD
ATOM     19  H   UNL     1       4.700  -3.199  -0.039  0.00  0.00    +0.145 HD
ENDBRANCH   5   8
ENDBRANCH   1   5
BRANCH   3  20
ATOM     20  C   UNL     1      -3.331   3.229   3.082  0.00  0.00    +0.203 C 
BRANCH  20  21
ATOM     21  C   UNL     1      -2.765   4.541   3.562  0.00  0.00    +0.235 C 
ATOM     22  O   UNL     1      -2.078   5.213   2.822  0.00  0.00    -0.274 OA
ATOM     23  N   UNL     1      -3.023   4.967   4.815  0.00  0.00    -0.284 N 
ATOM     24  H   UNL     1      -3.708   4.397   5.460  0.00  0.00    +0.155 HD
BRANCH  23  25
ATOM     25  C   UNL     1      -2.420   6.136   5.294  0.00  0.00    +0.035 A 
ATOM     26  C   UNL     1      -2.055   6.232   6.631  0.00  0.00    +0.025 A 
ATOM     27  C   UNL     1      -1.454   7.384   7.100  0.00  0.00    +0.023 A 
ATOM     28  C   UNL     1      -1.227   8.446   6.244  0.00  0.00    +0.059 A 
ATOM     29  C   UNL     1      -1.595   8.356   4.912  0.00  0.00    +0.061 A 
ATOM     30  C   UNL     1      -2.191   7.203   4.436  0.00  0.00    +0.044 A 
ATOM     31 CL   UNL     1      -1.308   9.690   3.840  0.00  0.00    -0.082 Cl
ATOM     32 CL   UNL     1      -0.478   9.895   6.839  0.00  0.00    -0.082 Cl
ENDBRANCH  23  25
ENDBRANCH  20  21
ENDBRANCH   3  20
TORSDOF 5
