REMARK  Name = ZINC18196464
REMARK  3 active torsions:
REMARK  status: ('A' for Active; 'I' for Inactive)
REMARK    1  A    between atoms: C_4  and  C_7
REMARK    2  A    between atoms: C_14  and  O_15
REMARK    3  A    between atoms: C_22  and  C_25
REMARK                            x       y       z     vdW  Elec       q    Type
REMARK                         _______ _______ _______ _____ _____    ______ ____
ROOT
ATOM      1  C   UNL     1       6.827   0.682  -0.036  0.00  0.00    +0.092 C 
ATOM      2  C   UNL     1       7.246   0.178  -1.388  0.00  0.00    +0.067 A 
ATOM      3  C   UNL     1       6.504   0.404  -2.518  0.00  0.00    +0.126 A 
ATOM      4  N   UNL     1       7.148  -0.166  -3.553  0.00  0.00    -0.260 N 
ATOM      5  H   UNL     1       6.848  -0.165  -4.507  0.00  0.00    +0.190 HD
ATOM      6  N   UNL     1       8.317  -0.764  -3.054  0.00  0.00    -0.134 NA
ATOM      7  C   UNL     1       8.370  -0.554  -1.757  0.00  0.00    +0.237 A 
ATOM      8  N   UNL     1       5.310   1.113  -2.470  0.00  0.00    -0.303 N 
ATOM      9  C   UNL     1       4.723   1.327  -1.247  0.00  0.00    +0.017 C 
ATOM     10  C   UNL     1       5.382   1.128  -0.085  0.00  0.00    +0.024 C 
ATOM     11  C   UNL     1       4.742   1.333   1.151  0.00  0.00    +0.162 C 
ATOM     12  O   UNL     1       5.364   1.153   2.179  0.00  0.00    -0.292 OA
ATOM     13  C   UNL     1       3.306   1.770   1.230  0.00  0.00    +0.088 C 
ATOM     14  C   UNL     1       2.565   1.272  -0.015  0.00  0.00    +0.039 C 
ATOM     15  C   UNL     1       3.290   1.806  -1.252  0.00  0.00    +0.060 C 
ATOM     16  H   UNL     1       4.900   1.449  -3.282  0.00  0.00    +0.153 HD
ENDROOT
BRANCH   1  20
ATOM     17  C   UNL     1       9.297   3.985   1.077  0.00  0.00    +0.000 A 
ATOM     18  C   UNL     1       9.270   2.847   1.861  0.00  0.00    +0.000 A 
ATOM     19  C   UNL     1       8.471   1.778   1.501  0.00  0.00    +0.004 A 
ATOM     20  C   UNL     1       7.699   1.848   0.356  0.00  0.00    -0.035 A 
ATOM     21  C   UNL     1       7.730   2.983  -0.431  0.00  0.00    +0.004 A 
ATOM     22  C   UNL     1       8.525   4.054  -0.068  0.00  0.00    +0.000 A 
ENDBRANCH   1  20
BRANCH  14  23
ATOM     23  C   UNL     1       1.146   1.780   0.001  0.00  0.00    -0.006 A 
ATOM     24  C   UNL     1      -0.013   1.076   0.008  0.00  0.00    +0.011 A 
ATOM     25  C   UNL     1      -1.213   1.761   0.017  0.00  0.00    +0.008 A 
ATOM     26  C   UNL     1      -1.196   3.116   0.030  0.00  0.00    +0.045 A 
ATOM     27  S   UNL     1       0.555   3.464   0.015  0.00  0.00    -0.101 S 
ENDBRANCH  14  23
BRANCH   7  28
ATOM     28  O   UNL     1       9.354  -0.980  -0.920  0.00  0.00    -0.491 OA
ATOM     29  H   UNL     1      10.042  -1.483  -1.443  0.00  0.00    +0.294 HD
ENDBRANCH   7  28
TORSDOF 3
