REMARK  Name = ZINC39697094
REMARK  7 active torsions:
REMARK  status: ('A' for Active; 'I' for Inactive)
REMARK    1  A    between atoms: C_1  and  C_2
REMARK    2  A    between atoms: C_5  and  C_8
REMARK    3  A    between atoms: C_8  and  N_9
REMARK    4  A    between atoms: C_10  and  C_12
REMARK    5  A    between atoms: C_23  and  C_25
REMARK    6  A    between atoms: C_30  and  O_31
REMARK    7  A    between atoms: O_31  and  C_32
REMARK                            x       y       z     vdW  Elec       q    Type
REMARK                         _______ _______ _______ _____ _____    ______ ____
ROOT
ATOM      1  C   UNL     1      -3.287  -6.510  -0.783  0.00  0.00    +0.100 C 
ATOM      2  C   UNL     1      -3.899  -6.191   0.599  0.00  0.00    +0.121 C 
ATOM      3  N   UNL     1      -4.684  -7.398   0.950  0.00  0.00    -0.296 N 
ATOM      4  C   UNL     1      -3.847  -8.530   0.484  0.00  0.00    +0.115 C 
ATOM      5  C   UNL     1      -3.254  -8.046  -0.855  0.00  0.00    -0.004 C 
ATOM      6  C   UNL     1      -1.817  -8.538  -1.002  0.00  0.00    -0.010 C 
ATOM      7  C   UNL     1      -1.815 -10.064  -1.131  0.00  0.00    -0.082 C 
ATOM      8  N   UNL     1      -2.612 -10.460  -2.298  0.00  0.00    +0.379 N 
ATOM      9  C   UNL     1      -4.012 -10.065  -2.106  0.00  0.00    -0.082 C 
ATOM     10  C   UNL     1      -4.107  -8.539  -2.019  0.00  0.00    -0.010 C 
ATOM     11  C   UNL     1      -5.887  -7.454   1.554  0.00  0.00    +0.252 C 
ATOM     12  O   UNL     1      -6.364  -8.530   1.861  0.00  0.00    -0.270 OA
ATOM     13  H   UNL     1      -2.246 -10.007  -3.123  0.00  0.00    -0.086 HD
ATOM     14  H   UNL     1      -2.559 -11.460  -2.416  0.00  0.00    -0.086 HD
ENDROOT
BRANCH  11  15
ATOM     15  C   UNL     1      -6.625  -6.210   1.845  0.00  0.00    +0.099 A 
ATOM     16  C   UNL     1      -5.941  -5.041   2.199  0.00  0.00    +0.020 A 
ATOM     17  C   UNL     1      -6.680  -3.901   2.461  0.00  0.00    +0.021 A 
ATOM     18  C   UNL     1      -8.059  -3.948   2.367  0.00  0.00    +0.114 A 
ATOM     19  N   UNL     1      -8.684  -5.060   2.032  0.00  0.00    -0.220 NA
ATOM     20  C   UNL     1      -8.026  -6.176   1.765  0.00  0.00    +0.233 A 
BRANCH  20  21
ATOM     21  O   UNL     1      -8.708  -7.294   1.420  0.00  0.00    -0.437 OA
BRANCH  21  22
ATOM     22  C   UNL     1     -10.066  -7.247   1.448  0.00  0.00    +0.130 A 
ATOM     23  C   UNL     1     -10.762  -6.646   0.408  0.00  0.00    +0.048 A 
ATOM     24  C   UNL     1     -12.142  -6.600   0.439  0.00  0.00    +0.023 A 
ATOM     25  C   UNL     1     -12.831  -7.152   1.505  0.00  0.00    +0.041 A 
ATOM     26  C   UNL     1     -12.138  -7.750   2.543  0.00  0.00    +0.023 A 
ATOM     27  C   UNL     1     -10.758  -7.804   2.513  0.00  0.00    +0.048 A 
ATOM     28 CL   UNL     1     -14.565  -7.092   1.541  0.00  0.00    -0.084 Cl
ENDBRANCH  21  22
ENDBRANCH  20  21
ENDBRANCH  11  15
BRANCH   1  30
ATOM     29  N   UNL     1      -1.377  -5.629  -2.085  0.00  0.00    -0.309 N 
ATOM     30  C   UNL     1      -1.891  -5.950  -0.881  0.00  0.00    +0.219 C 
ATOM     31  O   UNL     1      -1.230  -5.789   0.123  0.00  0.00    -0.275 OA
ATOM     32  H   UNL     1      -1.906  -5.757  -2.888  0.00  0.00    +0.149 HD
BRANCH  29  33
ATOM     33  C   UNL     1      -0.021  -5.084  -2.180  0.00  0.00    +0.161 C 
BRANCH  33  38
ATOM     34  C   UNL     1       1.212  -4.000  -7.626  0.00  0.00    +0.067 C 
ATOM     35  C   UNL     1       0.881  -4.274  -6.182  0.00  0.00    +0.056 A 
ATOM     36  C   UNL     1       1.071  -5.540  -5.656  0.00  0.00    +0.134 A 
ATOM     37  N   UNL     1       0.782  -5.780  -4.390  0.00  0.00    -0.255 NA
ATOM     38  C   UNL     1       0.310  -4.811  -3.625  0.00  0.00    +0.076 A 
ATOM     39  C   UNL     1       0.120  -3.545  -4.150  0.00  0.00    +0.136 A 
ATOM     40  N   UNL     1       0.415  -3.304  -5.416  0.00  0.00    -0.257 NA
ENDBRANCH  33  38
ENDBRANCH  29  33
ENDBRANCH   1  30
TORSDOF 6
