REMARK  Name = ZINC20636555
REMARK  2 active torsions:
REMARK  status: ('A' for Active; 'I' for Inactive)
REMARK    1  A    between atoms: C_2  and  C_3
REMARK    2  A    between atoms: C_3  and  N_4
REMARK                            x       y       z     vdW  Elec       q    Type
REMARK                         _______ _______ _______ _____ _____    ______ ____
ROOT
ATOM      1  N   UNL     1       4.225   6.318  -1.291  0.00  0.00    -0.264 N 
ATOM      2  C   UNL     1       3.611   5.827  -2.430  0.00  0.00    +0.044 A 
ATOM      3  C   UNL     1       4.012   5.921  -3.763  0.00  0.00    +0.025 A 
ATOM      4  C   UNL     1       3.195   5.330  -4.715  0.00  0.00    +0.017 A 
ATOM      5  C   UNL     1       2.030   4.673  -4.371  0.00  0.00    +0.018 A 
ATOM      6  C   UNL     1       1.619   4.573  -3.045  0.00  0.00    +0.025 A 
ATOM      7  C   UNL     1       2.427   5.158  -2.094  0.00  0.00    +0.025 A 
ATOM      8  C   UNL     1       2.302   5.247  -0.605  0.00  0.00    +0.206 C 
ATOM      9  C   UNL     1       3.528   6.025  -0.174  0.00  0.00    +0.267 C 
ATOM     10  O   UNL     1       3.827   6.328   0.962  0.00  0.00    -0.271 OA
ATOM     11  N   UNL     1       2.328   3.913  -0.000  0.00  0.00    -0.312 N 
ATOM     12  C   UNL     1       1.158   3.161   0.009  0.00  0.00    +0.041 A 
ATOM     13  C   UNL     1       1.178   1.777   0.000  0.00  0.00    +0.024 A 
ATOM     14  C   UNL     1      -0.013   1.076   0.008  0.00  0.00    +0.002 A 
ATOM     15  C   UNL     1      -1.226   1.747   0.017  0.00  0.00    +0.001 A 
ATOM     16  C   UNL     1      -1.263   3.126   0.032  0.00  0.00    +0.015 A 
ATOM     17  C   UNL     1      -0.071   3.845   0.027  0.00  0.00    +0.058 A 
ATOM     18  C   UNL     1      -0.057   5.319   0.044  0.00  0.00    +0.248 C 
ATOM     19  O   UNL     1      -1.072   5.941   0.297  0.00  0.00    -0.270 OA
ATOM     20  N   UNL     1       1.093   5.972  -0.225  0.00  0.00    -0.279 N 
ATOM     21 BR   UNL     1       0.971   3.894  -5.730  0.00  0.00    -0.050 Br
ATOM     22  H   UNL     1       3.260   3.524   0.435  0.00  0.00    +0.149 HD
ATOM     23  H   UNL     1       1.111   7.069  -0.152  0.00  0.00    +0.152 HD
ENDROOT
BRANCH   1  24
ATOM     24  C   UNL     1       5.484   7.067  -1.298  0.00  0.00    +0.140 C 
BRANCH  24  26
ATOM     25  C   UNL     1       5.661   9.385  -0.549  0.00  0.00    +0.005 C 
ATOM     26  C   UNL     1       5.191   8.540  -1.433  0.00  0.00    -0.015 C 
ENDBRANCH  24  26
ENDBRANCH   1  24
TORSDOF 2
