REMARK  Name = ZINC02129991
REMARK  6 active torsions:
REMARK  status: ('A' for Active; 'I' for Inactive)
REMARK    1  A    between atoms: C_1  and  C_2
REMARK    2  A    between atoms: C_16  and  C_18
REMARK    3  A    between atoms: C_18  and  C_19
REMARK    4  A    between atoms: C_19  and  C_20
REMARK    5  A    between atoms: N_25  and  C_28
REMARK    6  A    between atoms: C_28  and  C_29
REMARK                            x       y       z     vdW  Elec       q    Type
REMARK                         _______ _______ _______ _____ _____    ______ ____
ROOT
ATOM      1  C   UNL     1      -5.625   5.398   2.860  0.00  0.00    +0.047 C 
ATOM      2  C   UNL     1      -4.603   4.308   2.668  0.00  0.00    -0.011 A 
ATOM      3  C   UNL     1      -4.909   3.007   3.014  0.00  0.00    +0.046 A 
ATOM      4  C   UNL     1      -3.976   2.000   2.840  0.00  0.00    +0.020 A 
ATOM      5  C   UNL     1      -2.730   2.299   2.317  0.00  0.00    +0.006 A 
ATOM      6  C   UNL     1      -2.420   3.595   1.971  0.00  0.00    -0.027 A 
ATOM      7  C   UNL     1      -3.351   4.616   2.141  0.00  0.00    +0.040 A 
ATOM      8  N   UNL     1      -2.812   5.835   1.723  0.00  0.00    -0.286 N 
ATOM      9  C   UNL     1      -1.549   5.704   1.272  0.00  0.00    +0.211 C 
ATOM     10  O   UNL     1      -0.836   6.589   0.851  0.00  0.00    -0.277 OA
ATOM     11  C   UNL     1      -1.196   4.247   1.395  0.00  0.00    +0.050 C 
ATOM     12  C   UNL     1      -0.825   3.645   0.034  0.00  0.00    +0.088 C 
ATOM     13  C   UNL     1       0.729   3.666   0.009  0.00  0.00    +0.073 C 
ATOM     14  C   UNL     1       1.140   4.290   1.359  0.00  0.00    -0.057 C 
ATOM     15  C   UNL     1       1.098   2.200   0.003  0.00  0.00    +0.224 C 
ATOM     16  O   UNL     1       2.228   1.761  -0.006  0.00  0.00    -0.275 OA
ATOM     17  N   UNL     1      -0.018   1.461   0.010  0.00  0.00    -0.237 N 
ATOM     18  C   UNL     1      -1.153   2.169   0.019  0.00  0.00    +0.225 C 
ATOM     19  O   UNL     1      -2.271   1.700   0.018  0.00  0.00    -0.275 OA
ATOM     20 CL   UNL     1      -6.472   2.633   3.671  0.00  0.00    -0.083 Cl
ATOM     21  H   UNL     1      -3.292   6.677   1.752  0.00  0.00    +0.155 HD
ATOM     22  N   UNL     1      -0.019   4.058   2.224  0.00  0.00    +0.394 N 
ATOM     23  H   UNL     1       0.003   3.101   2.597  0.00  0.00    -0.083 HD
ATOM     24  H   UNL     1      -0.021   4.728   3.002  0.00  0.00    -0.083 HD
ENDROOT
BRANCH  14  25
ATOM     25  C   UNL     1       2.392   3.601   1.906  0.00  0.00    -0.006 C 
BRANCH  25  26
ATOM     26  C   UNL     1       2.853   4.316   3.178  0.00  0.00    +0.094 C 
BRANCH  26  27
ATOM     27  C   UNL     1       4.086   3.637   3.716  0.00  0.00    +0.210 C 
ATOM     28  O   UNL     1       4.551   2.677   3.139  0.00  0.00    -0.276 OA
ATOM     29  N   UNL     1       4.673   4.097   4.839  0.00  0.00    -0.329 N 
ATOM     30  H   UNL     1       4.301   4.865   5.300  0.00  0.00    +0.145 HD
ATOM     31  H   UNL     1       5.467   3.661   5.185  0.00  0.00    +0.145 HD
ENDBRANCH  26  27
ENDBRANCH  25  26
ENDBRANCH  14  25
BRANCH  17  32
ATOM     32  C   UNL     1       0.002  -0.004   0.002  0.00  0.00    +0.151 C 
BRANCH  32  33
ATOM     33  C   UNL     1       0.022  -0.514   1.420  0.00  0.00    -0.026 A 
ATOM     34  C   UNL     1       1.229  -0.736   2.056  0.00  0.00    +0.009 A 
ATOM     35  C   UNL     1       1.252  -1.198   3.359  0.00  0.00    +0.050 A 
ATOM     36  C   UNL     1       0.065  -1.451   4.026  0.00  0.00    +0.166 A 
ATOM     37  C   UNL     1      -1.151  -1.232   3.384  0.00  0.00    +0.167 A 
ATOM     38  C   UNL     1      -1.167  -0.764   2.080  0.00  0.00    +0.054 A 
ATOM     39  O   UNL     1      -2.163  -1.552   4.243  0.00  0.00    -0.453 OA
ATOM     40  C   UNL     1      -1.554  -2.354   5.272  0.00  0.00    +0.466 C 
ATOM     41  O   UNL     1      -0.185  -1.907   5.288  0.00  0.00    -0.453 OA
ENDBRANCH  32  33
ENDBRANCH  17  32
TORSDOF 5
