REMARK  Name = ZINC36743543
REMARK  7 active torsions:
REMARK  status: ('A' for Active; 'I' for Inactive)
REMARK    1  A    between atoms: C_1  and  C_2
REMARK    2  A    between atoms: C_6  and  N_20
REMARK    3  A    between atoms: C_7  and  N_8
REMARK    4  A    between atoms: N_8  and  S_9
REMARK    5  A    between atoms: S_9  and  C_12
REMARK    6  A    between atoms: C_13  and  C_19
REMARK    7  A    between atoms: C_17  and  C_18
REMARK                            x       y       z     vdW  Elec       q    Type
REMARK                         _______ _______ _______ _____ _____    ______ ____
ROOT
ATOM      1  N   UNL     1       0.996  -0.564   2.230  0.00  0.00    -0.214 N 
ATOM      2  H   UNL     1       0.787   0.371   2.385  0.00  0.00    +0.174 HD
ENDROOT
BRANCH   1   9
ATOM      3  C   UNL     1       3.478   0.409   1.242  0.00  0.00    +0.046 C 
ATOM      4  C   UNL     1       2.619  -0.537   0.443  0.00  0.00    -0.025 A 
ATOM      5  C   UNL     1       3.035  -0.960  -0.807  0.00  0.00    +0.020 A 
ATOM      6  C   UNL     1       2.249  -1.827  -1.544  0.00  0.00    +0.020 A 
ATOM      7  C   UNL     1       1.044  -2.276  -1.035  0.00  0.00    +0.040 A 
ATOM      8  C   UNL     1       0.621  -1.857   0.217  0.00  0.00    +0.049 A 
ATOM      9  C   UNL     1       1.416  -0.987   0.962  0.00  0.00    +0.072 A 
ATOM     10 BR   UNL     1       2.824  -2.400  -3.252  0.00  0.00    -0.050 Br
BRANCH   8  11
ATOM     11  N   UNL     1      -0.599  -2.311   0.734  0.00  0.00    -0.356 N 
ATOM     12  H   UNL     1      -1.024  -3.096   0.356  0.00  0.00    +0.142 HD
ATOM     13  H   UNL     1      -1.020  -1.838   1.470  0.00  0.00    +0.142 HD
ENDBRANCH   8  11
ENDBRANCH   1   9
BRANCH   1  14
ATOM     14  S   UNL     1       0.857  -1.659   3.464  0.00  0.00    +0.076 S 
ATOM     15  O   UNL     1       0.439  -0.929   4.609  0.00  0.00    -0.150 OA
ATOM     16  O   UNL     1       0.119  -2.759   2.950  0.00  0.00    -0.150 OA
BRANCH  14  17
ATOM     17  C   UNL     1       2.477  -2.259   3.813  0.00  0.00    +0.151 A 
ATOM     18  C   UNL     1       3.061  -3.344   3.255  0.00  0.00    +0.060 A 
ATOM     19  N   UNL     1       4.296  -3.466   3.786  0.00  0.00    -0.280 N 
ATOM     20  H   UNL     1       4.944  -4.155   3.571  0.00  0.00    +0.189 HD
ATOM     21  N   UNL     1       4.476  -2.420   4.701  0.00  0.00    -0.177 NA
ATOM     22  C   UNL     1       3.388  -1.694   4.712  0.00  0.00    +0.087 A 
ATOM     23  C   UNL     1       3.154  -0.465   5.551  0.00  0.00    +0.069 C 
ATOM     24  C   UNL     1       2.444  -4.254   2.224  0.00  0.00    +0.067 C 
ENDBRANCH  14  17
ENDBRANCH   1  14
TORSDOF 4
