REMARK  Name = ZINC05725694
REMARK  6 active torsions:
REMARK  status: ('A' for Active; 'I' for Inactive)
REMARK    1  A    between atoms: C_2  and  C_18
REMARK    2  A    between atoms: C_4  and  O_17
REMARK    3  A    between atoms: C_6  and  O_16
REMARK    4  A    between atoms: C_8  and  O_15
REMARK    5  A    between atoms: C_10  and  O_14
REMARK    6  A    between atoms: C_18  and  O_19
REMARK                            x       y       z     vdW  Elec       q    Type
REMARK                         _______ _______ _______ _____ _____    ______ ____
ROOT
ATOM      1  C   UNL     1      -0.013   1.086   0.008  0.00  0.00    +0.168 C 
ATOM      2  C   UNL     1      -0.748   1.590  -1.230  0.00  0.00    +0.071 C 
ATOM      3  C   UNL     1      -1.110   3.063  -1.066  0.00  0.00    +0.153 C 
ATOM      4  C   UNL     1      -2.627   3.210  -0.922  0.00  0.00    +0.174 C 
ATOM      5  C   UNL     1      -3.032   2.783   0.490  0.00  0.00    +0.176 C 
ATOM      6  C   UNL     1      -3.005   1.261   0.598  0.00  0.00    +0.171 C 
ATOM      7  C   UNL     1      -1.863   0.816   1.507  0.00  0.00    +0.193 C 
ATOM      8  O   UNL     1      -0.679   1.545   1.185  0.00  0.00    -0.377 OA
ENDROOT
BRANCH   6   9
ATOM      9  O   UNL     1      -4.246   0.802   1.138  0.00  0.00    -0.387 OA
ATOM     10  H   UNL     1      -4.302  -0.158   1.235  0.00  0.00    +0.210 HD
ENDBRANCH   6   9
BRANCH   5  11
ATOM     11  O   UNL     1      -2.118   3.341   1.436  0.00  0.00    -0.387 OA
ATOM     12  H   UNL     1      -2.314   3.112   2.355  0.00  0.00    +0.210 HD
ENDBRANCH   5  11
BRANCH   4  13
ATOM     13  O   UNL     1      -2.998   4.573  -1.136  0.00  0.00    -0.387 OA
ATOM     14  H   UNL     1      -3.948   4.738  -1.059  0.00  0.00    +0.210 HD
ENDBRANCH   4  13
BRANCH   3  15
ATOM     15  O   UNL     1      -0.471   3.582   0.102  0.00  0.00    -0.389 OA
ATOM     16  H   UNL     1      -0.657   4.516   0.270  0.00  0.00    +0.210 HD
ENDBRANCH   3  15
BRANCH   2  17
ATOM     17  C   UNL     1       0.153   1.427  -2.456  0.00  0.00    +0.164 C 
BRANCH  17  18
ATOM     18  O   UNL     1       0.387   0.037  -2.693  0.00  0.00    -0.395 OA
ATOM     19  H   UNL     1       0.952  -0.141  -3.458  0.00  0.00    +0.209 HD
ENDBRANCH  17  18
ENDBRANCH   2  17
TORSDOF 6
