REMARK  Name = ZINC38705030
REMARK  10 active torsions:
REMARK  status: ('A' for Active; 'I' for Inactive)
REMARK    1  A    between atoms: C_1  and  C_2
REMARK    2  A    between atoms: C_4  and  C_36
REMARK    3  A    between atoms: C_5  and  C_9
REMARK    4  A    between atoms: C_6  and  O_8
REMARK    5  A    between atoms: N_17  and  C_29
REMARK    6  A    between atoms: C_18  and  C_20
REMARK    7  A    between atoms: C_23  and  O_28
REMARK    8  A    between atoms: C_24  and  O_26
REMARK    9  A    between atoms: O_26  and  C_27
REMARK   10  A    between atoms: C_29  and  C_30
REMARK                            x       y       z     vdW  Elec       q    Type
REMARK                         _______ _______ _______ _____ _____    ______ ____
ROOT
ATOM      1  C   UNL     1       0.220  -3.921  -0.023  0.00  0.00    +0.102 A 
ATOM      2  C   UNL     1       0.210  -4.760   1.097  0.00  0.00    +0.035 A 
ATOM      3  C   UNL     1       0.529  -6.019   0.628  0.00  0.00    +0.126 A 
ATOM      4  N   UNL     1       0.712  -5.887  -0.719  0.00  0.00    -0.272 N 
ATOM      5  H   UNL     1       0.947  -6.609  -1.323  0.00  0.00    +0.189 HD
ATOM      6  N   UNL     1       0.522  -4.665  -1.069  0.00  0.00    -0.173 NA
ATOM      7  C   UNL     1       0.535  -6.952   1.761  0.00  0.00    +0.266 C 
ATOM      8  O   UNL     1       0.780  -8.140   1.680  0.00  0.00    -0.268 OA
ATOM      9  N   UNL     1       0.232  -6.305   2.901  0.00  0.00    -0.283 N 
ATOM     10  C   UNL     1       0.005  -4.890   2.582  0.00  0.00    +0.141 C 
ENDROOT
BRANCH   1  15
ATOM     11  C   UNL     1      -0.877   1.736  -0.066  0.00  0.00    +0.044 C 
ATOM     12  C   UNL     1      -0.593   0.256  -0.053  0.00  0.00    -0.047 A 
ATOM     13  C   UNL     1       0.545  -0.232  -0.671  0.00  0.00    +0.007 A 
ATOM     14  C   UNL     1       0.813  -1.586  -0.664  0.00  0.00    -0.037 A 
ATOM     15  C   UNL     1      -0.064  -2.465  -0.033  0.00  0.00    +0.047 A 
ATOM     16  C   UNL     1      -1.212  -1.969   0.591  0.00  0.00    +0.127 A 
ATOM     17  C   UNL     1      -1.466  -0.607   0.581  0.00  0.00    +0.049 A 
ATOM     18  C   UNL     1       2.053  -2.113  -1.339  0.00  0.00    +0.044 C 
BRANCH  16  19
ATOM     19  O   UNL     1      -2.073  -2.819   1.209  0.00  0.00    -0.506 OA
ATOM     20  H   UNL     1      -1.925  -2.905   2.160  0.00  0.00    +0.292 HD
ENDBRANCH  16  19
ENDBRANCH   1  15
BRANCH  10  21
ATOM     21  C   UNL     1       0.995  -4.026   3.320  0.00  0.00    -0.019 A 
ATOM     22  C   UNL     1       2.349  -4.163   3.072  0.00  0.00    +0.009 A 
ATOM     23  C   UNL     1       3.261  -3.373   3.747  0.00  0.00    +0.049 A 
ATOM     24  C   UNL     1       2.820  -2.441   4.672  0.00  0.00    +0.158 A 
ATOM     25  C   UNL     1       1.458  -2.303   4.921  0.00  0.00    +0.162 A 
ATOM     26  C   UNL     1       0.548  -3.095   4.238  0.00  0.00    +0.055 A 
BRANCH  25  27
ATOM     27  O   UNL     1       1.020  -1.390   5.829  0.00  0.00    -0.491 OA
ATOM     28  C   UNL     1      -0.392  -1.304   6.033  0.00  0.00    +0.277 C 
ENDBRANCH  25  27
BRANCH  24  29
ATOM     29  O   UNL     1       3.716  -1.663   5.337  0.00  0.00    -0.503 OA
ATOM     30  H   UNL     1       3.921  -0.830   4.891  0.00  0.00    +0.292 HD
ENDBRANCH  24  29
ENDBRANCH  10  21
BRANCH   9  31
ATOM     31  C   UNL     1       0.142  -6.910   4.232  0.00  0.00    +0.140 C 
BRANCH  31  32
ATOM     32  C   UNL     1       1.539  -6.997   4.848  0.00  0.00    +0.136 C 
ATOM     33  C   UNL     1       1.467  -7.721   6.210  0.00  0.00    +0.035 C 
ATOM     34  C   UNL     1       2.474  -6.909   7.069  0.00  0.00    +0.031 C 
ATOM     35  C   UNL     1       2.273  -5.486   6.490  0.00  0.00    +0.160 C 
ATOM     36  O   UNL     1       2.050  -5.680   5.083  0.00  0.00    -0.375 OA
ENDBRANCH  31  32
ENDBRANCH   9  31
TORSDOF 7
