REMARK  Name = ZINC46909893
REMARK  4 active torsions:
REMARK  status: ('A' for Active; 'I' for Inactive)
REMARK    1  A    between atoms: C_1  and  C_2
REMARK    2  A    between atoms: C_6  and  N_15
REMARK    3  A    between atoms: C_7  and  C_8
REMARK    4  A    between atoms: C_16  and  C_18
REMARK                            x       y       z     vdW  Elec       q    Type
REMARK                         _______ _______ _______ _____ _____    ______ ____
ROOT
ATOM      1  C   UNL     1      -0.044   1.494  -0.004  0.00  0.00    +0.044 C 
ATOM      2  C   UNL     1      -0.021  -0.012  -0.007  0.00  0.00    -0.037 A 
ATOM      3  C   UNL     1      -0.024  -0.700  -1.202  0.00  0.00    +0.004 A 
ATOM      4  C   UNL     1      -0.003  -2.085  -1.212  0.00  0.00    +0.002 A 
ATOM      5  C   UNL     1       0.023  -2.792  -0.026  0.00  0.00    +0.024 A 
ATOM      6  C   UNL     1       0.027  -2.116   1.186  0.00  0.00    +0.046 A 
ATOM      7  C   UNL     1       0.011  -0.714   1.200  0.00  0.00    +0.061 A 
ENDROOT
BRANCH   7   8
ATOM      8  C   UNL     1       0.020   0.016   2.482  0.00  0.00    +0.249 C 
ATOM      9  O   UNL     1      -1.029   0.300   3.028  0.00  0.00    -0.270 OA
ATOM     10  N   UNL     1       1.191   0.368   3.049  0.00  0.00    -0.297 N 
ATOM     11  C   UNL     1       2.526   0.095   2.496  0.00  0.00    +0.108 C 
ATOM     12  C   UNL     1       3.559   0.656   3.496  0.00  0.00    +0.020 C 
ATOM     13  C   UNL     1       2.761   0.712   4.826  0.00  0.00    +0.020 C 
ATOM     14  C   UNL     1       1.346   1.096   4.321  0.00  0.00    +0.108 C 
ENDBRANCH   7   8
BRANCH   6  15
ATOM     15  N   UNL     1       0.052  -2.828   2.384  0.00  0.00    -0.282 N 
ATOM     16  C   UNL     1       0.562  -4.075   2.416  0.00  0.00    +0.258 C 
ATOM     17  O   UNL     1       1.090  -4.540   1.428  0.00  0.00    -0.271 OA
ATOM     18  H   UNL     1      -0.298  -2.426   3.194  0.00  0.00    +0.155 HD
BRANCH  16  19
ATOM     19  C   UNL     1       0.477  -4.891   3.680  0.00  0.00    +0.263 C 
ATOM     20  C   UNL     1       1.364  -4.278   4.789  0.00  0.00    +0.093 C 
ATOM     21  C   UNL     1       1.891  -5.516   5.489  0.00  0.00    -0.000 A 
ATOM     22  C   UNL     1       2.503  -5.697   6.710  0.00  0.00    +0.027 A 
ATOM     23  C   UNL     1       2.883  -6.967   7.111  0.00  0.00    +0.041 A 
ATOM     24  C   UNL     1       2.645  -8.049   6.282  0.00  0.00    +0.023 A 
ATOM     25  C   UNL     1       2.035  -7.867   5.058  0.00  0.00    +0.047 A 
ATOM     26  C   UNL     1       1.653  -6.593   4.646  0.00  0.00    +0.125 A 
ATOM     27  O   UNL     1       1.058  -6.192   3.486  0.00  0.00    -0.479 OA
ATOM     28 CL   UNL     1       3.655  -7.200   8.649  0.00  0.00    -0.084 Cl
ENDBRANCH  16  19
ENDBRANCH   6  15
TORSDOF 3
