REMARK  Name = ZINC67271707
REMARK  4 active torsions:
REMARK  status: ('A' for Active; 'I' for Inactive)
REMARK    1  A    between atoms: C_1  and  C_2
REMARK    2  A    between atoms: N_4  and  C_5
REMARK    3  A    between atoms: C_5  and  C_6
REMARK    4  A    between atoms: C_13  and  C_15
REMARK                            x       y       z     vdW  Elec       q    Type
REMARK                         _______ _______ _______ _____ _____    ______ ____
ROOT
ATOM      1  C   UNL     1      -2.876  -2.367  -0.965  0.00  0.00    +0.024 C 
ATOM      2  C   UNL     1      -3.802  -1.557  -0.055  0.00  0.00    +0.008 C 
ATOM      3  C   UNL     1      -5.204  -2.169  -0.076  0.00  0.00    +0.019 C 
ATOM      4  C   UNL     1      -5.138  -3.605   0.455  0.00  0.00    +0.108 C 
ATOM      5  N   UNL     1      -4.142  -4.352  -0.324  0.00  0.00    -0.301 N 
ATOM      6  C   UNL     1      -2.784  -3.804  -0.445  0.00  0.00    +0.112 C 
ATOM      7  C   UNL     1      -4.467  -5.518  -0.917  0.00  0.00    +0.219 C 
ATOM      8  O   UNL     1      -3.660  -6.085  -1.623  0.00  0.00    -0.275 OA
ENDROOT
BRANCH   7   9
ATOM      9  C   UNL     1      -5.833  -6.116  -0.704  0.00  0.00    +0.075 C 
ATOM     10  C   UNL     1      -5.854  -6.881   0.622  0.00  0.00    +0.015 C 
ATOM     11  C   UNL     1      -7.246  -7.478   0.843  0.00  0.00    +0.036 C 
ATOM     12  C   UNL     1      -7.589  -8.416  -0.309  0.00  0.00    +0.112 C 
ATOM     13  C   UNL     1      -7.548  -7.673  -1.640  0.00  0.00    +0.036 C 
ATOM     14  C   UNL     1      -6.155  -7.075  -1.852  0.00  0.00    +0.015 C 
ATOM     15  C   UNL     1      -6.642  -9.593  -0.332  0.00  0.00    +0.244 C 
ATOM     16  O   UNL     1      -5.439  -9.565  -0.480  0.00  0.00    -0.273 OA
ATOM     17  N   UNL     1      -7.417 -10.683  -0.151  0.00  0.00    -0.238 N 
ATOM     18  C   UNL     1      -8.708 -10.353  -0.020  0.00  0.00    +0.307 C 
ATOM     19  O   UNL     1      -9.598 -11.163   0.152  0.00  0.00    -0.252 OA
ATOM     20  N   UNL     1      -8.909  -9.024  -0.100  0.00  0.00    -0.285 N 
ATOM     21  H   UNL     1      -7.081 -11.592  -0.121  0.00  0.00    +0.159 HD
ATOM     22  H   UNL     1      -9.759  -8.560  -0.033  0.00  0.00    +0.151 HD
ENDBRANCH   7   9
BRANCH   1  23
ATOM     23  C   UNL     1      -1.482  -1.734  -0.969  0.00  0.00    +0.109 C 
BRANCH  23  27
ATOM     24  C   UNL     1      -0.508   1.716  -2.310  0.00  0.00    +0.109 C 
ATOM     25  C   UNL     1      -0.437   0.346  -1.686  0.00  0.00    +0.210 C 
ATOM     26  O   UNL     1       0.624  -0.082  -1.284  0.00  0.00    -0.276 OA
ATOM     27  N   UNL     1      -1.552  -0.403  -1.575  0.00  0.00    -0.315 N 
ATOM     28  H   UNL     1      -2.400  -0.060  -1.897  0.00  0.00    +0.149 HD
ENDBRANCH  23  27
ENDBRANCH   1  23
TORSDOF 3
