REMARK  Name = ZINC06659479
REMARK  7 active torsions:
REMARK  status: ('A' for Active; 'I' for Inactive)
REMARK    1  A    between atoms: C_1  and  C_2
REMARK    2  A    between atoms: C_3  and  C_25
REMARK    3  A    between atoms: C_5  and  N_24
REMARK    4  A    between atoms: C_6  and  C_12
REMARK    5  A    between atoms: C_10  and  C_11
REMARK    6  A    between atoms: C_15  and  C_23
REMARK    7  A    between atoms: C_20  and  C_22
REMARK                            x       y       z     vdW  Elec       q    Type
REMARK                         _______ _______ _______ _____ _____    ______ ____
ROOT
ATOM      1  C   UNL     1      -4.453  -2.218   0.319  0.00  0.00    +0.046 C 
ATOM      2  C   UNL     1      -4.186  -0.754   0.083  0.00  0.00    -0.026 A 
ATOM      3  C   UNL     1      -3.079  -0.162   0.645  0.00  0.00    -0.034 A 
ATOM      4  C   UNL     1      -2.845   1.216   0.413  0.00  0.00    +0.032 A 
ATOM      5  C   UNL     1      -1.753   2.046   0.899  0.00  0.00    +0.054 A 
ATOM      6  C   UNL     1      -1.735   3.377   0.543  0.00  0.00    +0.097 A 
ATOM      7  S   UNL     1      -3.191   3.552  -0.470  0.00  0.00    -0.062 S 
ATOM      8  C   UNL     1      -3.792   1.883  -0.397  0.00  0.00    +0.111 A 
ATOM      9  N   UNL     1      -4.836   1.272  -0.912  0.00  0.00    -0.244 NA
ATOM     10  C   UNL     1      -5.058  -0.011  -0.698  0.00  0.00    +0.043 A 
ATOM     11  C   UNL     1      -6.267  -0.673  -1.307  0.00  0.00    +0.066 C 
ATOM     12  C   UNL     1      -2.130  -0.967   1.495  0.00  0.00    +0.045 C 
ENDROOT
BRANCH   6  13
ATOM     13  C   UNL     1      -0.786   4.368   0.897  0.00  0.00    +0.256 C 
ATOM     14  O   UNL     1       0.404   4.108   0.873  0.00  0.00    -0.269 OA
ATOM     15  N   UNL     1      -1.200   5.598   1.259  0.00  0.00    -0.291 N 
ATOM     16  C   UNL     1      -0.227   6.664   1.536  0.00  0.00    +0.074 C 
ATOM     17  C   UNL     1      -0.582   7.885   0.674  0.00  0.00    +0.022 C 
ATOM     18  C   UNL     1      -2.037   8.280   0.935  0.00  0.00    +0.004 C 
ATOM     19  C   UNL     1      -2.960   7.126   0.537  0.00  0.00    +0.022 C 
ATOM     20  C   UNL     1      -2.632   5.897   1.392  0.00  0.00    +0.074 C 
ATOM     21  C   UNL     1      -2.962   6.189   2.857  0.00  0.00    +0.028 C 
ATOM     22  C   UNL     1       1.181   6.178   1.184  0.00  0.00    +0.028 C 
ENDBRANCH   6  13
BRANCH   5  23
ATOM     23  N   UNL     1      -0.757   1.512   1.704  0.00  0.00    -0.356 N 
ATOM     24  H   UNL     1       0.139   1.883   1.679  0.00  0.00    +0.142 HD
ATOM     25  H   UNL     1      -0.958   0.770   2.296  0.00  0.00    +0.142 HD
ENDBRANCH   5  23
TORSDOF 2
