REMARK  Name = ZINC44452650
REMARK  3 active torsions:
REMARK  status: ('A' for Active; 'I' for Inactive)
REMARK    1  A    between atoms: C_5  and  C_7
REMARK    2  A    between atoms: N_9  and  C_10
REMARK    3  A    between atoms: C_11  and  C_18
REMARK                            x       y       z     vdW  Elec       q    Type
REMARK                         _______ _______ _______ _____ _____    ______ ____
ROOT
ATOM      1  C   UNL     1       0.122  -4.240  -0.024  0.00  0.00    +0.085 A 
ATOM      2  C   UNL     1      -0.953  -5.111  -0.025  0.00  0.00    +0.069 A 
ATOM      3  C   UNL     1      -0.655  -6.543  -0.035  0.00  0.00    -0.023 A 
ATOM      4  C   UNL     1       0.659  -6.829  -0.043  0.00  0.00    -0.004 A 
ATOM      5  S   UNL     1       1.463  -5.246  -0.044  0.00  0.00    -0.077 S 
ATOM      6  C   UNL     1       0.910  -8.312  -0.050  0.00  0.00    +0.043 C 
ATOM      7  C   UNL     1      -0.433  -8.937   0.387  0.00  0.00    +0.010 C 
ATOM      8  C   UNL     1      -1.440  -7.852  -0.044  0.00  0.00    +0.037 C 
ENDROOT
BRANCH   2   9
ATOM      9  C   UNL     1      -2.333  -4.620  -0.014  0.00  0.00    +0.254 C 
ATOM     10  O   UNL     1      -2.912  -4.409  -1.063  0.00  0.00    -0.270 OA
ATOM     11  N   UNL     1      -2.962  -4.401   1.158  0.00  0.00    -0.236 N 
ATOM     12  C   UNL     1      -4.231  -3.949   1.168  0.00  0.00    +0.304 C 
ATOM     13  O   UNL     1      -4.810  -3.739   0.120  0.00  0.00    -0.253 OA
ATOM     14  N   UNL     1      -4.860  -3.731   2.341  0.00  0.00    -0.313 N 
ATOM     15  H   UNL     1      -2.500  -4.569   1.995  0.00  0.00    +0.159 HD
ATOM     16  H   UNL     1      -4.398  -3.899   3.177  0.00  0.00    +0.146 HD
ATOM     17  H   UNL     1      -5.774  -3.406   2.348  0.00  0.00    +0.146 HD
ENDBRANCH   2   9
BRANCH   1  20
ATOM     18  C   UNL     1       1.250  -2.159  -0.023  0.00  0.00    +0.251 C 
ATOM     19  O   UNL     1       2.314  -2.747  -0.037  0.00  0.00    -0.270 OA
ATOM     20  N   UNL     1       0.096  -2.855  -0.016  0.00  0.00    -0.275 N 
ATOM     21  H   UNL     1      -0.753  -2.386  -0.004  0.00  0.00    +0.156 HD
BRANCH  18  26
ATOM     22  C   UNL     1      -0.017   1.374   0.010  0.00  0.00    +0.001 A 
ATOM     23  C   UNL     1       1.170   2.087   0.002  0.00  0.00    +0.003 A 
ATOM     24  C   UNL     1       2.383   1.425  -0.013  0.00  0.00    +0.039 A 
ATOM     25  C   UNL     1       2.418   0.042  -0.021  0.00  0.00    +0.135 A 
ATOM     26  C   UNL     1       1.223  -0.683  -0.014  0.00  0.00    +0.072 A 
ATOM     27  C   UNL     1       0.002  -0.004   0.002  0.00  0.00    +0.016 A 
ATOM     28  F   UNL     1       3.604  -0.606  -0.037  0.00  0.00    -0.205 F 
ENDBRANCH  18  26
ENDBRANCH   1  20
TORSDOF 3
