REMARK  Name = ZINC59598795
REMARK  6 active torsions:
REMARK  status: ('A' for Active; 'I' for Inactive)
REMARK    1  A    between atoms: C_2  and  C_3
REMARK    2  A    between atoms: C_3  and  O_4
REMARK    3  A    between atoms: O_4  and  C_5
REMARK    4  A    between atoms: C_8  and  C_12
REMARK    5  A    between atoms: N_13  and  N_14
REMARK    6  A    between atoms: N_17  and  C_18
REMARK                            x       y       z     vdW  Elec       q    Type
REMARK                         _______ _______ _______ _____ _____    ______ ____
ROOT
ATOM      1  C   UNL     1       1.981   7.528   0.048  0.00  0.00    +0.138 C 
ATOM      2  N   UNL     1       3.173   8.041   0.027  0.00  0.00    -0.186 NA
ENDROOT
BRANCH   1   6
ATOM      3  C   UNL     1       1.484   3.311   0.059  0.00  0.00    +0.140 A 
ATOM      4  C   UNL     1       0.370   4.140   0.078  0.00  0.00    +0.048 A 
ATOM      5  C   UNL     1       0.527   5.509   0.074  0.00  0.00    +0.013 A 
ATOM      6  C   UNL     1       1.809   6.064   0.052  0.00  0.00    -0.004 A 
ATOM      7  C   UNL     1       2.928   5.227   0.033  0.00  0.00    +0.033 A 
ATOM      8  C   UNL     1       2.762   3.858   0.042  0.00  0.00    +0.083 A 
ATOM      9 CL   UNL     1       4.150   2.816   0.024  0.00  0.00    -0.080 Cl
BRANCH   3  10
ATOM     10  O   UNL     1       1.325   1.962   0.062  0.00  0.00    -0.478 OA
BRANCH  10  11
ATOM     11  C   UNL     1      -0.016   1.467   0.080  0.00  0.00    +0.317 C 
BRANCH  11  13
ATOM     12  C   UNL     1       0.021  -1.179   0.083  0.00  0.00    +0.007 C 
ATOM     13  C   UNL     1       0.004  -0.005   0.082  0.00  0.00    -0.065 C 
ENDBRANCH  11  13
ENDBRANCH  10  11
ENDBRANCH   3  10
ENDBRANCH   1   6
BRANCH   2  14
ATOM     14  N   UNL     1       3.336   9.433   0.023  0.00  0.00    -0.191 N 
ATOM     15  C   UNL     1       4.574   9.966   0.001  0.00  0.00    +0.323 C 
ATOM     16  O   UNL     1       4.716  11.174  -0.003  0.00  0.00    -0.251 OA
ATOM     17  N   UNL     1       5.654   9.160  -0.017  0.00  0.00    -0.268 N 
ATOM     18  H   UNL     1       2.559  10.013   0.036  0.00  0.00    +0.179 HD
ATOM     19  H   UNL     1       5.544   8.199   0.053  0.00  0.00    +0.156 HD
BRANCH  17  20
ATOM     20  C   UNL     1       6.936   9.710  -0.137  0.00  0.00    +0.035 A 
ATOM     21  C   UNL     1       7.916   9.040  -0.856  0.00  0.00    +0.024 A 
ATOM     22  C   UNL     1       9.179   9.585  -0.974  0.00  0.00    +0.017 A 
ATOM     23  C   UNL     1       9.469  10.799  -0.376  0.00  0.00    +0.018 A 
ATOM     24  C   UNL     1       8.494  11.469   0.342  0.00  0.00    +0.017 A 
ATOM     25  C   UNL     1       7.227  10.931   0.457  0.00  0.00    +0.024 A 
ATOM     26 BR   UNL     1      11.200  11.542  -0.538  0.00  0.00    -0.050 Br
ENDBRANCH  17  20
ENDBRANCH   2  14
TORSDOF 6
