REMARK  Name = ZINC00089393
REMARK  8 active torsions:
REMARK  status: ('A' for Active; 'I' for Inactive)
REMARK    1  A    between atoms: C_1  and  C_2
REMARK    2  A    between atoms: C_2  and  O_20
REMARK    3  A    between atoms: C_3  and  C_18
REMARK    4  A    between atoms: C_3  and  C_19
REMARK    5  A    between atoms: N_7  and  C_8
REMARK    6  A    between atoms: C_8  and  C_9
REMARK    7  A    between atoms: C_9  and  C_11
REMARK    8  A    between atoms: C_9  and  O_17
REMARK                            x       y       z     vdW  Elec       q    Type
REMARK                         _______ _______ _______ _____ _____    ______ ____
ROOT
ATOM      1  C   UNL     1      -0.019   1.526   0.010  0.00  0.00    +0.068 C 
ATOM      2  C   UNL     1       0.002  -0.004   0.002  0.00  0.00    +0.175 C 
ATOM      3  C   UNL     1       0.843  -0.537  -1.182  0.00  0.00    +0.155 C 
ATOM      4  O   UNL     1       1.495  -1.681  -0.597  0.00  0.00    -0.440 OA
ATOM      5  C   UNL     1       1.589  -1.473   0.727  0.00  0.00    +0.406 C 
ATOM      6  O   UNL     1       2.360  -2.075   1.449  0.00  0.00    -0.226 OA
ATOM      7  N   UNL     1       0.740  -0.526   1.169  0.00  0.00    -0.233 N 
ATOM      8  C   UNL     1      -0.057  -0.957  -2.346  0.00  0.00    +0.060 C 
ATOM      9  C   UNL     1       1.869   0.503  -1.635  0.00  0.00    +0.060 C 
ENDROOT
BRANCH   2  10
ATOM     10  O   UNL     1      -1.327  -0.528  -0.036  0.00  0.00    -0.368 OA
ATOM     11  H   UNL     1      -1.878  -0.258   0.711  0.00  0.00    +0.212 HD
ENDBRANCH   2  10
BRANCH   7  12
ATOM     12  C   UNL     1       0.578  -0.091   2.559  0.00  0.00    +0.150 C 
BRANCH  12  13
ATOM     13  C   UNL     1      -0.496  -0.943   3.238  0.00  0.00    +0.162 C 
BRANCH  13  14
ATOM     14  C   UNL     1      -0.750  -0.418   4.627  0.00  0.00    -0.018 A 
ATOM     15  C   UNL     1       0.114  -0.740   5.657  0.00  0.00    +0.006 A 
ATOM     16  C   UNL     1      -0.119  -0.258   6.931  0.00  0.00    +0.000 A 
ATOM     17  C   UNL     1      -1.216   0.547   7.176  0.00  0.00    +0.000 A 
ATOM     18  C   UNL     1      -2.080   0.870   6.146  0.00  0.00    +0.000 A 
ATOM     19  C   UNL     1      -1.844   0.391   4.871  0.00  0.00    +0.006 A 
ENDBRANCH  13  14
BRANCH  13  20
ATOM     20  O   UNL     1      -0.051  -2.299   3.315  0.00  0.00    -0.386 OA
ATOM     21  H   UNL     1       0.766  -2.416   3.818  0.00  0.00    +0.210 HD
ENDBRANCH  13  20
ENDBRANCH  12  13
ENDBRANCH   7  12
TORSDOF 5
