REMARK  Name = ZINC02200184
REMARK  6 active torsions:
REMARK  status: ('A' for Active; 'I' for Inactive)
REMARK    1  A    between atoms: C_8  and  S_10
REMARK    2  A    between atoms: S_10  and  C_11
REMARK    3  A    between atoms: C_11  and  C_12
REMARK    4  A    between atoms: N_14  and  N_15
REMARK    5  A    between atoms: C_16  and  C_18
REMARK    6  A    between atoms: C_18  and  C_19
REMARK                            x       y       z     vdW  Elec       q    Type
REMARK                         _______ _______ _______ _____ _____    ______ ____
ROOT
ATOM      1  C   UNL     1      -1.193   2.055   0.019  0.00  0.00    +0.239 C 
ATOM      2  O   UNL     1      -2.235   1.434   0.020  0.00  0.00    -0.273 OA
ATOM      3  N   UNL     1      -0.017   1.397   0.010  0.00  0.00    -0.234 N 
ATOM      4  H   UNL     1       0.816   1.893   0.004  0.00  0.00    +0.173 HD
ENDROOT
BRANCH   3   5
ATOM      5  N   UNL     1       0.002  -0.004   0.002  0.00  0.00    -0.234 N 
ATOM      6  C   UNL     1       1.178  -0.662  -0.013  0.00  0.00    +0.231 C 
ATOM      7  O   UNL     1       2.220  -0.041  -0.019  0.00  0.00    -0.274 OA
ATOM      8  H   UNL     1      -0.831  -0.500   0.007  0.00  0.00    +0.173 HD
BRANCH   6   9
ATOM      9  C   UNL     1       1.199  -2.169  -0.021  0.00  0.00    +0.121 C 
BRANCH   9  10
ATOM     10  C   UNL     1       2.648  -2.659  -0.037  0.00  0.00    +0.150 C 
ATOM     11  C   UNL     1       2.718  -4.174  -0.170  0.00  0.00    +0.234 C 
ATOM     12  O   UNL     1       2.290  -4.760  -1.141  0.00  0.00    -0.274 OA
ATOM     13  N   UNL     1       3.279  -4.806   0.847  0.00  0.00    -0.246 N 
ATOM     14  C   UNL     1       3.761  -4.177   1.935  0.00  0.00    +0.279 C 
ATOM     15  O   UNL     1       4.290  -4.668   2.913  0.00  0.00    -0.263 OA
ATOM     16  S   UNL     1       3.443  -2.450   1.605  0.00  0.00    -0.054 S 
ATOM     17  H   UNL     1       3.346  -5.773   0.808  0.00  0.00    +0.158 HD
ENDBRANCH   9  10
ENDBRANCH   6   9
ENDBRANCH   3   5
BRANCH   1  18
ATOM     18  C   UNL     1      -1.214   3.562   0.027  0.00  0.00    +0.173 C 
BRANCH  18  19
ATOM     19  S   UNL     1      -2.928   4.142   0.038  0.00  0.00    -0.089 S 
BRANCH  19  27
ATOM     20  C   UNL     1      -3.521  10.556   0.078  0.00  0.00    +0.002 A 
ATOM     21  C   UNL     1      -2.151  10.774   0.073  0.00  0.00    +0.001 A 
ATOM     22  C   UNL     1      -1.293   9.689   0.063  0.00  0.00    +0.017 A 
ATOM     23  C   UNL     1      -1.808   8.418   0.057  0.00  0.00    +0.040 A 
ATOM     24  C   UNL     1      -3.197   8.157   0.062  0.00  0.00    +0.079 A 
ATOM     25  C   UNL     1      -4.045   9.290   0.073  0.00  0.00    +0.029 A 
ATOM     26  N   UNL     1      -3.549   6.853   0.056  0.00  0.00    -0.233 NA
ATOM     27  C   UNL     1      -2.662   5.883   0.047  0.00  0.00    +0.136 A 
ATOM     28  S   UNL     1      -1.116   6.781   0.052  0.00  0.00    -0.061 S 
ENDBRANCH  19  27
ENDBRANCH  18  19
ENDBRANCH   1  18
TORSDOF 6
