REMARK  Name = ZINC26780243
REMARK  4 active torsions:
REMARK  status: ('A' for Active; 'I' for Inactive)
REMARK    1  A    between atoms: C_1  and  C_2
REMARK    2  A    between atoms: C_3  and  C_17
REMARK    3  A    between atoms: C_4  and  C_10
REMARK    4  A    between atoms: C_17  and  C_19
REMARK                            x       y       z     vdW  Elec       q    Type
REMARK                         _______ _______ _______ _____ _____    ______ ____
ROOT
ATOM      1  C   UNL     1      -0.316   0.811   0.080  0.00  0.00    +0.061 C 
ATOM      2  C   UNL     1      -0.893   1.423   1.331  0.00  0.00    +0.018 C 
ATOM      3  C   UNL     1      -0.919   2.768   1.463  0.00  0.00    +0.041 C 
ATOM      4  C   UNL     1      -1.512   3.340   2.735  0.00  0.00    +0.142 C 
ATOM      5  N   UNL     1      -2.006   2.376   3.733  0.00  0.00    -0.288 N 
ATOM      6  C   UNL     1      -1.907   1.061   3.458  0.00  0.00    +0.304 C 
ATOM      7  O   UNL     1      -2.312   0.258   4.276  0.00  0.00    -0.252 OA
ATOM      8  N   UNL     1      -1.377   0.609   2.315  0.00  0.00    -0.273 N 
ATOM      9  H   UNL     1      -2.443   2.736   4.676  0.00  0.00    +0.151 HD
ATOM     10  H   UNL     1      -1.344  -0.483   2.191  0.00  0.00    +0.156 HD
ENDROOT
BRANCH   4  11
ATOM     11  C   UNL     1      -2.658   4.241   2.353  0.00  0.00    -0.004 A 
ATOM     12  C   UNL     1      -3.954   3.760   2.375  0.00  0.00    +0.007 A 
ATOM     13  C   UNL     1      -5.005   4.586   2.024  0.00  0.00    +0.000 A 
ATOM     14  C   UNL     1      -4.761   5.895   1.651  0.00  0.00    +0.001 A 
ATOM     15  C   UNL     1      -3.466   6.378   1.629  0.00  0.00    +0.020 A 
ATOM     16  C   UNL     1      -2.414   5.552   1.985  0.00  0.00    +0.046 A 
ATOM     17 CL   UNL     1      -0.788   6.160   1.964  0.00  0.00    -0.083 Cl
ENDBRANCH   4  11
BRANCH   3  18
ATOM     18  C   UNL     1      -0.413   3.613   0.447  0.00  0.00    +0.194 C 
ATOM     19  O   UNL     1       0.680   4.134   0.577  0.00  0.00    -0.287 OA
BRANCH  18  20
ATOM     20  C   UNL     1      -1.212   3.864  -0.772  0.00  0.00    +0.040 A 
ATOM     21  C   UNL     1      -2.508   3.357  -0.878  0.00  0.00    +0.013 A 
ATOM     22  C   UNL     1      -3.247   3.594  -2.017  0.00  0.00    +0.001 A 
ATOM     23  C   UNL     1      -2.708   4.333  -3.056  0.00  0.00    +0.001 A 
ATOM     24  C   UNL     1      -1.424   4.838  -2.959  0.00  0.00    +0.021 A 
ATOM     25  C   UNL     1      -0.674   4.614  -1.821  0.00  0.00    +0.052 A 
ATOM     26 CL   UNL     1       0.934   5.255  -1.697  0.00  0.00    -0.083 Cl
ENDBRANCH  18  20
ENDBRANCH   3  18
TORSDOF 3
