REMARK  Name = ZINC18258353
REMARK  5 active torsions:
REMARK  status: ('A' for Active; 'I' for Inactive)
REMARK    1  A    between atoms: C_4  and  C_7
REMARK    2  A    between atoms: N_14  and  N_29
REMARK    3  A    between atoms: C_15  and  S_17
REMARK    4  A    between atoms: S_17  and  C_18
REMARK    5  A    between atoms: C_18  and  C_19
REMARK                            x       y       z     vdW  Elec       q    Type
REMARK                         _______ _______ _______ _____ _____    ______ ____
ROOT
ATOM      1  C   UNL     1       1.334  -0.602  -0.028  0.00  0.00    +0.004 A 
ATOM      2  C   UNL     1       2.415   0.213  -0.033  0.00  0.00    +0.056 A 
ATOM      3  S   UNL     1       1.701   1.846  -0.014  0.00  0.00    -0.076 S 
ATOM      4  C   UNL     1      -0.016   1.402  -0.000  0.00  0.00    +0.117 A 
ATOM      5  C   UNL     1       0.003  -0.004  -0.010  0.00  0.00    +0.081 A 
ATOM      6  C   UNL     1      -1.274  -0.644  -0.002  0.00  0.00    +0.280 A 
ATOM      7  O   UNL     1      -1.355  -1.861  -0.010  0.00  0.00    -0.265 OA
ATOM      8  N   UNL     1      -2.387   0.112   0.015  0.00  0.00    -0.209 N 
ATOM      9  C   UNL     1      -2.317   1.474   0.024  0.00  0.00    +0.190 A 
ATOM     10  N   UNL     1      -1.152   2.091   0.021  0.00  0.00    -0.215 NA
ENDROOT
BRANCH   1  14
ATOM     11  C   UNL     1       1.809  -4.826  -0.063  0.00  0.00    +0.000 A 
ATOM     12  C   UNL     1       2.489  -4.049  -0.983  0.00  0.00    +0.001 A 
ATOM     13  C   UNL     1       2.339  -2.677  -0.977  0.00  0.00    +0.008 A 
ATOM     14  C   UNL     1       1.499  -2.075  -0.040  0.00  0.00    -0.017 A 
ATOM     15  C   UNL     1       0.821  -2.863   0.888  0.00  0.00    +0.008 A 
ATOM     16  C   UNL     1       0.974  -4.234   0.869  0.00  0.00    +0.001 A 
ENDBRANCH   1  14
BRANCH   8  17
ATOM     17  N   UNL     1      -3.611  -0.496   0.024  0.00  0.00    -0.293 N 
ATOM     18  H   UNL     1      -4.354   0.186   0.036  0.00  0.00    +0.163 HD
ATOM     19  H   UNL     1      -3.708  -1.123  -0.760  0.00  0.00    +0.163 HD
ENDBRANCH   8  17
BRANCH   9  20
ATOM     20  S   UNL     1      -3.802   2.422   0.045  0.00  0.00    -0.077 S 
BRANCH  20  21
ATOM     21  C   UNL     1      -3.108   4.094   0.050  0.00  0.00    +0.173 C 
BRANCH  21  22
ATOM     22  C   UNL     1      -4.227   5.103   0.068  0.00  0.00    +0.229 C 
ATOM     23  O   UNL     1      -5.380   4.728   0.077  0.00  0.00    -0.275 OA
ATOM     24  N   UNL     1      -3.946   6.421   0.075  0.00  0.00    -0.270 N 
ATOM     25  C   UNL     1      -4.979   7.354  -0.016  0.00  0.00    +0.125 A 
ATOM     26  C   UNL     1      -4.676   8.707  -0.116  0.00  0.00    +0.045 A 
ATOM     27  C   UNL     1      -5.710   9.623  -0.210  0.00  0.00    +0.025 A 
ATOM     28  C   UNL     1      -7.016   9.151  -0.190  0.00  0.00    +0.059 A 
ATOM     29  C   UNL     1      -7.243   7.792  -0.083  0.00  0.00    +0.132 A 
ATOM     30  N   UNL     1      -6.237   6.943   0.000  0.00  0.00    -0.239 NA
ATOM     31 CL   UNL     1      -8.350  10.257  -0.299  0.00  0.00    -0.082 Cl
ATOM     32  H   UNL     1      -3.026   6.721   0.142  0.00  0.00    +0.156 HD
ENDBRANCH  21  22
ENDBRANCH  20  21
ENDBRANCH   9  20
TORSDOF 5
