REMARK  Name = ZINC38050857
REMARK  5 active torsions:
REMARK  status: ('A' for Active; 'I' for Inactive)
REMARK    1  A    between atoms: C_4  and  S_17
REMARK    2  A    between atoms: C_5  and  N_7
REMARK    3  A    between atoms: N_7  and  C_8
REMARK    4  A    between atoms: C_14  and  N_16
REMARK    5  A    between atoms: S_17  and  C_20
REMARK                            x       y       z     vdW  Elec       q    Type
REMARK                         _______ _______ _______ _____ _____    ______ ____
ROOT
ATOM      1  C   UNL     1       0.113   1.467  -0.217  0.00  0.00    +0.002 A 
ATOM      2  C   UNL     1       1.311   2.157  -0.253  0.00  0.00    +0.002 A 
ATOM      3  C   UNL     1       2.510   1.469  -0.218  0.00  0.00    +0.029 A 
ATOM      4  C   UNL     1       2.514   0.090  -0.147  0.00  0.00    +0.118 A 
ATOM      5  C   UNL     1       1.313  -0.606  -0.111  0.00  0.00    +0.053 A 
ATOM      6  C   UNL     1       0.110   0.088  -0.147  0.00  0.00    +0.025 A 
ENDROOT
BRANCH   4   7
ATOM      7  S   UNL     1       4.043  -0.786  -0.104  0.00  0.00    +0.093 S 
ATOM      8  O   UNL     1       3.881  -1.845  -1.037  0.00  0.00    -0.161 OA
ATOM      9  O   UNL     1       5.037   0.210  -0.304  0.00  0.00    -0.161 OA
BRANCH   7  10
ATOM     10  C   UNL     1       4.152  -1.449   1.581  0.00  0.00    +0.526 C 
ATOM     11  F   UNL     1       3.137  -2.390   1.779  0.00  0.00    -0.150 F 
ATOM     12  F   UNL     1       5.397  -2.061   1.761  0.00  0.00    -0.150 F 
ATOM     13  F   UNL     1       4.008  -0.406   2.503  0.00  0.00    -0.150 F 
ENDBRANCH   7  10
ENDBRANCH   4   7
BRANCH   5  14
ATOM     14  N   UNL     1       1.314  -2.001  -0.040  0.00  0.00    -0.341 N 
ATOM     15  H   UNL     1       2.150  -2.480   0.078  0.00  0.00    +0.146 HD
BRANCH  14  16
ATOM     16  C   UNL     1       0.054  -2.741  -0.142  0.00  0.00    +0.056 C 
ATOM     17  C   UNL     1      -0.234  -3.056  -1.611  0.00  0.00    +0.020 C 
ATOM     18  C   UNL     1       0.903  -3.904  -2.184  0.00  0.00    +0.002 C 
ATOM     19  C   UNL     1       1.012  -5.210  -1.394  0.00  0.00    -0.001 C 
ATOM     20  C   UNL     1       1.301  -4.895   0.075  0.00  0.00    -0.014 C 
ATOM     21  C   UNL     1       0.164  -4.047   0.647  0.00  0.00    -0.055 C 
BRANCH  21  22
ATOM     22  N   UNL     1       0.440  -3.744   2.058  0.00  0.00    +0.381 N 
ATOM     23  H   UNL     1      -0.266  -3.117   2.413  0.00  0.00    -0.090 HD
ATOM     24  H   UNL     1       0.430  -4.599   2.594  0.00  0.00    -0.090 HD
ATOM     25  H   UNL     1       1.347  -3.309   2.137  0.00  0.00    -0.090 HD
ENDBRANCH  21  22
ENDBRANCH  14  16
ENDBRANCH   5  14
TORSDOF 5
