REMARK  Name = ZINC45530303
REMARK  8 active torsions:
REMARK  status: ('A' for Active; 'I' for Inactive)
REMARK    1  A    between atoms: C_1  and  O_2
REMARK    2  A    between atoms: O_2  and  C_3
REMARK    3  A    between atoms: C_8  and  C_9
REMARK    4  A    between atoms: C_10  and  C_11
REMARK    5  A    between atoms: N_13  and  C_14
REMARK    6  A    between atoms: C_19  and  S_20
REMARK    7  A    between atoms: S_20  and  C_21
REMARK    8  A    between atoms: C_21  and  C_22
REMARK                            x       y       z     vdW  Elec       q    Type
REMARK                         _______ _______ _______ _____ _____    ______ ____
ROOT
ATOM      1  C   UNL     1      -0.469  -4.994   0.915  0.00  0.00    +0.241 C 
ATOM      2  O   UNL     1      -1.009  -4.461   1.867  0.00  0.00    -0.270 OA
ATOM      3  N   UNL     1      -0.407  -6.338   0.841  0.00  0.00    -0.281 N 
ATOM      4  H   UNL     1      -0.036  -6.764   0.052  0.00  0.00    +0.155 HD
ENDROOT
BRANCH   3   5
ATOM      5  C   UNL     1      -0.878  -7.120   1.903  0.00  0.00    +0.047 A 
ATOM      6  C   UNL     1      -1.976  -6.704   2.640  0.00  0.00    +0.024 A 
ATOM      7  C   UNL     1      -2.439  -7.477   3.688  0.00  0.00    +0.002 A 
ATOM      8  C   UNL     1      -1.810  -8.667   4.005  0.00  0.00    +0.001 A 
ATOM      9  C   UNL     1      -0.715  -9.091   3.277  0.00  0.00    +0.016 A 
ATOM     10  C   UNL     1      -0.246  -8.323   2.220  0.00  0.00    +0.030 A 
BRANCH  10  11
ATOM     11  S   UNL     1       1.146  -8.864   1.285  0.00  0.00    -0.114 S 
BRANCH  11  12
ATOM     12  C   UNL     1       1.607 -10.440   2.055  0.00  0.00    +0.169 C 
BRANCH  12  13
ATOM     13  C   UNL     1       2.802 -11.017   1.341  0.00  0.00    +0.221 C 
ATOM     14  O   UNL     1       3.294 -10.424   0.404  0.00  0.00    -0.275 OA
ATOM     15  N   UNL     1       3.324 -12.193   1.743  0.00  0.00    -0.329 N 
ATOM     16  H   UNL     1       2.931 -12.668   2.492  0.00  0.00    +0.145 HD
ATOM     17  H   UNL     1       4.093 -12.565   1.283  0.00  0.00    +0.145 HD
ENDBRANCH  12  13
ENDBRANCH  11  12
ENDBRANCH  10  11
ENDBRANCH   3   5
BRANCH   1  19
ATOM     18  C   UNL     1       0.048  -2.829  -0.075  0.00  0.00    +0.016 C 
ATOM     19  C   UNL     1       0.111  -4.175  -0.149  0.00  0.00    +0.068 C 
BRANCH  18  25
ATOM     20  C   UNL     1       0.568  -0.606  -1.073  0.00  0.00    +0.127 A 
ATOM     21  C   UNL     1       1.126   0.160  -2.084  0.00  0.00    +0.047 A 
ATOM     22  C   UNL     1       1.736  -0.454  -3.162  0.00  0.00    +0.019 A 
ATOM     23  C   UNL     1       1.796  -1.837  -3.241  0.00  0.00    +0.019 A 
ATOM     24  C   UNL     1       1.247  -2.615  -2.244  0.00  0.00    +0.026 A 
ATOM     25  C   UNL     1       0.631  -2.006  -1.145  0.00  0.00    +0.018 A 
ATOM     26 BR   UNL     1       2.635  -2.659  -4.723  0.00  0.00    -0.050 Br
BRANCH  20  28
ATOM     27  C   UNL     1      -0.057   1.425  -0.009  0.00  0.00    +0.277 C 
ATOM     28  O   UNL     1      -0.031  -0.004  -0.014  0.00  0.00    -0.495 OA
ENDBRANCH  20  28
ENDBRANCH  18  25
ENDBRANCH   1  19
TORSDOF 7
