REMARK  Name = ZINC39951405
REMARK  6 active torsions:
REMARK  status: ('A' for Active; 'I' for Inactive)
REMARK    1  A    between atoms: C_1  and  C_2
REMARK    2  A    between atoms: C_2  and  C_3
REMARK    3  A    between atoms: C_2  and  C_4
REMARK    4  A    between atoms: C_9  and  C_28
REMARK    5  A    between atoms: C_10  and  O_12
REMARK    6  A    between atoms: C_16  and  C_18
REMARK                            x       y       z     vdW  Elec       q    Type
REMARK                         _______ _______ _______ _____ _____    ______ ____
ROOT
ATOM      1  C   UNL     1      -1.457  -0.406   0.229  0.00  0.00    +0.014 C 
ATOM      2  C   UNL     1      -2.217   0.206  -0.909  0.00  0.00    +0.026 C 
ATOM      3  C   UNL     1      -3.662   0.445  -0.622  0.00  0.00    +0.087 C 
ATOM      4  N   UNL     1      -4.301  -0.546   0.211  0.00  0.00    -0.283 NA
ATOM      5  C   UNL     1      -3.923  -1.923   0.039  0.00  0.00    +0.096 C 
ATOM      6  C   UNL     1      -2.748  -2.425   0.853  0.00  0.00    +0.020 C 
ATOM      7  C   UNL     1      -1.456  -1.913   0.256  0.00  0.00    +0.131 C 
ATOM      8  C   UNL     1      -2.827  -1.907   2.294  0.00  0.00    +0.096 C 
ATOM      9  N   UNL     1      -2.977  -0.445   2.211  0.00  0.00    -0.282 NA
ATOM     10  C   UNL     1      -1.835   0.206   1.568  0.00  0.00    +0.096 C 
ATOM     11  C   UNL     1      -4.270  -0.107   1.617  0.00  0.00    +0.160 C 
ATOM     12  C   UNL     1      -2.747  -3.955   0.857  0.00  0.00    +0.016 C 
ENDROOT
BRANCH  11  13
ATOM     13  C   UNL     1      -5.369  -0.799   2.382  0.00  0.00    +0.009 A 
ATOM     14  C   UNL     1      -5.320  -1.202   3.662  0.00  0.00    +0.090 A 
ATOM     15  N   UNL     1      -6.504  -1.791   4.012  0.00  0.00    -0.360 N 
ATOM     16  H   UNL     1      -6.706  -2.160   4.886  0.00  0.00    +0.165 HD
ATOM     17  C   UNL     1      -7.367  -1.782   2.938  0.00  0.00    +0.047 A 
ATOM     18  C   UNL     1      -6.696  -1.155   1.872  0.00  0.00    +0.006 A 
ATOM     19  C   UNL     1      -7.336  -0.997   0.642  0.00  0.00    +0.010 A 
ATOM     20  C   UNL     1      -8.615  -1.451   0.481  0.00  0.00    +0.001 A 
ATOM     21  C   UNL     1      -9.283  -2.067   1.530  0.00  0.00    +0.002 A 
ATOM     22  C   UNL     1      -8.666  -2.240   2.750  0.00  0.00    +0.026 A 
ENDBRANCH  11  13
BRANCH   1  24
ATOM     23  C   UNL     1       0.448  -0.463  -1.388  0.00  0.00    +0.008 C 
ATOM     24  C   UNL     1       0.002  -0.004   0.002  0.00  0.00    -0.007 C 
ATOM     25  C   UNL     1       0.134   1.517   0.103  0.00  0.00    +0.008 C 
ENDBRANCH   1  24
BRANCH   7  26
ATOM     26  O   UNL     1      -0.367  -2.376   1.058  0.00  0.00    -0.391 OA
ATOM     27  H   UNL     1      -0.305  -3.339   1.120  0.00  0.00    +0.210 HD
ENDBRANCH   7  26
TORSDOF 3
