REMARK  Name = ZINC36869321
REMARK  7 active torsions:
REMARK  status: ('A' for Active; 'I' for Inactive)
REMARK    1  A    between atoms: C_1  and  C_2
REMARK    2  A    between atoms: C_2  and  C_3
REMARK    3  A    between atoms: C_2  and  N_4
REMARK    4  A    between atoms: C_6  and  N_21
REMARK    5  A    between atoms: C_8  and  C_9
REMARK    6  A    between atoms: N_11  and  C_12
REMARK    7  A    between atoms: N_11  and  C_13
REMARK                            x       y       z     vdW  Elec       q    Type
REMARK                         _______ _______ _______ _____ _____    ______ ____
ROOT
ATOM      1  N   UNL     1      -3.027  -2.337  -0.262  0.00  0.00    -0.339 N 
ATOM      2  C   UNL     1      -3.233  -1.920   1.016  0.00  0.00    +0.109 A 
ATOM      3  C   UNL     1      -2.096  -1.332   1.472  0.00  0.00    +0.043 A 
ATOM      4  C   UNL     1      -1.146  -1.383   0.443  0.00  0.00    +0.055 A 
ATOM      5  C   UNL     1      -1.740  -2.018  -0.628  0.00  0.00    +0.107 A 
ENDROOT
BRANCH   5   6
ATOM      6  C   UNL     1      -1.113  -2.300  -1.924  0.00  0.00    +0.263 C 
ATOM      7  O   UNL     1      -1.694  -2.986  -2.744  0.00  0.00    -0.268 OA
ATOM      8  N   UNL     1       0.105  -1.798  -2.206  0.00  0.00    -0.295 N 
ATOM      9  C   UNL     1       0.877  -1.117  -1.163  0.00  0.00    +0.132 C 
BRANCH   8  10
ATOM     10  C   UNL     1       0.659  -1.935  -3.556  0.00  0.00    +0.098 C 
ATOM     11  C   UNL     1       0.937  -0.538  -4.137  0.00  0.00    +0.046 C 
ATOM     12  C   UNL     1       1.803  -0.711  -5.418  0.00  0.00    +0.168 C 
ATOM     13  S   UNL     1       2.961  -2.033  -4.867  0.00  0.00    -0.029 S 
ATOM     14  O   UNL     1       4.130  -1.430  -4.329  0.00  0.00    -0.174 OA
ATOM     15  O   UNL     1       3.085  -2.999  -5.902  0.00  0.00    -0.174 OA
ATOM     16  C   UNL     1       1.973  -2.750  -3.492  0.00  0.00    +0.188 C 
ENDBRANCH   8  10
ENDBRANCH   5   6
BRANCH   1  18
ATOM     17  C   UNL     1      -4.314  -4.401  -0.522  0.00  0.00    +0.030 C 
ATOM     18  C   UNL     1      -4.011  -3.020  -1.107  0.00  0.00    +0.081 C 
ATOM     19  C   UNL     1      -5.298  -2.194  -1.159  0.00  0.00    +0.030 C 
ENDBRANCH   1  18
BRANCH   3  20
ATOM     20  N   UNL     1      -1.907  -0.771   2.748  0.00  0.00    -0.357 N 
ATOM     21  H   UNL     1      -2.630  -0.783   3.395  0.00  0.00    +0.142 HD
ATOM     22  H   UNL     1      -1.054  -0.371   2.981  0.00  0.00    +0.142 HD
ENDBRANCH   3  20
TORSDOF 4
