REMARK  Name = ZINC22907407
REMARK  6 active torsions:
REMARK  status: ('A' for Active; 'I' for Inactive)
REMARK    1  A    between atoms: N_9  and  C_11
REMARK    2  A    between atoms: C_11  and  C_13
REMARK    3  A    between atoms: C_11  and  C_27
REMARK    4  A    between atoms: C_13  and  N_14
REMARK    5  A    between atoms: C_15  and  C_17
REMARK    6  A    between atoms: N_19  and  C_20
REMARK                            x       y       z     vdW  Elec       q    Type
REMARK                         _______ _______ _______ _____ _____    ______ ____
ROOT
ATOM      1  C   UNL     1      -0.044   1.296  -1.825  0.00  0.00    +0.140 C 
ENDROOT
BRANCH   1  10
ATOM      2  C   UNL     1      -1.803   1.804   4.337  0.00  0.00    +0.000 A 
ATOM      3  C   UNL     1      -0.998   0.689   4.194  0.00  0.00    +0.000 A 
ATOM      4  C   UNL     1      -0.439   0.398   2.966  0.00  0.00    +0.005 A 
ATOM      5  C   UNL     1      -0.684   1.218   1.871  0.00  0.00    -0.030 A 
ATOM      6  C   UNL     1      -1.485   2.327   2.015  0.00  0.00    -0.042 A 
ATOM      7  C   UNL     1      -2.045   2.620   3.250  0.00  0.00    +0.004 A 
ATOM      8  C   UNL     1      -1.780   3.244   0.856  0.00  0.00    +0.051 C 
ATOM      9  C   UNL     1      -0.772   3.005  -0.268  0.00  0.00    +0.090 C 
ATOM     10  N   UNL     1      -0.715   1.561  -0.545  0.00  0.00    -0.287 NA
ATOM     11  C   UNL     1      -0.045   0.860   0.555  0.00  0.00    +0.120 C 
ENDBRANCH   1  10
BRANCH   1  12
ATOM     12  C   UNL     1       1.346   1.878  -1.793  0.00  0.00    +0.123 A 
ATOM     13  C   UNL     1       1.902   2.638  -2.753  0.00  0.00    +0.046 A 
ATOM     14  C   UNL     1       3.206   2.963  -2.315  0.00  0.00    +0.041 A 
ATOM     15  C   UNL     1       3.369   2.381  -1.113  0.00  0.00    +0.195 A 
ATOM     16  O   UNL     1       2.237   1.730  -0.799  0.00  0.00    -0.466 OA
ENDBRANCH   1  12
BRANCH   1  17
ATOM     17  C   UNL     1       0.041  -0.215  -2.053  0.00  0.00    +0.131 C 
BRANCH  17  18
ATOM     18  N   UNL     1      -1.300  -0.798  -1.964  0.00  0.00    -0.306 N 
ATOM     19  C   UNL     1      -1.470  -2.125  -2.133  0.00  0.00    +0.299 C 
ATOM     20  O   UNL     1      -0.513  -2.836  -2.358  0.00  0.00    -0.265 OA
ATOM     21  H   UNL     1      -2.168  -0.154  -1.760  0.00  0.00    +0.149 HD
BRANCH  19  22
ATOM     22  C   UNL     1      -2.837  -2.720  -2.043  0.00  0.00    +0.303 C 
ATOM     23  O   UNL     1      -3.795  -2.008  -1.817  0.00  0.00    -0.265 OA
ATOM     24  N   UNL     1      -3.008  -4.046  -2.211  0.00  0.00    -0.278 N 
ATOM     25  H   UNL     1      -2.133  -4.702  -2.331  0.00  0.00    +0.155 HD
BRANCH  24  26
ATOM     26  C   UNL     1      -4.295  -4.587  -2.234  0.00  0.00    +0.035 A 
ATOM     27  C   UNL     1      -4.523  -5.863  -1.732  0.00  0.00    +0.023 A 
ATOM     28  C   UNL     1      -5.797  -6.394  -1.751  0.00  0.00    +0.003 A 
ATOM     29  C   UNL     1      -6.846  -5.662  -2.278  0.00  0.00    +0.020 A 
ATOM     30  C   UNL     1      -6.622  -4.394  -2.783  0.00  0.00    +0.043 A 
ATOM     31  C   UNL     1      -5.350  -3.854  -2.763  0.00  0.00    +0.043 A 
ATOM     32 CL   UNL     1      -7.941  -3.478  -3.444  0.00  0.00    -0.083 Cl
ENDBRANCH  24  26
ENDBRANCH  19  22
ENDBRANCH  17  18
ENDBRANCH   1  17
TORSDOF 6
