REMARK  Name = ZINC34859045
REMARK  13 active torsions:
REMARK  status: ('A' for Active; 'I' for Inactive)
REMARK    1  A    between atoms: C_3  and  O_36
REMARK    2  A    between atoms: C_6  and  C_7
REMARK    3  A    between atoms: C_8  and  C_9
REMARK    4  A    between atoms: C_9  and  C_11
REMARK    5  A    between atoms: C_12  and  O_35
REMARK    6  A    between atoms: C_14  and  O_34
REMARK    7  A    between atoms: C_16  and  O_17
REMARK    8  A    between atoms: O_17  and  C_18
REMARK    9  A    between atoms: C_20  and  O_33
REMARK   10  A    between atoms: C_22  and  O_32
REMARK   11  A    between atoms: C_24  and  O_31
REMARK   12  A    between atoms: C_26  and  C_29
REMARK   13  A    between atoms: C_29  and  O_30
REMARK                            x       y       z     vdW  Elec       q    Type
REMARK                         _______ _______ _______ _____ _____    ______ ____
ROOT
ATOM      1  C   UNL     1       0.060  -4.274  -0.345  0.00  0.00    +0.105 A 
ATOM      2  C   UNL     1      -1.142  -4.993  -0.450  0.00  0.00    +0.135 A 
ATOM      3  C   UNL     1      -1.109  -6.358  -0.665  0.00  0.00    +0.091 A 
ATOM      4  C   UNL     1       0.107  -7.019  -0.779  0.00  0.00    +0.124 A 
ATOM      5  C   UNL     1       1.300  -6.315  -0.677  0.00  0.00    +0.092 A 
ATOM      6  C   UNL     1       1.285  -4.948  -0.466  0.00  0.00    +0.142 A 
ENDROOT
BRANCH   1   7
ATOM      7  C   UNL     1       0.034  -2.821  -0.116  0.00  0.00    +0.193 C 
ATOM      8  O   UNL     1       1.073  -2.218   0.089  0.00  0.00    -0.287 OA
BRANCH   7  10
ATOM      9  C   UNL     1      -1.252  -0.751  -0.053  0.00  0.00    +0.012 C 
ATOM     10  C   UNL     1      -1.238  -2.099  -0.133  0.00  0.00    +0.052 C 
BRANCH   9  16
ATOM     11  C   UNL     1       0.891  -0.395  -1.264  0.00  0.00    +0.011 A 
ATOM     12  C   UNL     1       2.048   0.322  -1.469  0.00  0.00    +0.046 A 
ATOM     13  C   UNL     1       2.318   1.447  -0.697  0.00  0.00    +0.117 A 
ATOM     14  C   UNL     1       1.422   1.853   0.285  0.00  0.00    +0.046 A 
ATOM     15  C   UNL     1       0.262   1.143   0.498  0.00  0.00    +0.011 A 
ATOM     16  C   UNL     1      -0.015   0.010  -0.276  0.00  0.00    -0.025 A 
BRANCH  13  17
ATOM     17  O   UNL     1       3.461   2.150  -0.903  0.00  0.00    -0.507 OA
ATOM     18  H   UNL     1       3.373   2.860  -1.554  0.00  0.00    +0.292 HD
ENDBRANCH  13  17
ENDBRANCH   9  16
ENDBRANCH   7  10
ENDBRANCH   1   7
BRANCH   4  19
ATOM     19  O   UNL     1       0.131  -8.359  -0.991  0.00  0.00    -0.507 OA
ATOM     20  H   UNL     1       0.131  -8.610  -1.925  0.00  0.00    +0.292 HD
ENDBRANCH   4  19
BRANCH   2  21
ATOM     21  O   UNL     1      -2.332  -4.350  -0.338  0.00  0.00    -0.506 OA
ATOM     22  H   UNL     1      -2.683  -4.026  -1.179  0.00  0.00    +0.292 HD
ENDBRANCH   2  21
BRANCH   6  23
ATOM     23  O   UNL     1       2.452  -4.261  -0.372  0.00  0.00    -0.460 OA
BRANCH  23  24
ATOM     24  C   UNL     1       3.660  -5.013  -0.505  0.00  0.00    +0.339 C 
ATOM     25  C   UNL     1       4.858  -4.060  -0.496  0.00  0.00    +0.214 C 
ATOM     26  C   UNL     1       4.910  -3.331   0.850  0.00  0.00    +0.180 C 
ATOM     27  C   UNL     1       4.982  -4.367   1.976  0.00  0.00    +0.177 C 
ATOM     28  C   UNL     1       3.779  -5.308   1.872  0.00  0.00    +0.179 C 
ATOM     29  O   UNL     1       3.773  -5.930   0.585  0.00  0.00    -0.331 OA
BRANCH  27  30
ATOM     30  O   UNL     1       6.191  -5.120   1.856  0.00  0.00    -0.386 OA
ATOM     31  H   UNL     1       6.995  -4.584   1.909  0.00  0.00    +0.210 HD
ENDBRANCH  27  30
BRANCH  26  32
ATOM     32  O   UNL     1       6.066  -2.492   0.895  0.00  0.00    -0.386 OA
ATOM     33  H   UNL     1       6.088  -1.816   0.204  0.00  0.00    +0.210 HD
ENDBRANCH  26  32
BRANCH  25  34
ATOM     34  O   UNL     1       6.062  -4.806  -0.684  0.00  0.00    -0.383 OA
ATOM     35  H   UNL     1       6.095  -5.296  -1.516  0.00  0.00    +0.210 HD
ENDBRANCH  25  34
BRANCH  28  36
ATOM     36  C   UNL     1       3.876  -6.382   2.957  0.00  0.00    +0.190 C 
BRANCH  36  37
ATOM     37  O   UNL     1       2.697  -7.190   2.934  0.00  0.00    -0.392 OA
ATOM     38  H   UNL     1       2.689  -7.893   3.598  0.00  0.00    +0.210 HD
ENDBRANCH  36  37
ENDBRANCH  28  36
ENDBRANCH  23  24
ENDBRANCH   6  23
TORSDOF 13
