REMARK  Name = ZINC42459650
REMARK  8 active torsions:
REMARK  status: ('A' for Active; 'I' for Inactive)
REMARK    1  A    between atoms: C_1  and  C_2
REMARK    2  A    between atoms: C_2  and  C_4
REMARK    3  A    between atoms: C_2  and  C_16
REMARK    4  A    between atoms: C_4  and  N_5
REMARK    5  A    between atoms: N_5  and  C_6
REMARK    6  A    between atoms: N_5  and  S_7
REMARK    7  A    between atoms: S_7  and  C_10
REMARK    8  A    between atoms: N_17  and  O_18
REMARK                            x       y       z     vdW  Elec       q    Type
REMARK                         _______ _______ _______ _____ _____    ______ ____
ROOT
ATOM      1  N   UNL     1       1.989  -0.030  -1.102  0.00  0.00    -0.178 NA
ATOM      2  C   UNL     1       3.048  -0.853  -0.513  0.00  0.00    +0.131 C 
ENDROOT
BRANCH   1   3
ATOM      3  S   UNL     1       2.334   1.490  -1.658  0.00  0.00    +0.067 S 
ATOM      4  O   UNL     1       3.742   1.544  -1.846  0.00  0.00    -0.152 OA
ATOM      5  O   UNL     1       1.415   1.758  -2.708  0.00  0.00    -0.152 OA
BRANCH   3   6
ATOM      6  C   UNL     1       1.957   2.619  -0.359  0.00  0.00    +0.144 A 
ATOM      7  C   UNL     1       2.780   3.147   0.579  0.00  0.00    +0.037 A 
ATOM      8  C   UNL     1       2.258   4.023   1.513  0.00  0.00    +0.025 A 
ATOM      9  C   UNL     1       0.938   4.328   1.462  0.00  0.00    +0.057 A 
ATOM     10  S   UNL     1       0.391   3.369   0.059  0.00  0.00    -0.062 S 
ATOM     11 BR   UNL     1      -0.063   5.476   2.582  0.00  0.00    -0.043 Br
ENDBRANCH   3   6
ENDBRANCH   1   3
BRANCH   1  12
ATOM     12  C   UNL     1       0.624  -0.553  -1.199  0.00  0.00    +0.120 C 
BRANCH  12  14
ATOM     13  C   UNL     1       1.367  -2.603  -2.420  0.00  0.00    +0.017 C 
ATOM     14  C   UNL     1       0.477  -1.360  -2.491  0.00  0.00    +0.068 C 
BRANCH  14  15
ATOM     15  C   UNL     1      -0.960  -1.781  -2.660  0.00  0.00    +0.136 C 
ATOM     16  N   UNL     1      -1.344  -2.945  -2.253  0.00  0.00    -0.076 NA
ATOM     17  N   UNL     1      -1.863  -0.924  -3.249  0.00  0.00    -0.344 N 
ATOM     18  H   UNL     1      -1.574  -0.050  -3.555  0.00  0.00    +0.144 HD
ATOM     19  H   UNL     1      -2.788  -1.195  -3.358  0.00  0.00    +0.144 HD
BRANCH  16  20
ATOM     20  O   UNL     1      -2.695  -3.340  -2.413  0.00  0.00    -0.408 OA
ATOM     21  H   UNL     1      -2.887  -4.227  -2.078  0.00  0.00    +0.328 HD
ENDBRANCH  16  20
ENDBRANCH  14  15
ENDBRANCH  12  14
ENDBRANCH   1  12
TORSDOF 6
