REMARK  Name = ZINC01606301
REMARK  4 active torsions:
REMARK  status: ('A' for Active; 'I' for Inactive)
REMARK    1  A    between atoms: C_1  and  N_2
REMARK    2  A    between atoms: C_3  and  C_5
REMARK    3  A    between atoms: C_8  and  C_13
REMARK    4  A    between atoms: N_15  and  C_16
REMARK                            x       y       z     vdW  Elec       q    Type
REMARK                         _______ _______ _______ _____ _____    ______ ____
ROOT
ATOM      1  C   UNL     1      -1.240   2.414   0.021  0.00  0.00    +0.076 A 
ATOM      2  C   UNL     1      -1.259   3.810   0.034  0.00  0.00    +0.074 A 
ATOM      3  C   UNL     1      -0.073   4.517   0.027  0.00  0.00    +0.074 A 
ATOM      4  C   UNL     1       1.146   3.835   0.011  0.00  0.00    +0.076 A 
ATOM      5  C   UNL     1       1.165   2.438   0.004  0.00  0.00    +0.074 A 
ATOM      6  C   UNL     1      -0.021   1.732   0.012  0.00  0.00    +0.074 A 
ATOM      7 CL   UNL     1       0.002  -0.004   0.002  0.00  0.00    -0.081 Cl
ATOM      8 CL   UNL     1       2.680   1.591  -0.015  0.00  0.00    -0.081 Cl
ATOM      9 CL   UNL     1      -0.097   6.253   0.036  0.00  0.00    -0.081 Cl
ATOM     10 CL   UNL     1      -2.774   4.658   0.052  0.00  0.00    -0.081 Cl
ENDROOT
BRANCH   1  13
ATOM     11  C   UNL     1      -4.354   0.569  -1.141  0.00  0.00    +0.128 C 
ATOM     12  N   UNL     1      -3.096   1.318  -1.143  0.00  0.00    -0.314 N 
ATOM     13  C   UNL     1      -2.511   1.657   0.023  0.00  0.00    +0.247 C 
ATOM     14  O   UNL     1      -3.028   1.340   1.076  0.00  0.00    -0.270 OA
ATOM     15  H   UNL     1      -2.683   1.571  -1.984  0.00  0.00    +0.149 HD
ENDBRANCH   1  13
BRANCH   4  16
ATOM     16  C   UNL     1       2.417   4.592   0.003  0.00  0.00    +0.247 C 
ATOM     17  O   UNL     1       2.929   4.908  -1.053  0.00  0.00    -0.270 OA
ATOM     18  N   UNL     1       3.006   4.931   1.167  0.00  0.00    -0.314 N 
ATOM     19  C   UNL     1       4.265   5.681   1.159  0.00  0.00    +0.128 C 
ATOM     20  H   UNL     1       2.598   4.678   2.009  0.00  0.00    +0.149 HD
ENDBRANCH   4  16
TORSDOF 2
