REMARK  Name = ZINC42427652
REMARK  4 active torsions:
REMARK  status: ('A' for Active; 'I' for Inactive)
REMARK    1  A    between atoms: C_1  and  C_2
REMARK    2  A    between atoms: C_6  and  C_17
REMARK    3  A    between atoms: N_9  and  C_10
REMARK    4  A    between atoms: C_14  and  N_16
REMARK                            x       y       z     vdW  Elec       q    Type
REMARK                         _______ _______ _______ _____ _____    ______ ____
ROOT
ATOM      1  C   UNL     1       0.790   1.463  -0.357  0.00  0.00    +0.028 C 
ATOM      2  C   UNL     1       0.413  -0.013  -0.207  0.00  0.00    +0.070 C 
ATOM      3  C   UNL     1       1.137  -0.839  -1.274  0.00  0.00    +0.023 C 
ATOM      4  C   UNL     1       0.867  -2.326  -1.033  0.00  0.00    +0.016 C 
ATOM      5  C   UNL     1       1.410  -2.728   0.340  0.00  0.00    +0.092 C 
ATOM      6  C   UNL     1       0.690  -1.924   1.426  0.00  0.00    +0.118 C 
ATOM      7  N   UNL     1       0.819  -0.492   1.122  0.00  0.00    -0.326 N 
ENDROOT
BRANCH   7   8
ATOM      8  C   UNL     1       1.322   0.396   2.075  0.00  0.00    +0.032 A 
ATOM      9  C   UNL     1       0.451   1.088   2.909  0.00  0.00    +0.023 A 
ATOM     10  C   UNL     1       0.947   1.967   3.852  0.00  0.00    +0.004 A 
ATOM     11  C   UNL     1       2.310   2.161   3.971  0.00  0.00    +0.023 A 
ATOM     12  C   UNL     1       3.186   1.472   3.141  0.00  0.00    +0.026 A 
ATOM     13  C   UNL     1       2.691   0.584   2.196  0.00  0.00    +0.045 A 
BRANCH  12  14
ATOM     14  N   UNL     1       4.564   1.669   3.261  0.00  0.00    -0.358 N 
ATOM     15  H   UNL     1       4.909   2.287   3.924  0.00  0.00    +0.142 HD
ATOM     16  H   UNL     1       5.175   1.188   2.681  0.00  0.00    +0.142 HD
ENDBRANCH  12  14
ENDBRANCH   7   8
BRANCH   5  17
ATOM     17  C   UNL     1       1.173  -4.200   0.562  0.00  0.00    +0.215 C 
ATOM     18  O   UNL     1       0.497  -4.571   1.498  0.00  0.00    -0.276 OA
ATOM     19  N   UNL     1       1.713  -5.104  -0.279  0.00  0.00    -0.329 N 
ATOM     20  H   UNL     1       2.254  -4.808  -1.028  0.00  0.00    +0.145 HD
ATOM     21  H   UNL     1       1.560  -6.051  -0.136  0.00  0.00    +0.145 HD
ENDBRANCH   5  17
TORSDOF 3
