REMARK  Name = ZINC43237577
REMARK  9 active torsions:
REMARK  status: ('A' for Active; 'I' for Inactive)
REMARK    1  A    between atoms: C_1  and  C_2
REMARK    2  A    between atoms: C_2  and  C_4
REMARK    3  A    between atoms: C_2  and  N_23
REMARK    4  A    between atoms: C_4  and  C_6
REMARK    5  A    between atoms: C_4  and  S_12
REMARK    6  A    between atoms: N_9  and  C_11
REMARK    7  A    between atoms: S_12  and  C_13
REMARK    8  A    between atoms: C_16  and  N_19
REMARK    9  A    between atoms: C_20  and  C_22
REMARK                            x       y       z     vdW  Elec       q    Type
REMARK                         _______ _______ _______ _____ _____    ______ ____
ROOT
ATOM      1  C   UNL     1       0.652  -0.520   1.313  0.00  0.00    +0.070 C 
ENDROOT
BRANCH   1   2
ATOM      2  C   UNL     1      -0.205  -0.014   2.445  0.00  0.00    +0.002 A 
ATOM      3  C   UNL     1      -1.567  -0.276   2.627  0.00  0.00    +0.139 A 
ATOM      4  N   UNL     1      -1.958   0.332   3.717  0.00  0.00    -0.180 NA
ATOM      5  N   UNL     1      -0.856   1.002   4.264  0.00  0.00    -0.274 N 
ATOM      6  C   UNL     1       0.209   0.769   3.468  0.00  0.00    +0.112 A 
ATOM      7  C   UNL     1      -0.857   1.808   5.488  0.00  0.00    +0.172 C 
ENDBRANCH   1   2
BRANCH   1   9
ATOM      8  C   UNL     1       0.100   1.517  -0.024  0.00  0.00    -0.013 C 
ATOM      9  C   UNL     1       0.091  -0.013  -0.017  0.00  0.00    -0.060 C 
BRANCH   9  10
ATOM     10  N   UNL     1       0.921  -0.513  -1.121  0.00  0.00    +0.381 N 
ATOM     11  H   UNL     1       1.883  -0.252  -0.963  0.00  0.00    -0.090 HD
ATOM     12  H   UNL     1       0.849  -1.518  -1.167  0.00  0.00    -0.090 HD
ATOM     13  H   UNL     1       0.602  -0.112  -1.990  0.00  0.00    -0.090 HD
ENDBRANCH   9  10
ENDBRANCH   1   9
BRANCH   1  14
ATOM     14  S   UNL     1       0.650  -2.334   1.318  0.00  0.00    -0.119 S 
BRANCH  14  15
ATOM     15  C   UNL     1       1.542  -2.758   2.777  0.00  0.00    +0.009 A 
ATOM     16  C   UNL     1       2.186  -1.768   3.510  0.00  0.00    +0.016 A 
ATOM     17  C   UNL     1       2.884  -2.100   4.653  0.00  0.00    +0.024 A 
ATOM     18  C   UNL     1       2.944  -3.423   5.071  0.00  0.00    +0.033 A 
ATOM     19  C   UNL     1       2.300  -4.413   4.339  0.00  0.00    +0.024 A 
ATOM     20  C   UNL     1       1.597  -4.081   3.199  0.00  0.00    +0.016 A 
BRANCH  18  21
ATOM     21  N   UNL     1       3.653  -3.760   6.232  0.00  0.00    -0.286 N 
ATOM     22  C   UNL     1       3.684  -2.907   7.274  0.00  0.00    +0.214 C 
ATOM     23  O   UNL     1       3.025  -1.889   7.245  0.00  0.00    -0.276 OA
ATOM     24  C   UNL     1       4.537  -3.217   8.477  0.00  0.00    +0.109 C 
ATOM     25  H   UNL     1       4.123  -4.607   6.285  0.00  0.00    +0.155 HD
ENDBRANCH  18  21
ENDBRANCH  14  15
ENDBRANCH   1  14
TORSDOF 6
