REMARK  Name = ZINC09086845
REMARK  6 active torsions:
REMARK  status: ('A' for Active; 'I' for Inactive)
REMARK    1  A    between atoms: C_4  and  C_7
REMARK    2  A    between atoms: C_7  and  C_9
REMARK    3  A    between atoms: C_11  and  C_23
REMARK    4  A    between atoms: C_17  and  C_18
REMARK    5  A    between atoms: C_17  and  O_22
REMARK    6  A    between atoms: C_26  and  C_29
REMARK                            x       y       z     vdW  Elec       q    Type
REMARK                         _______ _______ _______ _____ _____    ______ ____
ROOT
ATOM      1  C   UNL     1       5.465  -0.076   0.383  0.00  0.00    +0.144 C 
ATOM      2  C   UNL     1       6.098  -0.539  -0.934  0.00  0.00    +0.120 C 
ATOM      3  N   UNL     1       6.130  -2.002  -0.963  0.00  0.00    -0.292 N 
ATOM      4  C   UNL     1       6.218  -2.721   0.166  0.00  0.00    +0.302 C 
ATOM      5  O   UNL     1       6.251  -3.933   0.085  0.00  0.00    -0.253 OA
ATOM      6  N   UNL     1       6.269  -2.155   1.381  0.00  0.00    -0.264 N 
ATOM      7  C   UNL     1       6.245  -0.700   1.545  0.00  0.00    +0.243 C 
ATOM      8  H   UNL     1       6.088  -2.461  -1.817  0.00  0.00    +0.151 HD
ATOM      9  H   UNL     1       6.323  -2.720   2.167  0.00  0.00    +0.153 HD
ENDROOT
BRANCH   2  10
ATOM     10  C   UNL     1       7.502  -0.002  -1.034  0.00  0.00    -0.026 A 
ATOM     11  C   UNL     1       7.718   1.292  -1.471  0.00  0.00    +0.006 A 
ATOM     12  C   UNL     1       9.006   1.786  -1.558  0.00  0.00    +0.013 A 
ATOM     13  C   UNL     1      10.079   0.983  -1.218  0.00  0.00    +0.055 A 
ATOM     14  C   UNL     1       9.863  -0.312  -0.785  0.00  0.00    +0.013 A 
ATOM     15  C   UNL     1       8.575  -0.804  -0.693  0.00  0.00    +0.006 A 
BRANCH  13  16
ATOM     16  C   UNL     1      11.483   1.520  -1.318  0.00  0.00    +0.417 C 
ATOM     17  F   UNL     1      11.992   1.258  -2.595  0.00  0.00    -0.166 F 
ATOM     18  F   UNL     1      11.472   2.901  -1.095  0.00  0.00    -0.166 F 
ATOM     19  F   UNL     1      12.290   0.899  -0.358  0.00  0.00    -0.166 F 
ENDBRANCH  13  16
ENDBRANCH   2  10
BRANCH   7  20
ATOM     20  C   UNL     1       5.563  -0.346   2.868  0.00  0.00    +0.436 C 
ATOM     21  F   UNL     1       4.309  -0.965   2.926  0.00  0.00    -0.166 F 
ATOM     22  F   UNL     1       6.352  -0.791   3.933  0.00  0.00    -0.166 F 
ATOM     23  F   UNL     1       5.402   1.041   2.953  0.00  0.00    -0.166 F 
ENDBRANCH   7  20
BRANCH   1  24
ATOM     24  C   UNL     1       4.028  -0.526   0.439  0.00  0.00    +0.173 C 
ATOM     25  O   UNL     1       3.736  -1.663   0.133  0.00  0.00    -0.292 OA
BRANCH  24  29
ATOM     26  C   UNL     1       1.003   2.183   1.665  0.00  0.00    +0.000 A 
ATOM     27  C   UNL     1       2.332   2.571   1.704  0.00  0.00    +0.001 A 
ATOM     28  C   UNL     1       3.321   1.695   1.308  0.00  0.00    +0.011 A 
ATOM     29  C   UNL     1       2.978   0.414   0.865  0.00  0.00    +0.018 A 
ATOM     30  C   UNL     1       1.634   0.030   0.828  0.00  0.00    +0.011 A 
ATOM     31  C   UNL     1       0.657   0.917   1.228  0.00  0.00    +0.001 A 
ENDBRANCH  24  29
ENDBRANCH   1  24
BRANCH   7  32
ATOM     32  O   UNL     1       7.583  -0.197   1.546  0.00  0.00    -0.364 OA
ATOM     33  H   UNL     1       8.135  -0.550   2.257  0.00  0.00    +0.212 HD
ENDBRANCH   7  32
TORSDOF 6
