REMARK  Name = ZINC09883765
REMARK  4 active torsions:
REMARK  status: ('A' for Active; 'I' for Inactive)
REMARK    1  A    between atoms: C_5  and  C_7
REMARK    2  A    between atoms: C_7  and  N_8
REMARK    3  A    between atoms: C_10  and  C_15
REMARK    4  A    between atoms: N_17  and  C_18
REMARK                            x       y       z     vdW  Elec       q    Type
REMARK                         _______ _______ _______ _____ _____    ______ ____
ROOT
ATOM      1  C   UNL     1      -1.176   1.339  -0.871  0.00  0.00    +0.222 C 
ATOM      2  O   UNL     1      -0.792   2.090  -1.742  0.00  0.00    -0.275 OA
ATOM      3  N   UNL     1      -2.392   0.765  -0.963  0.00  0.00    -0.285 N 
ATOM      4  H   UNL     1      -2.726   0.217  -0.236  0.00  0.00    +0.155 HD
ENDROOT
BRANCH   3   5
ATOM      5  C   UNL     1      -3.173   0.960  -2.110  0.00  0.00    +0.037 A 
ATOM      6  C   UNL     1      -3.982  -0.066  -2.582  0.00  0.00    +0.027 A 
ATOM      7  C   UNL     1      -4.754   0.124  -3.712  0.00  0.00    +0.051 A 
ATOM      8  C   UNL     1      -4.723   1.337  -4.376  0.00  0.00    +0.167 A 
ATOM      9  C   UNL     1      -3.911   2.369  -3.906  0.00  0.00    +0.169 A 
ATOM     10  C   UNL     1      -3.143   2.180  -2.771  0.00  0.00    +0.072 A 
ATOM     11  O   UNL     1      -4.062   3.449  -4.737  0.00  0.00    -0.447 OA
ATOM     12  C   UNL     1      -4.569   2.877  -5.951  0.00  0.00    +0.254 C 
ATOM     13  O   UNL     1      -5.377   1.782  -5.497  0.00  0.00    -0.448 OA
ATOM     14  C   UNL     1      -5.400   3.893  -6.740  0.00  0.00    +0.093 C 
ATOM     15  C   UNL     1      -4.423   4.412  -7.828  0.00  0.00    +0.008 C 
ATOM     16  C   UNL     1      -3.617   3.143  -8.202  0.00  0.00    +0.008 C 
ATOM     17  C   UNL     1      -3.436   2.398  -6.860  0.00  0.00    +0.093 C 
ENDBRANCH   3   5
BRANCH   1  20
ATOM     18  N   UNL     1       2.047   0.733   0.728  0.00  0.00    -0.296 N 
ATOM     19  C   UNL     1       1.101   1.687   0.138  0.00  0.00    +0.121 C 
ATOM     20  C   UNL     1      -0.294   1.048   0.316  0.00  0.00    +0.101 C 
ATOM     21  C   UNL     1       0.055  -0.456   0.391  0.00  0.00    +0.110 C 
ATOM     22  C   UNL     1       1.488  -0.481   0.876  0.00  0.00    +0.217 C 
ATOM     23  O   UNL     1       2.050  -1.454   1.332  0.00  0.00    -0.276 OA
BRANCH  18  24
ATOM     24  C   UNL     1       3.424   1.060   1.107  0.00  0.00    +0.144 C 
BRANCH  24  29
ATOM     25  C   UNL     1       3.758   1.215   4.864  0.00  0.00    +0.000 A 
ATOM     26  C   UNL     1       3.484   2.548   5.111  0.00  0.00    +0.001 A 
ATOM     27  C   UNL     1       3.189   3.399   4.063  0.00  0.00    +0.020 A 
ATOM     28  C   UNL     1       3.175   2.919   2.766  0.00  0.00    +0.046 A 
ATOM     29  C   UNL     1       3.444   1.585   2.519  0.00  0.00    -0.012 A 
ATOM     30  C   UNL     1       3.738   0.734   3.568  0.00  0.00    +0.006 A 
ATOM     31 CL   UNL     1       2.813   3.990   1.448  0.00  0.00    -0.083 Cl
ENDBRANCH  24  29
ENDBRANCH  18  24
ENDBRANCH   1  20
TORSDOF 4
