REMARK  Name = ZINC01267331
REMARK  6 active torsions:
REMARK  status: ('A' for Active; 'I' for Inactive)
REMARK    1  A    between atoms: C_1  and  C_2
REMARK    2  A    between atoms: C_5  and  C_8
REMARK    3  A    between atoms: C_11  and  C_29
REMARK    4  A    between atoms: N_13  and  C_20
REMARK    5  A    between atoms: C_25  and  C_27
REMARK    6  A    between atoms: C_25  and  C_28
REMARK                            x       y       z     vdW  Elec       q    Type
REMARK                         _______ _______ _______ _____ _____    ______ ____
ROOT
ATOM      1  C   UNL     1      -0.008  -4.079   0.428  0.00  0.00    +0.112 C 
ATOM      2  C   UNL     1       1.341  -4.653   0.730  0.00  0.00    +0.032 A 
ATOM      3  C   UNL     1       2.531  -3.940   0.475  0.00  0.00    +0.066 A 
ATOM      4  N   UNL     1       3.544  -4.675   0.834  0.00  0.00    -0.174 NA
ATOM      5  N   UNL     1       3.049  -5.881   1.332  0.00  0.00    -0.247 N 
ATOM      6  C   UNL     1       1.682  -5.849   1.256  0.00  0.00    +0.128 A 
ATOM      7  N   UNL     1       0.924  -6.917   1.674  0.00  0.00    -0.270 N 
ATOM      8  C   UNL     1      -0.349  -7.157   1.769  0.00  0.00    +0.228 C 
ATOM      9  O   UNL     1      -0.631  -8.212   2.298  0.00  0.00    -0.275 OA
ATOM     10  C   UNL     1      -1.509  -6.350   1.336  0.00  0.00    +0.166 C 
ATOM     11  S   UNL     1      -1.271  -4.587   1.598  0.00  0.00    -0.138 S 
ATOM     12  C   UNL     1       2.617  -2.556  -0.117  0.00  0.00    +0.068 C 
ATOM     13  H   UNL     1       1.467  -7.667   1.965  0.00  0.00    +0.156 HD
ENDROOT
BRANCH   5  14
ATOM     14  C   UNL     1       3.854  -6.991   1.847  0.00  0.00    +0.114 C 
ATOM     15  C   UNL     1       4.690  -6.509   3.037  0.00  0.00    +0.055 C 
ATOM     16  C   UNL     1       5.586  -7.654   3.518  0.00  0.00    +0.162 C 
ATOM     17  O   UNL     1       6.413  -8.095   2.439  0.00  0.00    -0.374 OA
ATOM     18  C   UNL     1       5.687  -8.601   1.317  0.00  0.00    +0.066 C 
ATOM     19  C   UNL     1       4.793  -7.496   0.747  0.00  0.00    +0.061 C 
ATOM     20  C   UNL     1       6.670  -9.068   0.242  0.00  0.00    +0.041 C 
ATOM     21  C   UNL     1       4.817  -9.779   1.760  0.00  0.00    +0.041 C 
ENDBRANCH   5  14
BRANCH   1  26
ATOM     22  C   UNL     1       0.376   1.687   0.496  0.00  0.00    +0.044 C 
ATOM     23  C   UNL     1       0.276   0.183   0.478  0.00  0.00    -0.050 A 
ATOM     24  C   UNL     1       0.557  -0.542   1.621  0.00  0.00    +0.003 A 
ATOM     25  C   UNL     1       0.465  -1.921   1.605  0.00  0.00    +0.005 A 
ATOM     26  C   UNL     1       0.091  -2.575   0.446  0.00  0.00    -0.030 A 
ATOM     27  C   UNL     1      -0.191  -1.850  -0.697  0.00  0.00    +0.005 A 
ATOM     28  C   UNL     1      -0.103  -0.471  -0.679  0.00  0.00    +0.003 A 
ENDBRANCH   1  26
TORSDOF 2
