REMARK  Name = ZINC06057082
REMARK  1 active torsions:
REMARK  status: ('A' for Active; 'I' for Inactive)
REMARK    1  A    between atoms: C_1  and  C_10
REMARK                            x       y       z     vdW  Elec       q    Type
REMARK                         _______ _______ _______ _____ _____    ______ ____
ROOT
ATOM      1  C   UNL     1       0.002  -0.004   0.002  0.00  0.00    +0.134 A 
ATOM      2  C   UNL     1       1.102  -0.793  -0.019  0.00  0.00    +0.114 A 
ATOM      3  N   UNL     1       0.684  -2.097  -0.016  0.00  0.00    -0.328 N 
ATOM      4  H   UNL     1       1.262  -2.876  -0.025  0.00  0.00    +0.168 HD
ATOM      5  C   UNL     1      -0.662  -2.120  -0.003  0.00  0.00    +0.157 A 
ATOM      6  S   UNL     1      -1.637  -3.526  -0.002  0.00  0.00    -0.013 S 
ATOM      7  N   UNL     1      -1.113  -0.850   0.008  0.00  0.00    -0.329 N 
ATOM      8  H   UNL     1      -2.042  -0.572   0.018  0.00  0.00    +0.168 HD
ATOM      9 BR   UNL     1       2.898  -0.199  -0.042  0.00  0.00    -0.028 Br
ENDROOT
BRANCH   1  10
ATOM     10  C   UNL     1      -0.018   1.460   0.010  0.00  0.00    +0.260 C 
ATOM     11  O   UNL     1       1.028   2.083   0.003  0.00  0.00    -0.269 OA
ATOM     12  N   UNL     1      -1.194   2.118   0.019  0.00  0.00    -0.324 N 
ATOM     13  H   UNL     1      -2.027   1.622   0.021  0.00  0.00    +0.145 HD
ATOM     14  H   UNL     1      -1.207   3.088   0.025  0.00  0.00    +0.145 HD
ENDBRANCH   1  10
TORSDOF 1
