REMARK  Name = ZINC51036309
REMARK  5 active torsions:
REMARK  status: ('A' for Active; 'I' for Inactive)
REMARK    1  A    between atoms: C_5  and  C_6
REMARK    2  A    between atoms: C_6  and  C_8
REMARK    3  A    between atoms: C_6  and  S_10
REMARK    4  A    between atoms: C_8  and  N_9
REMARK    5  A    between atoms: S_10  and  C_11
REMARK                            x       y       z     vdW  Elec       q    Type
REMARK                         _______ _______ _______ _____ _____    ______ ____
ROOT
ATOM      1  C   UNL     1      -1.094  -0.657  -0.105  0.00  0.00    +0.072 C 
ENDROOT
BRANCH   1   6
ATOM      2  C   UNL     1      -0.075   1.691   0.252  0.00  0.00    +0.027 A 
ATOM      3  C   UNL     1       1.071   2.411   0.534  0.00  0.00    +0.025 A 
ATOM      4  C   UNL     1       2.234   1.744   0.735  0.00  0.00    +0.060 A 
ATOM      5  S   UNL     1       1.726   0.045   0.525  0.00  0.00    -0.099 S 
ATOM      6  C   UNL     1      -0.001   0.339   0.184  0.00  0.00    +0.002 A 
ATOM      7 BR   UNL     1       1.018   4.299   0.639  0.00  0.00    -0.050 Br
ENDBRANCH   1   6
BRANCH   1   8
ATOM      8  C   UNL     1      -0.737  -1.458  -1.358  0.00  0.00    -0.067 C 
BRANCH   8   9
ATOM      9  N   UNL     1      -1.852  -2.350  -1.704  0.00  0.00    +0.379 N 
ATOM     10  H   UNL     1      -1.656  -2.808  -2.582  0.00  0.00    -0.090 HD
ATOM     11  H   UNL     1      -1.965  -3.043  -0.981  0.00  0.00    -0.090 HD
ATOM     12  H   UNL     1      -2.700  -1.810  -1.789  0.00  0.00    -0.090 HD
ENDBRANCH   8   9
ENDBRANCH   1   8
BRANCH   1  13
ATOM     13  S   UNL     1      -1.271  -1.786   1.305  0.00  0.00    -0.097 S 
BRANCH  13  14
ATOM     14  C   UNL     1      -1.882  -0.758   2.599  0.00  0.00    +0.126 A 
ATOM     15  C   UNL     1      -2.044  -1.260   3.893  0.00  0.00    +0.117 A 
ATOM     16  C   UNL     1      -2.533  -0.402   4.891  0.00  0.00    +0.182 A 
ATOM     17  N   UNL     1      -2.594  -1.120   6.028  0.00  0.00    -0.216 NA
ATOM     18  H   UNL     1      -1.496  -3.283   4.083  0.00  0.00    +0.167 HD
ATOM     19  C   UNL     1      -2.184  -2.338   5.803  0.00  0.00    +0.199 A 
ATOM     20  N   UNL     1      -1.833  -2.477   4.505  0.00  0.00    -0.341 N 
ATOM     21  N   UNL     1      -2.825   0.862   4.564  0.00  0.00    -0.214 NA
ATOM     22  C   UNL     1      -2.656   1.290   3.332  0.00  0.00    +0.224 A 
ATOM     23  N   UNL     1      -2.194   0.515   2.368  0.00  0.00    -0.227 NA
ENDBRANCH  13  14
ENDBRANCH   1  13
TORSDOF 5
