REMARK  Name = ZINC09423760
REMARK  3 active torsions:
REMARK  status: ('A' for Active; 'I' for Inactive)
REMARK    1  A    between atoms: N_9  and  C_20
REMARK    2  A    between atoms: C_10  and  C_13
REMARK    3  A    between atoms: C_23  and  O_26
REMARK                            x       y       z     vdW  Elec       q    Type
REMARK                         _______ _______ _______ _____ _____    ______ ____
ROOT
ATOM      1  C   UNL     1       8.865   5.027  -2.348  0.00  0.00    +0.001 A 
ATOM      2  C   UNL     1       9.256   5.693  -1.197  0.00  0.00    +0.002 A 
ATOM      3  C   UNL     1       8.473   5.648  -0.059  0.00  0.00    +0.024 A 
ATOM      4  C   UNL     1       7.289   4.932  -0.070  0.00  0.00    +0.041 A 
ATOM      5  C   UNL     1       6.893   4.248  -1.233  0.00  0.00    +0.058 A 
ATOM      6  C   UNL     1       7.689   4.306  -2.375  0.00  0.00    +0.015 A 
ATOM      7  C   UNL     1       5.644   3.465  -1.202  0.00  0.00    +0.254 C 
ATOM      8  O   UNL     1       5.189   2.995  -2.227  0.00  0.00    -0.270 OA
ATOM      9  N   UNL     1       5.009   3.280  -0.028  0.00  0.00    -0.244 N 
ATOM     10  C   UNL     1       5.627   3.675   1.238  0.00  0.00    +0.198 C 
ATOM     11  N   UNL     1       6.463   4.866   1.046  0.00  0.00    -0.321 N 
ATOM     12  H   UNL     1       6.440   5.594   1.687  0.00  0.00    +0.148 HD
ENDROOT
BRANCH  10  13
ATOM     13  C   UNL     1       6.484   2.545   1.749  0.00  0.00    -0.009 A 
ATOM     14  C   UNL     1       6.146   1.237   1.459  0.00  0.00    +0.010 A 
ATOM     15  C   UNL     1       6.934   0.200   1.922  0.00  0.00    +0.039 A 
ATOM     16  C   UNL     1       8.055   0.472   2.687  0.00  0.00    +0.123 A 
ATOM     17  C   UNL     1       8.389   1.783   2.982  0.00  0.00    +0.039 A 
ATOM     18  C   UNL     1       7.603   2.818   2.512  0.00  0.00    +0.010 A 
ATOM     19  F   UNL     1       8.823  -0.540   3.146  0.00  0.00    -0.205 F 
ENDBRANCH  10  13
BRANCH   9  20
ATOM     20  C   UNL     1       3.737   2.693  -0.019  0.00  0.00    +0.039 A 
ATOM     21  C   UNL     1       3.551   1.431  -0.566  0.00  0.00    +0.027 A 
ATOM     22  C   UNL     1       2.297   0.853  -0.557  0.00  0.00    +0.047 A 
ATOM     23  C   UNL     1       1.223   1.533  -0.001  0.00  0.00    +0.117 A 
ATOM     24  C   UNL     1       1.408   2.797   0.541  0.00  0.00    +0.047 A 
ATOM     25  C   UNL     1       2.662   3.374   0.537  0.00  0.00    +0.027 A 
BRANCH  23  26
ATOM     26  O   UNL     1      -0.011   0.964   0.009  0.00  0.00    -0.507 OA
ATOM     27  H   UNL     1      -0.194   0.433   0.796  0.00  0.00    +0.292 HD
ENDBRANCH  23  26
ENDBRANCH   9  20
TORSDOF 3
