REMARK  Name = ZINC58158078
REMARK  5 active torsions:
REMARK  status: ('A' for Active; 'I' for Inactive)
REMARK    1  A    between atoms: C_1  and  C_2
REMARK    2  A    between atoms: C_2  and  C_24
REMARK    3  A    between atoms: C_3  and  C_19
REMARK    4  A    between atoms: N_7  and  O_8
REMARK    5  A    between atoms: N_14  and  N_15
REMARK                            x       y       z     vdW  Elec       q    Type
REMARK                         _______ _______ _______ _____ _____    ______ ____
ROOT
ATOM      1  C   UNL     1      -0.487   1.437   0.070  0.00  0.00    +0.037 C 
ATOM      2  C   UNL     1      -0.323  -0.084   0.077  0.00  0.00    +0.088 C 
ATOM      3  C   UNL     1      -1.626  -0.754   0.455  0.00  0.00    +0.095 C 
ATOM      4  N   UNL     1      -1.567  -1.140   1.692  0.00  0.00    -0.138 N 
ATOM      5  O   UNL     1      -2.609  -1.806   2.382  0.00  0.00    -0.167 OA
ATOM      6  C   UNL     1      -0.270  -0.791   2.273  0.00  0.00    +0.197 C 
ATOM      7  N   UNL     1       0.630  -0.497   1.139  0.00  0.00    -0.145 NA
ATOM      8  C   UNL     1       0.283  -1.957   3.091  0.00  0.00    +0.056 C 
ATOM      9  C   UNL     1      -0.582  -2.159   4.337  0.00  0.00    +0.005 C 
ATOM     10  C   UNL     1      -0.511  -0.915   5.225  0.00  0.00    +0.006 C 
ATOM     11  C   UNL     1      -1.114   0.280   4.479  0.00  0.00    +0.056 C 
ATOM     12  C   UNL     1      -0.400   0.427   3.152  0.00  0.00    +0.082 C 
ATOM     13  N   UNL     1       0.083   1.555   2.787  0.00  0.00    -0.184 NA
ATOM     14  C   UNL     1       0.156  -0.575  -1.290  0.00  0.00    +0.037 C 
ENDROOT
BRANCH  13  15
ATOM     15  N   UNL     1      -0.164   2.703   3.552  0.00  0.00    -0.191 N 
ATOM     16  C   UNL     1       0.433   3.868   3.230  0.00  0.00    +0.317 C 
ATOM     17  O   UNL     1       0.218   4.864   3.894  0.00  0.00    -0.251 OA
ATOM     18  N   UNL     1       1.267   3.929   2.173  0.00  0.00    -0.312 N 
ATOM     19  H   UNL     1      -0.764   2.659   4.312  0.00  0.00    +0.179 HD
ATOM     20  H   UNL     1       1.438   3.134   1.644  0.00  0.00    +0.147 HD
ATOM     21  H   UNL     1       1.696   4.767   1.942  0.00  0.00    +0.147 HD
ENDBRANCH  13  15
BRANCH   3  22
ATOM     22  C   UNL     1      -2.776  -0.937  -0.437  0.00  0.00    +0.036 A 
ATOM     23  C   UNL     1      -3.999  -1.529  -0.174  0.00  0.00    +0.017 A 
ATOM     24  C   UNL     1      -4.929  -1.583  -1.185  0.00  0.00    +0.008 A 
ATOM     25  C   UNL     1      -4.623  -1.058  -2.401  0.00  0.00    +0.046 A 
ATOM     26  S   UNL     1      -2.965  -0.448  -2.144  0.00  0.00    -0.095 S 
ENDBRANCH   3  22
BRANCH   7  27
ATOM     27  O   UNL     1       1.376  -1.691   0.738  0.00  0.00    -0.309 OA
ATOM     28  H   UNL     1       1.897  -1.577  -0.068  0.00  0.00    +0.237 HD
ENDBRANCH   7  27
TORSDOF 3
