REMARK  Name = ZINC36265996
REMARK  3 active torsions:
REMARK  status: ('A' for Active; 'I' for Inactive)
REMARK    1  A    between atoms: C_2  and  S_9
REMARK    2  A    between atoms: S_9  and  N_12
REMARK    3  A    between atoms: N_12  and  C_13
REMARK                            x       y       z     vdW  Elec       q    Type
REMARK                         _______ _______ _______ _____ _____    ______ ____
ROOT
ATOM      1  N   UNL     1       1.154   4.330   1.596  0.00  0.00    -0.187 NA
ATOM      2  H   UNL     1       0.389   4.800   1.964  0.00  0.00    +0.148 HD
ENDROOT
BRANCH   1   3
ATOM      3  C   UNL     1       2.316   4.047   2.442  0.00  0.00    +0.074 C 
ATOM      4  C   UNL     1       2.077   2.751   3.222  0.00  0.00    +0.001 C 
ATOM      5  C   UNL     1       3.274   2.477   4.134  0.00  0.00    -0.080 C 
ATOM      6  N   UNL     1       3.418   3.571   5.103  0.00  0.00    +0.383 N 
ATOM      7  C   UNL     1       3.652   4.831   4.393  0.00  0.00    -0.067 C 
ATOM      8  C   UNL     1       2.522   5.198   3.432  0.00  0.00    +0.008 C 
ATOM      9  C   UNL     1       4.069   5.986   5.314  0.00  0.00    -0.012 C 
ATOM     10  C   UNL     1       5.522   5.533   5.089  0.00  0.00    -0.003 C 
ATOM     11  C   UNL     1       5.045   4.927   3.758  0.00  0.00    -0.012 C 
ATOM     12  H   UNL     1       2.575   3.646   5.652  0.00  0.00    -0.085 HD
ATOM     13  H   UNL     1       4.199   3.379   5.713  0.00  0.00    -0.085 HD
ENDBRANCH   1   3
BRANCH   1  14
ATOM     14  S   UNL     1       1.146   3.849   0.011  0.00  0.00    +0.059 S 
ATOM     15  O   UNL     1       2.380   4.275  -0.549  0.00  0.00    -0.153 OA
ATOM     16  O   UNL     1      -0.110   4.240  -0.526  0.00  0.00    -0.153 OA
BRANCH  14  18
ATOM     17  C   UNL     1      -0.017   1.379   0.010  0.00  0.00    +0.048 A 
ATOM     18  C   UNL     1       1.171   2.087   0.002  0.00  0.00    +0.108 A 
ATOM     19  C   UNL     1       2.377   1.413  -0.013  0.00  0.00    +0.048 A 
ATOM     20  C   UNL     1       2.397   0.030  -0.021  0.00  0.00    +0.044 A 
ATOM     21  C   UNL     1       1.209  -0.679  -0.013  0.00  0.00    +0.040 A 
ATOM     22  C   UNL     1       0.002  -0.004   0.002  0.00  0.00    +0.044 A 
ATOM     23 CL   UNL     1      -1.489  -0.893   0.012  0.00  0.00    -0.083 Cl
ATOM     24 CL   UNL     1       3.913  -0.817  -0.040  0.00  0.00    -0.083 Cl
ENDBRANCH  14  18
ENDBRANCH   1  14
TORSDOF 3
