REMARK  Name = ZINC58865137
REMARK  8 active torsions:
REMARK  status: ('A' for Active; 'I' for Inactive)
REMARK    1  A    between atoms: C_1  and  C_2
REMARK    2  A    between atoms: C_7  and  N_8
REMARK    3  A    between atoms: N_11  and  N_12
REMARK    4  A    between atoms: C_13  and  C_15
REMARK    5  A    between atoms: C_16  and  C_17
REMARK    6  A    between atoms: C_18  and  C_29
REMARK    7  A    between atoms: N_20  and  C_23
REMARK    8  A    between atoms: C_21  and  C_22
REMARK                            x       y       z     vdW  Elec       q    Type
REMARK                         _______ _______ _______ _____ _____    ______ ____
ROOT
ATOM      1  N   UNL     1      -0.333   1.287   4.947  0.00  0.00    -0.230 N 
ATOM      2  C   UNL     1      -0.376   1.999   6.091  0.00  0.00    +0.253 C 
ATOM      3  O   UNL     1      -0.412   1.426   7.164  0.00  0.00    -0.269 OA
ATOM      4  H   UNL     1      -0.305   1.744   4.092  0.00  0.00    +0.173 HD
ENDROOT
BRANCH   1   8
ATOM      5  N   UNL     1      -0.246  -0.191   2.663  0.00  0.00    -0.268 N 
ATOM      6  C   UNL     1      -0.285  -0.826   3.851  0.00  0.00    +0.320 C 
ATOM      7  O   UNL     1      -0.281  -2.041   3.891  0.00  0.00    -0.251 OA
ATOM      8  N   UNL     1      -0.329  -0.113   4.994  0.00  0.00    -0.218 N 
ATOM      9  H   UNL     1      -0.179   0.776   2.631  0.00  0.00    +0.156 HD
ATOM     10  H   UNL     1      -0.357  -0.570   5.849  0.00  0.00    +0.174 HD
BRANCH   5  17
ATOM     11  C   UNL     1      -1.592   0.955   0.433  0.00  0.00    +0.045 C 
ATOM     12  C   UNL     1      -0.949  -0.406   0.362  0.00  0.00    -0.029 A 
ATOM     13  C   UNL     1      -0.998  -1.133  -0.812  0.00  0.00    +0.005 A 
ATOM     14  C   UNL     1      -0.408  -2.381  -0.878  0.00  0.00    +0.000 A 
ATOM     15  C   UNL     1       0.233  -2.906   0.230  0.00  0.00    +0.002 A 
ATOM     16  C   UNL     1       0.286  -2.184   1.405  0.00  0.00    +0.023 A 
ATOM     17  C   UNL     1      -0.302  -0.927   1.474  0.00  0.00    +0.038 A 
ENDBRANCH   5  17
ENDBRANCH   1   8
BRANCH   2  18
ATOM     18  C   UNL     1      -0.381   3.417   6.043  0.00  0.00    +0.069 C 
ATOM     19  C   UNL     1      -0.424   4.130   7.189  0.00  0.00    +0.016 C 
BRANCH  19  20
ATOM     20  C   UNL     1      -0.429   5.599   7.140  0.00  0.00    +0.019 A 
ATOM     21  C   UNL     1       0.462   6.418   6.407  0.00  0.00    +0.068 A 
ATOM     22  N   UNL     1       0.135   7.663   6.619  0.00  0.00    -0.171 NA
ATOM     23  N   UNL     1      -0.964   7.704   7.485  0.00  0.00    -0.236 N 
ATOM     24  C   UNL     1      -1.309   6.440   7.797  0.00  0.00    +0.049 A 
ATOM     25  C   UNL     1      -2.442   6.020   8.697  0.00  0.00    +0.066 C 
ATOM     26  C   UNL     1       1.591   5.936   5.533  0.00  0.00    +0.068 C 
BRANCH  23  27
ATOM     27  C   UNL     1      -1.601   8.864   7.945  0.00  0.00    +0.066 A 
ATOM     28  C   UNL     1      -1.988   8.964   9.275  0.00  0.00    +0.028 A 
ATOM     29  C   UNL     1      -2.615  10.109   9.726  0.00  0.00    +0.002 A 
ATOM     30  C   UNL     1      -2.858  11.155   8.855  0.00  0.00    +0.000 A 
ATOM     31  C   UNL     1      -2.474  11.058   7.530  0.00  0.00    +0.002 A 
ATOM     32  C   UNL     1      -1.841   9.918   7.074  0.00  0.00    +0.028 A 
ENDBRANCH  23  27
ENDBRANCH  19  20
ENDBRANCH   2  18
TORSDOF 5
