REMARK  Name = ZINC15304292
REMARK  9 active torsions:
REMARK  status: ('A' for Active; 'I' for Inactive)
REMARK    1  A    between atoms: C_1  and  C_2
REMARK    2  A    between atoms: C_7  and  C_17
REMARK    3  A    between atoms: C_19  and  N_26
REMARK    4  A    between atoms: C_20  and  O_25
REMARK    5  A    between atoms: C_21  and  O_23
REMARK    6  A    between atoms: O_23  and  C_24
REMARK    7  A    between atoms: C_31  and  C_33
REMARK    8  A    between atoms: C_33  and  O_35
REMARK    9  A    between atoms: O_35  and  C_36
REMARK                            x       y       z     vdW  Elec       q    Type
REMARK                         _______ _______ _______ _____ _____    ______ ____
ROOT
ATOM      1  C   UNL     1       0.039   1.724   0.393  0.00  0.00    +0.009 C 
ATOM      2  C   UNL     1      -0.001   0.199   0.509  0.00  0.00    +0.013 C 
ATOM      3  C   UNL     1       0.570  -0.432  -0.759  0.00  0.00    +0.055 C 
ATOM      4  C   UNL     1       2.007   0.021  -0.960  0.00  0.00    +0.017 C 
ATOM      5  C   UNL     1       2.797   0.262   0.098  0.00  0.00    +0.037 C 
ATOM      6  C   UNL     1       4.244   0.694   0.044  0.00  0.00    +0.136 C 
ATOM      7  N   UNL     1       4.698   1.102  -1.268  0.00  0.00    -0.331 N 
ATOM      8  C   UNL     1       4.755   0.194  -2.325  0.00  0.00    +0.049 A 
ATOM      9  C   UNL     1       5.960  -0.173  -2.901  0.00  0.00    +0.025 A 
ATOM     10  C   UNL     1       5.971  -1.112  -3.917  0.00  0.00    +0.002 A 
ATOM     11  C   UNL     1       4.790  -1.684  -4.354  0.00  0.00    +0.002 A 
ATOM     12  C   UNL     1       3.582  -1.307  -3.792  0.00  0.00    +0.025 A 
ATOM     13  C   UNL     1       3.568  -0.353  -2.790  0.00  0.00    +0.052 A 
ATOM     14  N   UNL     1       2.385   0.147  -2.258  0.00  0.00    -0.316 N 
ATOM     15  C   UNL     1       2.289   0.130   1.412  0.00  0.00    +0.177 C 
ATOM     16  O   UNL     1       3.033   0.335   2.351  0.00  0.00    -0.291 OA
ATOM     17  C   UNL     1       0.866  -0.255   1.690  0.00  0.00    +0.171 C 
ATOM     18  H   UNL     1       4.968   2.022  -1.415  0.00  0.00    +0.147 HD
ATOM     19  H   UNL     1       1.786   0.619  -2.857  0.00  0.00    +0.152 HD
ENDROOT
BRANCH   6  20
ATOM     20  C   UNL     1       5.103  -0.454   0.509  0.00  0.00    -0.017 A 
ATOM     21  C   UNL     1       5.125  -1.634  -0.211  0.00  0.00    +0.042 A 
ATOM     22  C   UNL     1       5.912  -2.689   0.212  0.00  0.00    +0.171 A 
ATOM     23  C   UNL     1       6.680  -2.566   1.358  0.00  0.00    +0.189 A 
ATOM     24  C   UNL     1       6.658  -1.378   2.082  0.00  0.00    +0.164 A 
ATOM     25  C   UNL     1       5.871  -0.322   1.651  0.00  0.00    +0.055 A 
BRANCH  22  26
ATOM     26  N   UNL     1       5.933  -3.952  -0.561  0.00  0.00    +0.060 N 
ATOM     27  O   UNL     1       5.262  -4.060  -1.561  0.00  0.00    -0.126 OA
ATOM     28  O   UNL     1       6.620  -4.875  -0.192  0.00  0.00    -0.126 OA
ENDBRANCH  22  26
BRANCH  24  29
ATOM     29  O   UNL     1       7.410  -1.252   3.208  0.00  0.00    -0.491 OA
ATOM     30  C   UNL     1       7.337  -0.004   3.901  0.00  0.00    +0.277 C 
ENDBRANCH  24  29
BRANCH  23  31
ATOM     31  O   UNL     1       7.454  -3.604   1.775  0.00  0.00    -0.502 OA
ATOM     32  H   UNL     1       8.350  -3.597   1.412  0.00  0.00    +0.292 HD
ENDBRANCH  23  31
ENDBRANCH   6  20
BRANCH  17  33
ATOM     33  C   UNL     1       0.395   0.418   2.952  0.00  0.00    +0.318 C 
ATOM     34  O   UNL     1      -0.539   1.184   2.916  0.00  0.00    -0.250 OA
BRANCH  33  35
ATOM     35  O   UNL     1       1.012   0.168   4.117  0.00  0.00    -0.467 OA
ATOM     36  C   UNL     1       0.512   0.841   5.275  0.00  0.00    +0.280 C 
ENDBRANCH  33  35
ENDBRANCH  17  33
TORSDOF 6
