REMARK  Name = ZINC27559091
REMARK  8 active torsions:
REMARK  status: ('A' for Active; 'I' for Inactive)
REMARK    1  A    between atoms: C_2  and  C_3
REMARK    2  A    between atoms: C_3  and  N_4
REMARK    3  A    between atoms: C_5  and  C_7
REMARK    4  A    between atoms: C_7  and  N_8
REMARK    5  A    between atoms: N_11  and  C_14
REMARK    6  A    between atoms: C_14  and  C_15
REMARK    7  A    between atoms: N_17  and  C_18
REMARK    8  A    between atoms: C_19  and  C_27
REMARK                            x       y       z     vdW  Elec       q    Type
REMARK                         _______ _______ _______ _____ _____    ______ ____
ROOT
ATOM      1  C   UNL     1      -0.723   1.951   1.250  0.00  0.00    +0.232 C 
ATOM      2  O   UNL     1      -1.166   1.152   2.048  0.00  0.00    -0.274 OA
ATOM      3  N   UNL     1      -0.862   3.273   1.472  0.00  0.00    -0.278 N 
ATOM      4  H   UNL     1      -0.461   3.997   0.748  0.00  0.00    +0.155 HD
ENDROOT
BRANCH   3   5
ATOM      5  C   UNL     1      -1.511   3.720   2.612  0.00  0.00    +0.084 A 
ATOM      6  C   UNL     1      -1.746   5.027   3.015  0.00  0.00    +0.068 A 
ATOM      7  C   UNL     1      -2.460   5.228   4.264  0.00  0.00    -0.023 A 
ATOM      8  C   UNL     1      -2.814   4.097   4.912  0.00  0.00    -0.004 A 
ATOM      9  S   UNL     1      -2.220   2.782   3.886  0.00  0.00    -0.077 S 
ATOM     10  C   UNL     1      -3.547   3.993   6.214  0.00  0.00    +0.043 C 
ATOM     11  C   UNL     1      -3.514   5.368   6.898  0.00  0.00    +0.005 C 
ATOM     12  C   UNL     1      -3.909   6.437   5.876  0.00  0.00    +0.005 C 
ATOM     13  C   UNL     1      -2.799   6.599   4.836  0.00  0.00    +0.037 C 
BRANCH   6  14
ATOM     14  C   UNL     1      -1.293   6.164   2.207  0.00  0.00    +0.244 C 
ATOM     15  O   UNL     1      -2.022   6.632   1.352  0.00  0.00    -0.270 OA
ATOM     16  N   UNL     1      -0.069   6.691   2.411  0.00  0.00    -0.325 N 
ATOM     17  H   UNL     1       0.270   7.544   1.805  0.00  0.00    +0.145 HD
ATOM     18  H   UNL     1       0.590   6.268   3.184  0.00  0.00    +0.145 HD
ENDBRANCH   6  14
ENDBRANCH   3   5
BRANCH   1  19
ATOM     19  C   UNL     1      -0.018   1.465   0.010  0.00  0.00    +0.180 C 
BRANCH  19  23
ATOM     20  N   UNL     1       1.225  -2.568  -0.193  0.00  0.00    +0.387 N 
ATOM     21  C   UNL     1       0.397  -2.046  -1.289  0.00  0.00    -0.063 C 
ATOM     22  C   UNL     1       0.466  -0.517  -1.294  0.00  0.00    +0.066 C 
ATOM     23  N   UNL     1       0.002  -0.004   0.002  0.00  0.00    -0.298 NA
ATOM     24  C   UNL     1       0.830  -0.526   1.099  0.00  0.00    +0.066 C 
ATOM     25  C   UNL     1       0.761  -2.054   1.104  0.00  0.00    -0.063 C 
ATOM     26  H   UNL     1       2.255  -2.216  -0.348  0.00  0.00    -0.081 HD
BRANCH  20  27
ATOM     27  C   UNL     1       1.245  -4.037  -0.201  0.00  0.00    +0.019 C 
BRANCH  27  29
ATOM     28  N   UNL     1       2.483  -5.854   0.931  0.00  0.00    -0.313 N 
ATOM     29  C   UNL     1       2.286  -4.530   0.770  0.00  0.00    +0.197 C 
ATOM     30  O   UNL     1       2.947  -3.737   1.406  0.00  0.00    -0.278 OA
ATOM     31  H   UNL     1       1.884  -6.573   0.355  0.00  0.00    +0.149 HD
BRANCH  28  32
ATOM     32  C   UNL     1       3.496  -6.333   1.875  0.00  0.00    +0.131 C 
BRANCH  32  34
ATOM     33  C   UNL     1       4.636  -8.479   1.633  0.00  0.00    +0.005 C 
ATOM     34  C   UNL     1       3.517  -7.840   1.867  0.00  0.00    -0.016 C 
ENDBRANCH  32  34
ENDBRANCH  28  32
ENDBRANCH  27  29
ENDBRANCH  20  27
ENDBRANCH  19  23
ENDBRANCH   1  19
TORSDOF 8
