REMARK  Name = ZINC49464041
REMARK  6 active torsions:
REMARK  status: ('A' for Active; 'I' for Inactive)
REMARK    1  A    between atoms: C_1  and  C_2
REMARK    2  A    between atoms: C_4  and  C_31
REMARK    3  A    between atoms: C_5  and  S_9
REMARK    4  A    between atoms: C_6  and  C_8
REMARK    5  A    between atoms: S_9  and  N_12
REMARK    6  A    between atoms: N_12  and  C_13
REMARK                            x       y       z     vdW  Elec       q    Type
REMARK                         _______ _______ _______ _____ _____    ______ ____
ROOT
ATOM      1  C   UNL     1       1.913  -6.060   0.344  0.00  0.00    +0.049 A 
ATOM      2  C   UNL     1       2.388  -4.856   0.854  0.00  0.00    +0.028 A 
ATOM      3  C   UNL     1       3.507  -4.838   1.664  0.00  0.00    +0.048 A 
ATOM      4  C   UNL     1       4.158  -6.021   1.972  0.00  0.00    +0.133 A 
ATOM      5  C   UNL     1       3.685  -7.240   1.468  0.00  0.00    +0.080 A 
ATOM      6  C   UNL     1       2.551  -7.248   0.650  0.00  0.00    +0.041 A 
ATOM      7  C   UNL     1       4.361  -8.502   1.803  0.00  0.00    +0.250 C 
ATOM      8  O   UNL     1       4.780  -9.210   0.908  0.00  0.00    -0.270 OA
ATOM      9  N   UNL     1       4.525  -8.887   3.085  0.00  0.00    -0.294 N 
ATOM     10  C   UNL     1       5.304 -10.091   3.375  0.00  0.00    +0.108 C 
ATOM     11  C   UNL     1       4.555 -10.967   4.377  0.00  0.00    +0.019 C 
ATOM     12  C   UNL     1       4.188 -10.132   5.605  0.00  0.00    +0.003 C 
ATOM     13  C   UNL     1       3.254  -8.997   5.194  0.00  0.00    +0.023 C 
ATOM     14  C   UNL     1       3.918  -8.101   4.156  0.00  0.00    +0.080 C 
ATOM     15  C   UNL     1       4.992  -7.244   4.833  0.00  0.00    +0.063 C 
ATOM     16  C   UNL     1       5.047  -5.870   4.167  0.00  0.00    +0.231 C 
ATOM     17  O   UNL     1       5.265  -6.013   2.762  0.00  0.00    -0.491 OA
ENDROOT
BRANCH   1  18
ATOM     18  N   UNL     1       0.780  -6.069  -0.478  0.00  0.00    -0.216 N 
ATOM     19  H   UNL     1       0.785  -6.574  -1.305  0.00  0.00    +0.174 HD
BRANCH  18  20
ATOM     20  S   UNL     1      -0.570  -5.216  -0.037  0.00  0.00    +0.073 S 
ATOM     21  O   UNL     1      -0.794  -5.494   1.339  0.00  0.00    -0.150 OA
ATOM     22  O   UNL     1      -1.551  -5.465  -1.034  0.00  0.00    -0.150 OA
BRANCH  20  27
ATOM     23  C   UNL     1       0.823   0.642  -0.412  0.00  0.00    +0.044 C 
ATOM     24  C   UNL     1       0.475  -0.821  -0.318  0.00  0.00    -0.050 A 
ATOM     25  C   UNL     1       0.491  -1.458   0.909  0.00  0.00    +0.008 A 
ATOM     26  C   UNL     1       0.172  -2.800   0.995  0.00  0.00    -0.023 A 
ATOM     27  C   UNL     1      -0.164  -3.505  -0.146  0.00  0.00    +0.114 A 
ATOM     28  C   UNL     1      -0.181  -2.868  -1.373  0.00  0.00    -0.023 A 
ATOM     29  C   UNL     1       0.134  -1.525  -1.458  0.00  0.00    +0.008 A 
ATOM     30  C   UNL     1      -0.546  -3.636  -2.616  0.00  0.00    +0.046 C 
ATOM     31  C   UNL     1       0.190  -3.495   2.332  0.00  0.00    +0.046 C 
ENDBRANCH  20  27
ENDBRANCH  18  20
ENDBRANCH   1  18
TORSDOF 3
