REMARK  Name = ZINC38902587
REMARK  9 active torsions:
REMARK  status: ('A' for Active; 'I' for Inactive)
REMARK    1  A    between atoms: C_1  and  C_2
REMARK    2  A    between atoms: C_2  and  C_3
REMARK    3  A    between atoms: C_2  and  C_4
REMARK    4  A    between atoms: C_2  and  C_5
REMARK    5  A    between atoms: C_8  and  C_11
REMARK    6  A    between atoms: C_13  and  C_16
REMARK    7  A    between atoms: C_16  and  N_17
REMARK    8  A    between atoms: C_21  and  C_24
REMARK    9  A    between atoms: C_29  and  C_32
REMARK                            x       y       z     vdW  Elec       q    Type
REMARK                         _______ _______ _______ _____ _____    ______ ____
ROOT
ATOM      1  N   UNL     1       6.448  -3.213  -6.452  0.00  0.00    +0.386 N 
ATOM      2  C   UNL     1       6.734  -3.066  -5.019  0.00  0.00    -0.078 C 
ATOM      3  C   UNL     1       7.539  -4.272  -4.530  0.00  0.00    -0.018 C 
ATOM      4  C   UNL     1       8.854  -4.352  -5.310  0.00  0.00    +0.009 C 
ATOM      5  C   UNL     1       8.545  -4.430  -6.807  0.00  0.00    +0.059 C 
ATOM      6  C   UNL     1       7.703  -3.218  -7.213  0.00  0.00    -0.065 C 
ATOM      7  H   UNL     1       5.958  -4.082  -6.607  0.00  0.00    -0.081 HD
ENDROOT
BRANCH   5   8
ATOM      8  C   UNL     1       9.834  -4.432  -7.588  0.00  0.00    +0.217 C 
ATOM      9  O   UNL     1      10.274  -3.394  -8.035  0.00  0.00    -0.275 OA
ATOM     10  N   UNL     1      10.497  -5.588  -7.790  0.00  0.00    -0.301 N 
ATOM     11  C   UNL     1       9.924  -6.867  -7.350  0.00  0.00    +0.108 C 
ATOM     12  C   UNL     1      10.948  -7.590  -6.470  0.00  0.00    +0.032 C 
ATOM     13  C   UNL     1      12.268  -7.722  -7.233  0.00  0.00    +0.078 C 
ATOM     14  C   UNL     1      12.811  -6.329  -7.562  0.00  0.00    +0.032 C 
ATOM     15  C   UNL     1      11.805  -5.593  -8.460  0.00  0.00    +0.108 C 
BRANCH  13  16
ATOM     16  C   UNL     1      13.268  -8.463  -6.383  0.00  0.00    +0.214 C 
ATOM     17  O   UNL     1      12.956  -8.847  -5.276  0.00  0.00    -0.276 OA
ATOM     18  N   UNL     1      14.509  -8.698  -6.853  0.00  0.00    -0.329 N 
ATOM     19  H   UNL     1      14.758  -8.391  -7.738  0.00  0.00    +0.145 HD
ATOM     20  H   UNL     1      15.152  -9.175  -6.306  0.00  0.00    +0.145 HD
ENDBRANCH  13  16
ENDBRANCH   5   8
BRANCH   1  21
ATOM     21  C   UNL     1       5.610  -2.093  -6.899  0.00  0.00    +0.022 C 
BRANCH  21  24
ATOM     22  C   UNL     1       2.695  -1.856  -4.750  0.00  0.00    +0.202 A 
ATOM     23  N   UNL     1       3.974  -1.594  -5.072  0.00  0.00    -0.193 NA
ATOM     24  C   UNL     1       4.272  -2.158  -6.208  0.00  0.00    +0.211 A 
ATOM     25  O   UNL     1       3.189  -2.805  -6.657  0.00  0.00    -0.340 OA
ATOM     26  N   UNL     1       2.170  -2.601  -5.690  0.00  0.00    -0.056 NA
BRANCH  22  30
ATOM     27  C   UNL     1       0.694  -0.504  -1.249  0.00  0.00    -0.042 A 
ATOM     28  C   UNL     1       0.021  -1.288  -2.168  0.00  0.00    +0.005 A 
ATOM     29  C   UNL     1       0.665  -1.730  -3.306  0.00  0.00    +0.012 A 
ATOM     30  C   UNL     1       1.996  -1.384  -3.528  0.00  0.00    +0.022 A 
ATOM     31  C   UNL     1       2.670  -0.593  -2.599  0.00  0.00    +0.012 A 
ATOM     32  C   UNL     1       2.014  -0.153  -1.467  0.00  0.00    +0.005 A 
BRANCH  27  34
ATOM     33  C   UNL     1      -0.030   1.505   0.012  0.00  0.00    +0.015 C 
ATOM     34  C   UNL     1      -0.016  -0.025  -0.009  0.00  0.00    -0.013 C 
ATOM     35  C   UNL     1       0.716  -0.545   1.230  0.00  0.00    +0.015 C 
ATOM     36  C   UNL     1      -1.453  -0.549  -0.009  0.00  0.00    +0.015 C 
ENDBRANCH  27  34
ENDBRANCH  22  30
ENDBRANCH  21  24
ENDBRANCH   1  21
TORSDOF 6
