REMARK  Name = ZINC43480124
REMARK  7 active torsions:
REMARK  status: ('A' for Active; 'I' for Inactive)
REMARK    1  A    between atoms: C_3  and  C_11
REMARK    2  A    between atoms: C_5  and  S_7
REMARK    3  A    between atoms: S_7  and  N_10
REMARK    4  A    between atoms: C_11  and  N_12
REMARK    5  A    between atoms: N_12  and  C_13
REMARK    6  A    between atoms: C_13  and  C_14
REMARK    7  A    between atoms: C_17  and  O_21
REMARK                            x       y       z     vdW  Elec       q    Type
REMARK                         _______ _______ _______ _____ _____    ______ ____
ROOT
ATOM      1  C   UNL     1       3.672   2.182  -0.022  0.00  0.00    -0.046 C 
ENDROOT
BRANCH   1   4
ATOM      2  C   UNL     1      -0.017   1.378   0.010  0.00  0.00    +0.002 A 
ATOM      3  C   UNL     1       1.171   2.085   0.002  0.00  0.00    +0.002 A 
ATOM      4  C   UNL     1       2.377   1.411  -0.013  0.00  0.00    -0.063 A 
ATOM      5  C   UNL     1       2.396   0.028  -0.020  0.00  0.00    +0.030 A 
ATOM      6  C   UNL     1       1.209  -0.679  -0.012  0.00  0.00    +0.105 A 
ATOM      7  C   UNL     1       0.002  -0.004   0.002  0.00  0.00    +0.028 A 
BRANCH   6   8
ATOM      8  S   UNL     1       1.232  -2.441  -0.022  0.00  0.00    +0.056 S 
ATOM      9  O   UNL     1      -0.013  -2.861  -0.562  0.00  0.00    -0.153 OA
ATOM     10  O   UNL     1       2.477  -2.827  -0.588  0.00  0.00    -0.153 OA
BRANCH   8  11
ATOM     11  N   UNL     1       1.256  -2.939   1.557  0.00  0.00    -0.204 NA
ATOM     12  H   UNL     1       0.850  -3.785   1.805  0.00  0.00    +0.144 HD
ATOM     13  H   UNL     1       1.675  -2.386   2.234  0.00  0.00    +0.144 HD
ENDBRANCH   8  11
ENDBRANCH   6   8
ENDBRANCH   1   4
BRANCH   1  14
ATOM     14  N   UNL     1       4.106   2.426   1.360  0.00  0.00    +0.384 N 
ATOM     15  H   UNL     1       3.401   2.959   1.845  0.00  0.00    -0.085 HD
ATOM     16  H   UNL     1       4.244   1.544   1.830  0.00  0.00    -0.085 HD
BRANCH  14  17
ATOM     17  C   UNL     1       5.368   3.178   1.351  0.00  0.00    -0.046 C 
BRANCH  17  18
ATOM     18  C   UNL     1       5.814   3.428   2.768  0.00  0.00    -0.063 A 
ATOM     19  C   UNL     1       5.400   4.570   3.430  0.00  0.00    +0.005 A 
ATOM     20  C   UNL     1       5.808   4.802   4.730  0.00  0.00    +0.047 A 
ATOM     21  C   UNL     1       6.632   3.889   5.371  0.00  0.00    +0.135 A 
ATOM     22  C   UNL     1       7.046   2.744   4.705  0.00  0.00    +0.082 A 
ATOM     23  C   UNL     1       6.631   2.514   3.406  0.00  0.00    +0.025 A 
ATOM     24 CL   UNL     1       8.077   1.599   5.504  0.00  0.00    -0.080 Cl
BRANCH  21  25
ATOM     25  O   UNL     1       7.034   4.117   6.650  0.00  0.00    -0.505 OA
ATOM     26  H   UNL     1       6.440   3.751   7.320  0.00  0.00    +0.292 HD
ENDBRANCH  21  25
ENDBRANCH  17  18
ENDBRANCH  14  17
ENDBRANCH   1  14
TORSDOF 7
