REMARK  Name = ZINC05634055
REMARK  5 active torsions:
REMARK  status: ('A' for Active; 'I' for Inactive)
REMARK    1  A    between atoms: C_1  and  C_2
REMARK    2  A    between atoms: C_2  and  C_3
REMARK    3  A    between atoms: C_3  and  C_4
REMARK    4  A    between atoms: C_11  and  N_25
REMARK    5  A    between atoms: C_12  and  C_23
REMARK                            x       y       z     vdW  Elec       q    Type
REMARK                         _______ _______ _______ _____ _____    ______ ____
ROOT
ATOM      1  C   UNL     1      -1.413  -2.041   0.005  0.00  0.00    +0.045 A 
ATOM      2  C   UNL     1      -1.303  -2.836   1.079  0.00  0.00    +0.061 A 
ATOM      3  C   UNL     1      -1.326  -4.178   0.634  0.00  0.00    +0.245 A 
ATOM      4  N   UNL     1      -1.444  -4.170  -0.661  0.00  0.00    -0.135 NA
ATOM      5  N   UNL     1      -1.508  -2.834  -1.087  0.00  0.00    -0.278 N 
ATOM      6  H   UNL     1      -1.602  -2.532  -2.004  0.00  0.00    +0.189 HD
ATOM      7  O   UNL     1      -1.233  -5.224   1.499  0.00  0.00    -0.421 OA
ATOM      8  C   UNL     1      -1.382  -4.967   2.813  0.00  0.00    +0.201 C 
ATOM      9  C   UNL     1      -1.365  -3.729   3.356  0.00  0.00    +0.110 C 
ATOM     10  C   UNL     1      -1.172  -2.485   2.534  0.00  0.00    +0.144 C 
ATOM     11  C   UNL     1       0.145  -1.840   2.821  0.00  0.00    -0.002 A 
ATOM     12  C   UNL     1       1.438  -2.297   2.680  0.00  0.00    +0.007 A 
ATOM     13  C   UNL     1       2.459  -1.426   3.046  0.00  0.00    +0.000 A 
ATOM     14  C   UNL     1       2.186  -0.162   3.529  0.00  0.00    +0.002 A 
ATOM     15  C   UNL     1       0.889   0.304   3.674  0.00  0.00    +0.023 A 
ATOM     16  C   UNL     1      -0.145  -0.560   3.311  0.00  0.00    +0.038 A 
ATOM     17  N   UNL     1      -1.513  -0.360   3.353  0.00  0.00    -0.284 N 
ATOM     18  C   UNL     1      -2.196  -1.439   2.916  0.00  0.00    +0.238 C 
ATOM     19  O   UNL     1      -3.402  -1.549   2.844  0.00  0.00    -0.274 OA
ATOM     20  H   UNL     1      -1.932   0.459   3.660  0.00  0.00    +0.155 HD
ENDROOT
BRANCH   8  21
ATOM     21  N   UNL     1      -1.562  -6.034   3.658  0.00  0.00    -0.328 N 
ATOM     22  H   UNL     1      -1.580  -6.936   3.303  0.00  0.00    +0.145 HD
ATOM     23  H   UNL     1      -1.673  -5.885   4.610  0.00  0.00    +0.145 HD
ENDBRANCH   8  21
BRANCH   9  24
ATOM     24  C   UNL     1      -1.538  -3.597   4.772  0.00  0.00    +0.102 C 
ATOM     25  N   UNL     1      -1.675  -3.492   5.894  0.00  0.00    -0.191 NA
ENDBRANCH   9  24
BRANCH   1  26
ATOM     26  C   UNL     1      -1.433  -0.534   0.013  0.00  0.00    +0.055 C 
BRANCH  26  28
ATOM     27  C   UNL     1      -0.019   1.526   0.010  0.00  0.00    +0.004 C 
ATOM     28  C   UNL     1       0.002  -0.004   0.002  0.00  0.00    +0.003 C 
ENDBRANCH  26  28
ENDBRANCH   1  26
TORSDOF 4
