REMARK  Name = ZINC43410664
REMARK  2 active torsions:
REMARK  status: ('A' for Active; 'I' for Inactive)
REMARK    1  A    between atoms: C_6  and  C_7
REMARK    2  A    between atoms: N_8  and  O_9
REMARK                            x       y       z     vdW  Elec       q    Type
REMARK                         _______ _______ _______ _____ _____    ______ ____
ROOT
ATOM      1  C   UNL     1      -0.155   1.321   0.046  0.00  0.00    +0.020 A 
ATOM      2  C   UNL     1       1.007   2.082  -0.015  0.00  0.00    -0.025 A 
ATOM      3  C   UNL     1       2.231   1.450  -0.005  0.00  0.00    +0.047 A 
ATOM      4  N   UNL     1       2.303   0.126   0.055  0.00  0.00    -0.232 NA
ATOM      5  C   UNL     1       1.232  -0.641   0.114  0.00  0.00    +0.165 A 
ATOM      6  C   UNL     1      -0.047  -0.068   0.113  0.00  0.00    +0.062 A 
ATOM      7  N   UNL     1       1.373  -2.027   0.176  0.00  0.00    -0.220 N 
ATOM      8  C   UNL     1       2.422  -2.748  -0.300  0.00  0.00    +0.131 A 
ATOM      9  C   UNL     1       2.173  -4.053  -0.042  0.00  0.00    +0.056 A 
ATOM     10  C   UNL     1       0.937  -4.135   0.611  0.00  0.00    +0.150 A 
ATOM     11  N   UNL     1       0.461  -2.924   0.748  0.00  0.00    -0.172 NA
ATOM     12 BR   UNL     1       3.296  -5.509  -0.485  0.00  0.00    -0.047 Br
ATOM     13  C   UNL     1       3.531   2.213  -0.052  0.00  0.00    +0.056 C 
ATOM     14  C   UNL     1       3.301   3.638  -0.550  0.00  0.00    +0.006 C 
ATOM     15  C   UNL     1       2.175   4.266   0.279  0.00  0.00    +0.005 C 
ATOM     16  C   UNL     1       0.862   3.579  -0.094  0.00  0.00    +0.037 C 
ENDROOT
BRANCH   6  17
ATOM     17  C   UNL     1      -1.256  -0.917   0.181  0.00  0.00    +0.166 C 
ATOM     18  N   UNL     1      -2.127  -0.735   1.131  0.00  0.00    -0.071 NA
ATOM     19  N   UNL     1      -1.461  -1.907  -0.765  0.00  0.00    -0.340 N 
ATOM     20  H   UNL     1      -0.812  -2.043  -1.473  0.00  0.00    +0.144 HD
ATOM     21  H   UNL     1      -2.254  -2.464  -0.720  0.00  0.00    +0.144 HD
BRANCH  18  22
ATOM     22  O   UNL     1      -1.968   0.339   2.040  0.00  0.00    -0.408 OA
ATOM     23  H   UNL     1      -2.702   0.440   2.662  0.00  0.00    +0.328 HD
ENDBRANCH  18  22
ENDBRANCH   6  17
TORSDOF 2
