REMARK  Name = ZINC03258817
REMARK  5 active torsions:
REMARK  status: ('A' for Active; 'I' for Inactive)
REMARK    1  A    between atoms: C_5  and  N_22
REMARK    2  A    between atoms: C_6  and  C_7
REMARK    3  A    between atoms: C_7  and  O_9
REMARK    4  A    between atoms: O_9  and  C_10
REMARK    5  A    between atoms: C_10  and  C_11
REMARK                            x       y       z     vdW  Elec       q    Type
REMARK                         _______ _______ _______ _____ _____    ______ ____
ROOT
ATOM      1  O   UNL     1       3.653   3.548   0.153  0.00  0.00    -0.452 OA
ENDROOT
BRANCH   1   2
ATOM      2  C   UNL     1       2.554   4.320   0.048  0.00  0.00    +0.342 C 
ATOM      3  O   UNL     1       2.665   5.528  -0.035  0.00  0.00    -0.245 OA
BRANCH   2   9
ATOM      4  C   UNL     1       1.087   2.310   0.004  0.00  0.00    +0.037 A 
ATOM      5  C   UNL     1      -0.167   1.737  -0.010  0.00  0.00    +0.043 A 
ATOM      6  C   UNL     1      -1.302   2.534  -0.001  0.00  0.00    +0.042 A 
ATOM      7  C   UNL     1      -1.189   3.909   0.033  0.00  0.00    +0.064 A 
ATOM      8  C   UNL     1       0.066   4.505   0.048  0.00  0.00    +0.057 A 
ATOM      9  C   UNL     1       1.217   3.701   0.033  0.00  0.00    +0.082 A 
ATOM     10 CL   UNL     1      -2.618   4.896   0.051  0.00  0.00    -0.082 Cl
ATOM     11 CL   UNL     1      -0.326   0.008  -0.046  0.00  0.00    -0.083 Cl
BRANCH   8  12
ATOM     12  N   UNL     1       0.182   5.890   0.077  0.00  0.00    -0.356 N 
ATOM     13  H   UNL     1       1.056   6.305   0.006  0.00  0.00    +0.142 HD
ATOM     14  H   UNL     1      -0.611   6.441   0.169  0.00  0.00    +0.142 HD
ENDBRANCH   8  12
ENDBRANCH   2   9
ENDBRANCH   1   2
BRANCH   1  15
ATOM     15  C   UNL     1       4.937   4.226   0.161  0.00  0.00    +0.328 C 
BRANCH  15  16
ATOM     16  C   UNL     1       6.041   3.208   0.285  0.00  0.00    +0.256 C 
ATOM     17  O   UNL     1       5.773   2.028   0.359  0.00  0.00    -0.272 OA
ATOM     18  N   UNL     1       7.328   3.610   0.313  0.00  0.00    -0.266 N 
ATOM     19  C   UNL     1       8.350   2.668   0.428  0.00  0.00    +0.144 A 
ATOM     20  C   UNL     1       9.676   3.089   0.451  0.00  0.00    +0.082 A 
ATOM     21  C   UNL     1      10.681   2.144   0.570  0.00  0.00    +0.045 A 
ATOM     22  C   UNL     1      10.323   0.804   0.652  0.00  0.00    +0.061 A 
ATOM     23  C   UNL     1       8.986   0.458   0.618  0.00  0.00    +0.133 A 
ATOM     24  N   UNL     1       8.050   1.381   0.508  0.00  0.00    -0.237 NA
ATOM     25 CL   UNL     1      11.544  -0.422   0.796  0.00  0.00    -0.082 Cl
ATOM     26 CL   UNL     1      10.065   4.777   0.337  0.00  0.00    -0.080 Cl
ATOM     27  H   UNL     1       7.542   4.554   0.254  0.00  0.00    +0.156 HD
ENDBRANCH  15  16
ENDBRANCH   1  15
TORSDOF 5
