REMARK  Name = ZINC21819808
REMARK  5 active torsions:
REMARK  status: ('A' for Active; 'I' for Inactive)
REMARK    1  A    between atoms: C_1  and  C_2
REMARK    2  A    between atoms: C_2  and  C_4
REMARK    3  A    between atoms: C_2  and  N_16
REMARK    4  A    between atoms: N_6  and  C_7
REMARK    5  A    between atoms: C_10  and  N_14
REMARK                            x       y       z     vdW  Elec       q    Type
REMARK                         _______ _______ _______ _____ _____    ______ ____
ROOT
ATOM      1  C   UNL     1      -3.504   3.358  -0.477  0.00  0.00    +0.203 C 
ATOM      2  O   UNL     1      -3.372   2.154  -0.545  0.00  0.00    -0.277 OA
ATOM      3  N   UNL     1      -2.417   4.154  -0.438  0.00  0.00    -0.284 N 
ATOM      4  H   UNL     1      -2.533   5.237  -0.287  0.00  0.00    +0.155 HD
ENDROOT
BRANCH   3   5
ATOM      5  C   UNL     1      -1.137   3.601  -0.591  0.00  0.00    +0.070 A 
ATOM      6  C   UNL     1      -0.260   4.126  -1.532  0.00  0.00    +0.065 A 
ATOM      7  C   UNL     1       0.999   3.577  -1.685  0.00  0.00    +0.044 A 
ATOM      8  C   UNL     1       1.391   2.507  -0.891  0.00  0.00    +0.027 A 
ATOM      9  C   UNL     1       0.517   1.985   0.053  0.00  0.00    +0.044 A 
ATOM     10  C   UNL     1      -0.744   2.530   0.203  0.00  0.00    +0.065 A 
ATOM     11 CL   UNL     1      -1.837   1.877   1.383  0.00  0.00    -0.082 Cl
ATOM     12 CL   UNL     1      -0.748   5.468  -2.518  0.00  0.00    -0.082 Cl
BRANCH   8  13
ATOM     13  N   UNL     1       2.668   1.956  -1.043  0.00  0.00    -0.358 N 
ATOM     14  H   UNL     1       2.979   1.108  -0.415  0.00  0.00    +0.142 HD
ATOM     15  H   UNL     1       3.360   2.369  -1.792  0.00  0.00    +0.142 HD
ENDBRANCH   8  13
ENDBRANCH   3   5
BRANCH   1  17
ATOM     16  C   UNL     1      -5.170   4.486   0.972  0.00  0.00    -0.004 C 
ATOM     17  C   UNL     1      -4.883   3.965  -0.437  0.00  0.00    +0.016 C 
BRANCH  17  18
ATOM     18  N   UNL     1      -5.877   2.943  -0.793  0.00  0.00    +0.387 N 
ATOM     19  C   UNL     1      -7.151   3.568  -1.217  0.00  0.00    -0.078 C 
ATOM     20  C   UNL     1      -8.277   2.577  -1.329  0.00  0.00    -0.019 C 
ATOM     21  C   UNL     1      -9.051   2.562   0.006  0.00  0.00    -0.002 C 
ATOM     22  C   UNL     1      -8.364   1.786   1.032  0.00  0.00    -0.002 C 
ATOM     23  C   UNL     1      -6.970   2.360   1.362  0.00  0.00    -0.019 C 
ATOM     24  C   UNL     1      -6.012   1.936   0.283  0.00  0.00    -0.078 C 
ATOM     25  H   UNL     1      -5.517   2.388  -1.672  0.00  0.00    -0.081 HD
ENDBRANCH  17  18
ENDBRANCH   1  17
TORSDOF 4
