REMARK  Name = ZINC45624930
REMARK  5 active torsions:
REMARK  status: ('A' for Active; 'I' for Inactive)
REMARK    1  A    between atoms: C_1  and  C_2
REMARK    2  A    between atoms: C_4  and  C_7
REMARK    3  A    between atoms: C_7  and  N_8
REMARK    4  A    between atoms: C_9  and  C_11
REMARK    5  A    between atoms: C_13  and  N_18
REMARK                            x       y       z     vdW  Elec       q    Type
REMARK                         _______ _______ _______ _____ _____    ______ ____
ROOT
ATOM      1  N   UNL     1      -1.691  -3.832  -1.387  0.00  0.00    -0.306 N 
ATOM      2  C   UNL     1      -2.442  -4.923  -1.635  0.00  0.00    +0.246 C 
ATOM      3  O   UNL     1      -2.961  -5.526  -0.715  0.00  0.00    -0.270 OA
ATOM      4  H   UNL     1      -1.278  -3.351  -2.121  0.00  0.00    +0.149 HD
ENDROOT
BRANCH   2   5
ATOM      5  C   UNL     1      -2.636  -5.387  -3.025  0.00  0.00    +0.052 A 
ATOM      6  C   UNL     1      -2.037  -4.701  -4.082  0.00  0.00    +0.037 A 
ATOM      7  C   UNL     1      -2.223  -5.142  -5.382  0.00  0.00    +0.025 A 
ATOM      8  C   UNL     1      -3.003  -6.266  -5.631  0.00  0.00    +0.024 A 
ATOM      9  C   UNL     1      -3.597  -6.946  -4.585  0.00  0.00    +0.018 A 
ATOM     10  C   UNL     1      -3.413  -6.518  -3.284  0.00  0.00    +0.030 A 
ATOM     11 BR   UNL     1      -4.222  -7.458  -1.856  0.00  0.00    -0.050 Br
BRANCH   7  12
ATOM     12  N   UNL     1      -1.625  -4.458  -6.444  0.00  0.00    -0.358 N 
ATOM     13  H   UNL     1      -1.081  -3.674  -6.271  0.00  0.00    +0.142 HD
ATOM     14  H   UNL     1      -1.755  -4.767  -7.355  0.00  0.00    +0.142 HD
ENDBRANCH   7  12
ENDBRANCH   2   5
BRANCH   1  15
ATOM     15  C   UNL     1      -1.500  -3.372  -0.010  0.00  0.00    +0.163 C 
BRANCH  15  19
ATOM     16  C   UNL     1      -0.018   1.503   0.010  0.00  0.00    +0.089 C 
ATOM     17  C   UNL     1       0.002  -0.004   0.002  0.00  0.00    +0.135 A 
ATOM     18  C   UNL     1      -1.077  -0.810   0.003  0.00  0.00    +0.072 A 
ATOM     19  C   UNL     1      -0.627  -2.143  -0.007  0.00  0.00    +0.101 A 
ATOM     20  N   UNL     1       0.676  -2.130  -0.013  0.00  0.00    -0.081 NA
ATOM     21  O   UNL     1       1.098  -0.778  -0.013  0.00  0.00    -0.360 OA
ENDBRANCH  15  19
ENDBRANCH   1  15
TORSDOF 4
