REMARK  Name = ZINC05757179
REMARK  7 active torsions:
REMARK  status: ('A' for Active; 'I' for Inactive)
REMARK    1  A    between atoms: C_16  and  C_17
REMARK    2  A    between atoms: C_16  and  N_51
REMARK    3  A    between atoms: C_17  and  C_19
REMARK    4  A    between atoms: C_17  and  O_28
REMARK    5  A    between atoms: C_19  and  N_20
REMARK    6  A    between atoms: N_20  and  C_21
REMARK    7  A    between atoms: C_24  and  O_27
REMARK                            x       y       z     vdW  Elec       q    Type
REMARK                         _______ _______ _______ _____ _____    ______ ____
ROOT
ATOM      1  C   UNL     1       2.915  -0.518  -2.341  0.00  0.00    -0.046 C 
ENDROOT
BRANCH   1  15
ATOM      2  C   UNL     1       3.486   1.418   2.840  0.00  0.00    +0.007 A 
ATOM      3  C   UNL     1       2.822   1.987   1.747  0.00  0.00    +0.022 A 
ATOM      4  C   UNL     1       1.831   1.308   1.112  0.00  0.00    +0.023 A 
ATOM      5  N   UNL     1       1.429   0.097   1.562  0.00  0.00    -0.312 N 
ATOM      6  C   UNL     1       2.115  -0.513   2.561  0.00  0.00    +0.251 A 
ATOM      7  O   UNL     1       1.837  -1.660   2.872  0.00  0.00    -0.268 OA
ATOM      8  C   UNL     1       3.139   0.161   3.240  0.00  0.00    +0.070 A 
ATOM      9  C   UNL     1       0.236  -0.588   1.064  0.00  0.00    +0.126 C 
ATOM     10  C   UNL     1      -0.215  -0.055  -0.285  0.00  0.00    -0.007 C 
ATOM     11  C   UNL     1      -0.240   1.475  -0.246  0.00  0.00    +0.011 C 
ATOM     12  C   UNL     1       1.208   1.958  -0.103  0.00  0.00    +0.020 C 
ATOM     13  C   UNL     1       2.003   1.478  -1.315  0.00  0.00    -0.069 C 
ATOM     14  C   UNL     1       0.683  -0.552  -1.408  0.00  0.00    -0.074 C 
ATOM     15  N   UNL     1       2.046  -0.001  -1.264  0.00  0.00    +0.382 N 
ATOM     16  H   UNL     1       2.430  -0.292  -0.358  0.00  0.00    -0.082 HD
ENDBRANCH   1  15
BRANCH   1  17
ATOM     17  C   UNL     1       3.121  -2.019  -2.130  0.00  0.00    +0.115 C 
BRANCH  17  18
ATOM     18  O   UNL     1       3.727  -2.242  -0.855  0.00  0.00    -0.392 OA
ATOM     19  H   UNL     1       4.590  -1.819  -0.750  0.00  0.00    +0.210 HD
ENDBRANCH  17  18
BRANCH  17  20
ATOM     20  C   UNL     1       4.031  -2.569  -3.230  0.00  0.00    +0.131 C 
BRANCH  20  21
ATOM     21  N   UNL     1       4.132  -4.024  -3.098  0.00  0.00    -0.341 N 
ATOM     22  H   UNL     1       3.656  -4.481  -2.387  0.00  0.00    +0.146 HD
BRANCH  21  23
ATOM     23  C   UNL     1       4.915  -4.756  -3.998  0.00  0.00    +0.027 A 
ATOM     24  C   UNL     1       5.592  -4.103  -5.020  0.00  0.00    +0.026 A 
ATOM     25  C   UNL     1       6.370  -4.824  -5.904  0.00  0.00    +0.047 A 
ATOM     26  C   UNL     1       6.465  -6.203  -5.779  0.00  0.00    +0.117 A 
ATOM     27  C   UNL     1       5.785  -6.856  -4.763  0.00  0.00    +0.047 A 
ATOM     28  C   UNL     1       5.011  -6.135  -3.874  0.00  0.00    +0.026 A 
BRANCH  26  29
ATOM     29  O   UNL     1       7.227  -6.913  -6.653  0.00  0.00    -0.507 OA
ATOM     30  H   UNL     1       6.748  -7.215  -7.437  0.00  0.00    +0.292 HD
ENDBRANCH  26  29
ENDBRANCH  21  23
ENDBRANCH  20  21
ENDBRANCH  17  20
ENDBRANCH   1  17
TORSDOF 7
