REMARK  Name = ZINC53169566
REMARK  2 active torsions:
REMARK  status: ('A' for Active; 'I' for Inactive)
REMARK    1  A    between atoms: C_5  and  C_7
REMARK    2  A    between atoms: C_7  and  N_8
REMARK                            x       y       z     vdW  Elec       q    Type
REMARK                         _______ _______ _______ _____ _____    ______ ____
ROOT
ATOM      1  N   UNL     1       1.250  -2.919   1.299  0.00  0.00    -0.305 N 
ATOM      2  C   UNL     1       2.377  -3.053   2.096  0.00  0.00    +0.109 A 
ATOM      3  C   UNL     1       1.909  -3.216   3.410  0.00  0.00    +0.094 A 
ATOM      4  C   UNL     1       2.825  -3.378   4.452  0.00  0.00    +0.033 A 
ATOM      5  C   UNL     1       4.176  -3.377   4.184  0.00  0.00    +0.043 A 
ATOM      6  C   UNL     1       4.636  -3.215   2.884  0.00  0.00    +0.161 A 
ATOM      7  C   UNL     1       3.741  -3.054   1.841  0.00  0.00    +0.184 A 
ATOM      8  F   UNL     1       4.194  -2.897   0.578  0.00  0.00    -0.200 F 
ATOM      9  F   UNL     1       5.964  -3.214   2.636  0.00  0.00    -0.202 F 
ATOM     10  N   UNL     1       0.550  -3.176   3.358  0.00  0.00    -0.215 NA
ATOM     11  C   UNL     1       0.162  -2.996   2.121  0.00  0.00    +0.194 A 
ATOM     12  N   UNL     1      -1.151  -2.901   1.708  0.00  0.00    -0.329 N 
ATOM     13  H   UNL     1      -1.355  -2.659   0.791  0.00  0.00    +0.145 HD
ATOM     14  H   UNL     1      -1.870  -3.076   2.335  0.00  0.00    +0.145 HD
ENDROOT
BRANCH   1  15
ATOM     15  C   UNL     1       1.231  -2.726  -0.153  0.00  0.00    +0.161 C 
BRANCH  15  20
ATOM     16  C   UNL     1       2.216  -6.072  -1.598  0.00  0.00    +0.000 A 
ATOM     17  C   UNL     1       1.008  -6.525  -2.094  0.00  0.00    +0.001 A 
ATOM     18  C   UNL     1      -0.128  -5.750  -1.963  0.00  0.00    +0.020 A 
ATOM     19  C   UNL     1      -0.057  -4.519  -1.334  0.00  0.00    +0.046 A 
ATOM     20  C   UNL     1       1.152  -4.066  -0.837  0.00  0.00    -0.009 A 
ATOM     21  C   UNL     1       2.288  -4.843  -0.970  0.00  0.00    +0.007 A 
ATOM     22 CL   UNL     1      -1.484  -3.544  -1.169  0.00  0.00    -0.083 Cl
ENDBRANCH  15  20
ENDBRANCH   1  15
TORSDOF 2
