REMARK  Name = ZINC50265092
REMARK  10 active torsions:
REMARK  status: ('A' for Active; 'I' for Inactive)
REMARK    1  A    between atoms: C_1  and  C_2
REMARK    2  A    between atoms: C_2  and  C_3
REMARK    3  A    between atoms: C_2  and  N_4
REMARK    4  A    between atoms: N_4  and  C_5
REMARK    5  A    between atoms: N_4  and  S_11
REMARK    6  A    between atoms: C_5  and  C_6
REMARK    7  A    between atoms: C_6  and  C_7
REMARK    8  A    between atoms: N_8  and  O_9
REMARK    9  A    between atoms: S_11  and  C_14
REMARK   10  A    between atoms: N_17  and  C_19
REMARK                            x       y       z     vdW  Elec       q    Type
REMARK                         _______ _______ _______ _____ _____    ______ ____
ROOT
ATOM      1  N   UNL     1      -1.373  -0.517   0.130  0.00  0.00    -0.174 NA
ENDROOT
BRANCH   1   3
ATOM      2  C   UNL     1      -0.131   1.577  -0.105  0.00  0.00    +0.025 C 
ATOM      3  C   UNL     1      -0.035   0.051  -0.056  0.00  0.00    +0.074 C 
ATOM      4  C   UNL     1       0.863  -0.366   1.111  0.00  0.00    +0.025 C 
ENDBRANCH   1   3
BRANCH   1   5
ATOM      5  S   UNL     1      -1.949  -1.644  -0.938  0.00  0.00    +0.064 S 
ATOM      6  O   UNL     1      -3.367  -1.586  -0.863  0.00  0.00    -0.153 OA
ATOM      7  O   UNL     1      -1.241  -1.450  -2.155  0.00  0.00    -0.153 OA
BRANCH   5   8
ATOM      8  C   UNL     1      -1.477  -3.228  -0.328  0.00  0.00    +0.143 A 
ATOM      9  C   UNL     1      -0.289  -3.904  -0.625  0.00  0.00    +0.162 A 
ATOM     10  N   UNL     1      -0.298  -5.046   0.013  0.00  0.00    -0.178 NA
ATOM     11  N   UNL     1      -1.495  -5.134   0.737  0.00  0.00    -0.273 N 
ATOM     12  C   UNL     1      -2.198  -4.004   0.515  0.00  0.00    +0.136 A 
ATOM     13  C   UNL     1      -1.907  -6.252   1.588  0.00  0.00    +0.172 C 
ENDBRANCH   5   8
ENDBRANCH   1   5
BRANCH   1  14
ATOM     14  C   UNL     1      -2.200  -0.087   1.260  0.00  0.00    +0.117 C 
BRANCH  14  15
ATOM     15  C   UNL     1      -2.978   1.172   0.873  0.00  0.00    +0.091 C 
BRANCH  15  16
ATOM     16  C   UNL     1      -3.926   1.539   1.985  0.00  0.00    +0.133 C 
ATOM     17  N   UNL     1      -3.979   0.815   3.054  0.00  0.00    -0.077 NA
ATOM     18  N   UNL     1      -4.737   2.645   1.862  0.00  0.00    -0.344 N 
ATOM     19  H   UNL     1      -4.698   3.188   1.059  0.00  0.00    +0.144 HD
ATOM     20  H   UNL     1      -5.348   2.881   2.578  0.00  0.00    +0.144 HD
BRANCH  17  21
ATOM     21  O   UNL     1      -4.870   1.159   4.099  0.00  0.00    -0.408 OA
ATOM     22  H   UNL     1      -4.838   0.559   4.856  0.00  0.00    +0.328 HD
ENDBRANCH  17  21
ENDBRANCH  15  16
ENDBRANCH  14  15
ENDBRANCH   1  14
TORSDOF 7
