REMARK  Name = ZINC16552084
REMARK  7 active torsions:
REMARK  status: ('A' for Active; 'I' for Inactive)
REMARK    1  A    between atoms: C_1  and  C_2
REMARK    2  A    between atoms: C_6  and  N_8
REMARK    3  A    between atoms: C_9  and  S_13
REMARK    4  A    between atoms: S_13  and  C_14
REMARK    5  A    between atoms: C_14  and  C_15
REMARK    6  A    between atoms: N_17  and  C_18
REMARK    7  A    between atoms: C_19  and  C_23
REMARK                            x       y       z     vdW  Elec       q    Type
REMARK                         _______ _______ _______ _____ _____    ______ ____
ROOT
ATOM      1  C   UNL     1      -5.600   2.528   2.104  0.00  0.00    +0.173 C 
ENDROOT
BRANCH   1   2
ATOM      2  C   UNL     1      -6.071   3.661   2.978  0.00  0.00    +0.228 C 
ATOM      3  O   UNL     1      -5.314   4.566   3.259  0.00  0.00    -0.275 OA
ATOM      4  N   UNL     1      -7.335   3.670   3.447  0.00  0.00    -0.279 N 
ATOM      5  H   UNL     1      -7.940   2.946   3.223  0.00  0.00    +0.155 HD
BRANCH   4   6
ATOM      6  C   UNL     1      -7.769   4.713   4.252  0.00  0.00    +0.084 A 
ATOM      7  C   UNL     1      -9.023   4.900   4.821  0.00  0.00    +0.065 A 
ATOM      8  C   UNL     1      -9.200   6.085   5.625  0.00  0.00    +0.022 A 
ATOM      9  C   UNL     1      -8.144   6.909   5.746  0.00  0.00    +0.048 A 
ATOM     10  S   UNL     1      -6.882   6.102   4.783  0.00  0.00    -0.081 S 
BRANCH   7  11
ATOM     11  C   UNL     1     -10.111   3.938   4.618  0.00  0.00    +0.244 C 
ATOM     12  O   UNL     1      -9.927   2.947   3.936  0.00  0.00    -0.270 OA
ATOM     13  N   UNL     1     -11.314   4.152   5.186  0.00  0.00    -0.325 N 
ATOM     14  H   UNL     1     -11.460   4.943   5.729  0.00  0.00    +0.145 HD
ATOM     15  H   UNL     1     -12.034   3.516   5.051  0.00  0.00    +0.145 HD
ENDBRANCH   7  11
ENDBRANCH   4   6
ENDBRANCH   1   2
BRANCH   1  16
ATOM     16  S   UNL     1      -3.872   2.803   1.639  0.00  0.00    -0.075 S 
BRANCH  16  18
ATOM     17  N   UNL     1      -2.430   1.039   0.019  0.00  0.00    -0.187 N 
ATOM     18  C   UNL     1      -3.590   1.372   0.651  0.00  0.00    +0.214 A 
ATOM     19  N   UNL     1      -4.460   0.422   0.381  0.00  0.00    -0.101 NA
ATOM     20  N   UNL     1      -3.927  -0.478  -0.363  0.00  0.00    -0.022 NA
ATOM     21  N   UNL     1      -2.701  -0.180  -0.627  0.00  0.00    -0.038 NA
BRANCH  17  27
ATOM     22  C   UNL     1       2.489   1.048  -0.016  0.00  0.00    +0.044 C 
ATOM     23  C   UNL     1       1.173   1.783   0.000  0.00  0.00    -0.048 A 
ATOM     24  C   UNL     1       1.155   3.166   0.008  0.00  0.00    +0.003 A 
ATOM     25  C   UNL     1      -0.049   3.844   0.022  0.00  0.00    +0.002 A 
ATOM     26  C   UNL     1      -1.239   3.142   0.030  0.00  0.00    +0.028 A 
ATOM     27  C   UNL     1      -1.224   1.754   0.017  0.00  0.00    +0.070 A 
ATOM     28  C   UNL     1      -0.013   1.076   0.008  0.00  0.00    +0.031 A 
ENDBRANCH  17  27
ENDBRANCH  16  18
ENDBRANCH   1  16
TORSDOF 6
