REMARK  Name = ZINC62214576
REMARK  5 active torsions:
REMARK  status: ('A' for Active; 'I' for Inactive)
REMARK    1  A    between atoms: C_4  and  N_7
REMARK    2  A    between atoms: C_8  and  C_14
REMARK    3  A    between atoms: N_16  and  C_17
REMARK    4  A    between atoms: C_17  and  C_18
REMARK    5  A    between atoms: N_20  and  C_21
REMARK                            x       y       z     vdW  Elec       q    Type
REMARK                         _______ _______ _______ _____ _____    ______ ____
ROOT
ATOM      1  C   UNL     1       2.617  -2.744   0.871  0.00  0.00    +0.234 C 
ATOM      2  O   UNL     1       1.931  -1.974   1.509  0.00  0.00    -0.274 OA
ATOM      3  N   UNL     1       2.671  -4.045   1.219  0.00  0.00    -0.305 N 
ATOM      4  H   UNL     1       3.219  -4.661   0.708  0.00  0.00    +0.149 HD
ENDROOT
BRANCH   1   6
ATOM      5  N   UNL     1       2.761  -1.067  -0.896  0.00  0.00    -0.260 N 
ATOM      6  C   UNL     1       3.408  -2.247  -0.311  0.00  0.00    +0.167 C 
ATOM      7  C   UNL     1       4.805  -1.768   0.142  0.00  0.00    +0.041 C 
ATOM      8  C   UNL     1       5.049  -0.568  -0.802  0.00  0.00    +0.098 C 
ATOM      9  C   UNL     1       3.660  -0.112  -1.192  0.00  0.00    +0.221 C 
ATOM     10  O   UNL     1       3.396   0.959  -1.696  0.00  0.00    -0.275 OA
BRANCH   5  14
ATOM     11  C   UNL     1      -1.337  -0.726  -1.568  0.00  0.00    +0.000 A 
ATOM     12  C   UNL     1      -0.597  -1.659  -2.271  0.00  0.00    +0.002 A 
ATOM     13  C   UNL     1       0.761  -1.774  -2.051  0.00  0.00    +0.023 A 
ATOM     14  C   UNL     1       1.385  -0.952  -1.122  0.00  0.00    +0.037 A 
ATOM     15  C   UNL     1       0.639  -0.016  -0.417  0.00  0.00    +0.023 A 
ATOM     16  C   UNL     1      -0.719   0.094  -0.641  0.00  0.00    +0.002 A 
ENDBRANCH   5  14
ENDBRANCH   1   6
BRANCH   3  17
ATOM     17  C   UNL     1       1.901  -4.529   2.368  0.00  0.00    +0.200 C 
BRANCH  17  18
ATOM     18  C   UNL     1       2.134  -6.007   2.542  0.00  0.00    +0.234 C 
ATOM     19  O   UNL     1       2.870  -6.599   1.781  0.00  0.00    -0.274 OA
ATOM     20  N   UNL     1       1.524  -6.672   3.543  0.00  0.00    -0.284 N 
ATOM     21  H   UNL     1       0.880  -6.216   4.107  0.00  0.00    +0.155 HD
BRANCH  20  22
ATOM     22  C   UNL     1       1.819  -8.023   3.769  0.00  0.00    +0.037 A 
ATOM     23  C   UNL     1       0.839  -8.877   4.256  0.00  0.00    +0.027 A 
ATOM     24  C   UNL     1       1.130 -10.208   4.480  0.00  0.00    +0.051 A 
ATOM     25  C   UNL     1       2.402 -10.696   4.219  0.00  0.00    +0.162 A 
ATOM     26  C   UNL     1       3.385  -9.845   3.730  0.00  0.00    +0.164 A 
ATOM     27  C   UNL     1       3.091  -8.509   3.502  0.00  0.00    +0.072 A 
ATOM     28  O   UNL     1       4.637 -10.307   3.460  0.00  0.00    -0.485 OA
ATOM     29  C   UNL     1       4.999 -11.563   4.046  0.00  0.00    +0.270 C 
ATOM     30  C   UNL     1       3.843 -12.547   3.825  0.00  0.00    +0.270 C 
ATOM     31  O   UNL     1       2.671 -12.011   4.450  0.00  0.00    -0.485 OA
ENDBRANCH  20  22
ENDBRANCH  17  18
ENDBRANCH   3  17
TORSDOF 5
