REMARK  Name = ZINC31863028
REMARK  2 active torsions:
REMARK  status: ('A' for Active; 'I' for Inactive)
REMARK    1  A    between atoms: C_3  and  C_8
REMARK    2  A    between atoms: C_16  and  N_17
REMARK                            x       y       z     vdW  Elec       q    Type
REMARK                         _______ _______ _______ _____ _____    ______ ____
ROOT
ATOM      1  C   UNL     1      -1.304   2.117   0.020  0.00  0.00    +0.169 A 
ATOM      2  N   UNL     1      -2.498   1.588   0.207  0.00  0.00    -0.128 NA
ATOM      3  N   UNL     1      -3.400   2.503   0.154  0.00  0.00    -0.127 NA
ATOM      4  C   UNL     1      -2.832   3.678  -0.073  0.00  0.00    +0.182 A 
ATOM      5  N   UNL     1      -1.480   3.462  -0.158  0.00  0.00    -0.280 N 
ATOM      6  C   UNL     1      -0.625   4.499  -0.396  0.00  0.00    +0.114 A 
ATOM      7  C   UNL     1      -1.093   5.758  -0.540  0.00  0.00    +0.059 A 
ATOM      8  C   UNL     1      -2.471   6.018  -0.453  0.00  0.00    +0.048 A 
ATOM      9  C   UNL     1      -3.341   4.988  -0.220  0.00  0.00    +0.071 A 
ATOM     10 CL   UNL     1       0.014   7.063  -0.834  0.00  0.00    -0.082 Cl
ENDROOT
BRANCH   1  13
ATOM     11  C   UNL     1       1.292  -0.534   0.602  0.00  0.00    +0.002 A 
ATOM     12  C   UNL     1       0.085   0.135   0.609  0.00  0.00    +0.011 A 
ATOM     13  C   UNL     1      -0.017   1.392   0.010  0.00  0.00    +0.021 A 
ATOM     14  C   UNL     1       1.105   1.964  -0.594  0.00  0.00    +0.027 A 
ATOM     15  C   UNL     1       2.306   1.284  -0.595  0.00  0.00    +0.019 A 
ATOM     16  C   UNL     1       2.400   0.038   0.002  0.00  0.00    +0.015 A 
ATOM     17 BR   UNL     1       3.827   2.057  -1.411  0.00  0.00    -0.050 Br
ENDBRANCH   1  13
BRANCH   9  18
ATOM     18  N   UNL     1      -4.712   5.228  -0.131  0.00  0.00    -0.355 N 
ATOM     19  H   UNL     1      -5.101   6.251  -0.247  0.00  0.00    +0.142 HD
ATOM     20  H   UNL     1      -5.405   4.395   0.055  0.00  0.00    +0.142 HD
ENDBRANCH   9  18
TORSDOF 2
