REMARK  Name = ZINC49559100
REMARK  4 active torsions:
REMARK  status: ('A' for Active; 'I' for Inactive)
REMARK    1  A    between atoms: C_1  and  C_2
REMARK    2  A    between atoms: C_5  and  C_8
REMARK    3  A    between atoms: C_8  and  C_10
REMARK    4  A    between atoms: C_8  and  N_11
REMARK                            x       y       z     vdW  Elec       q    Type
REMARK                         _______ _______ _______ _____ _____    ______ ____
ROOT
ATOM      1  N   UNL     1       1.393  -5.172   0.106  0.00  0.00    -0.304 N 
ATOM      2  C   UNL     1       2.408  -4.945  -0.810  0.00  0.00    +0.089 A 
ATOM      3  C   UNL     1       2.851  -6.212  -1.224  0.00  0.00    +0.092 A 
ATOM      4  C   UNL     1       3.883  -6.307  -2.160  0.00  0.00    +0.030 A 
ATOM      5  C   UNL     1       4.455  -5.161  -2.668  0.00  0.00    +0.004 A 
ATOM      6  C   UNL     1       4.014  -3.913  -2.257  0.00  0.00    +0.022 A 
ATOM      7  C   UNL     1       2.995  -3.801  -1.331  0.00  0.00    +0.067 A 
ATOM      8 CL   UNL     1       2.450  -2.234  -0.822  0.00  0.00    -0.081 Cl
ATOM      9  N   UNL     1       2.106  -7.133  -0.558  0.00  0.00    -0.215 NA
ATOM     10  C   UNL     1       1.253  -6.524   0.228  0.00  0.00    +0.195 A 
ATOM     11  N   UNL     1       0.346  -7.156   1.052  0.00  0.00    -0.329 N 
ATOM     12  H   UNL     1      -0.434  -6.677   1.372  0.00  0.00    +0.145 HD
ATOM     13  H   UNL     1       0.487  -8.080   1.312  0.00  0.00    +0.145 HD
ENDROOT
BRANCH   1  14
ATOM     14  C   UNL     1       0.620  -4.151   0.817  0.00  0.00    +0.117 C 
ATOM     15  C   UNL     1      -0.857  -4.548   0.832  0.00  0.00    +0.036 C 
BRANCH  14  20
ATOM     16  C   UNL     1       2.548  -3.704   6.247  0.00  0.00    +0.044 C 
ATOM     17  C   UNL     1       2.045  -3.821   4.831  0.00  0.00    -0.050 A 
ATOM     18  C   UNL     1       2.534  -2.975   3.852  0.00  0.00    +0.004 A 
ATOM     19  C   UNL     1       2.073  -3.082   2.553  0.00  0.00    +0.006 A 
ATOM     20  C   UNL     1       1.123  -4.035   2.233  0.00  0.00    -0.025 A 
ATOM     21  C   UNL     1       0.636  -4.881   3.212  0.00  0.00    +0.006 A 
ATOM     22  C   UNL     1       1.100  -4.777   4.510  0.00  0.00    +0.004 A 
ENDBRANCH  14  20
ENDBRANCH   1  14
TORSDOF 2
