REMARK  Name = ZINC37657126
REMARK  4 active torsions:
REMARK  status: ('A' for Active; 'I' for Inactive)
REMARK    1  A    between atoms: C_4  and  N_6
REMARK    2  A    between atoms: N_6  and  S_7
REMARK    3  A    between atoms: S_7  and  N_10
REMARK    4  A    between atoms: C_13  and  C_16
REMARK                            x       y       z     vdW  Elec       q    Type
REMARK                         _______ _______ _______ _____ _____    ______ ____
ROOT
ATOM      1  S   UNL     1       0.031  -3.063  -0.015  0.00  0.00    +0.133 S 
ATOM      2  O   UNL     1      -0.616  -2.887   1.238  0.00  0.00    -0.136 OA
ATOM      3  O   UNL     1      -0.641  -2.873  -1.253  0.00  0.00    -0.136 OA
ENDROOT
BRANCH   1   4
ATOM      4  N   UNL     1       0.623  -4.609  -0.029  0.00  0.00    -0.162 NA
ATOM      5  C   UNL     1       0.883  -5.299  -1.300  0.00  0.00    +0.111 C 
ATOM      6  C   UNL     1       0.147  -6.643  -1.292  0.00  0.00    +0.032 C 
ATOM      7  C   UNL     1       0.558  -7.437  -0.050  0.00  0.00    +0.105 C 
ATOM      8  C   UNL     1       0.161  -6.661   1.208  0.00  0.00    +0.032 C 
ATOM      9  C   UNL     1       0.902  -5.316   1.228  0.00  0.00    +0.111 C 
BRANCH   7  10
ATOM     10  C   UNL     1      -0.138  -8.774  -0.056  0.00  0.00    +0.359 C 
ATOM     11  O   UNL     1       0.462  -9.775   0.295  0.00  0.00    -0.246 OA
ATOM     12  O   UNL     1      -1.302  -8.853  -0.412  0.00  0.00    -0.246 OA
ENDBRANCH   7  10
ENDBRANCH   1   4
BRANCH   1  13
ATOM     13  N   UNL     1       1.334  -2.040  -0.022  0.00  0.00    -0.059 NA
BRANCH  13  17
ATOM     14  C   UNL     1      -0.016   1.318   0.009  0.00  0.00    +0.136 A 
ATOM     15  C   UNL     1       1.183   1.950   0.001  0.00  0.00    +0.076 A 
ATOM     16  S   UNL     1       2.296   0.554  -0.017  0.00  0.00    -0.042 S 
ATOM     17  C   UNL     1       1.138  -0.668  -0.012  0.00  0.00    +0.203 A 
ATOM     18  N   UNL     1       0.002  -0.004   0.002  0.00  0.00    -0.229 NA
ATOM     19 BR   UNL     1       1.571   3.801   0.007  0.00  0.00    -0.041 Br
ENDBRANCH  13  17
ENDBRANCH   1  13
TORSDOF 4
