REMARK  Name = ZINC02050476
REMARK  11 active torsions:
REMARK  status: ('A' for Active; 'I' for Inactive)
REMARK    1  A    between atoms: C_1  and  C_2
REMARK    2  A    between atoms: C_5  and  C_8
REMARK    3  A    between atoms: N_10  and  C_11
REMARK    4  A    between atoms: C_11  and  C_12
REMARK    5  A    between atoms: C_11  and  C_16
REMARK    6  A    between atoms: C_11  and  N_20
REMARK    7  A    between atoms: C_12  and  O_14
REMARK    8  A    between atoms: O_14  and  C_15
REMARK    9  A    between atoms: N_20  and  C_21
REMARK   10  A    between atoms: C_23  and  C_27
REMARK   11  A    between atoms: C_25  and  C_26
REMARK                            x       y       z     vdW  Elec       q    Type
REMARK                         _______ _______ _______ _____ _____    ______ ____
ROOT
ATOM      1  C   UNL     1       1.198  -0.682  -0.172  0.00  0.00    +0.296 C 
ENDROOT
BRANCH   1   4
ATOM      2  C   UNL     1      -0.147   1.347  -0.262  0.00  0.00    +0.246 C 
ATOM      3  O   UNL     1       0.872   1.996  -0.124  0.00  0.00    -0.270 OA
ATOM      4  N   UNL     1      -0.096   0.001  -0.249  0.00  0.00    -0.274 N 
ATOM      5  H   UNL     1      -0.915  -0.516  -0.290  0.00  0.00    +0.152 HD
BRANCH   2  10
ATOM      6  C   UNL     1      -5.186   4.028  -0.998  0.00  0.00    +0.044 C 
ATOM      7  C   UNL     1      -3.866   3.326  -0.805  0.00  0.00    -0.050 A 
ATOM      8  C   UNL     1      -2.709   4.067  -0.641  0.00  0.00    +0.004 A 
ATOM      9  C   UNL     1      -1.498   3.431  -0.465  0.00  0.00    +0.013 A 
ATOM     10  C   UNL     1      -1.441   2.036  -0.451  0.00  0.00    +0.037 A 
ATOM     11  C   UNL     1      -2.611   1.295  -0.621  0.00  0.00    +0.013 A 
ATOM     12  C   UNL     1      -3.817   1.944  -0.792  0.00  0.00    +0.004 A 
ENDBRANCH   2  10
ENDBRANCH   1   4
BRANCH   1  13
ATOM     13  C   UNL     1       2.064  -0.271  -1.365  0.00  0.00    +0.438 C 
ATOM     14  F   UNL     1       2.375   1.089  -1.268  0.00  0.00    -0.166 F 
ATOM     15  F   UNL     1       3.245  -1.021  -1.365  0.00  0.00    -0.166 F 
ATOM     16  F   UNL     1       1.363  -0.506  -2.553  0.00  0.00    -0.166 F 
ENDBRANCH   1  13
BRANCH   1  17
ATOM     17  C   UNL     1       1.893  -0.299   1.109  0.00  0.00    +0.359 C 
ATOM     18  O   UNL     1       2.423  -1.148   1.786  0.00  0.00    -0.246 OA
BRANCH  17  19
ATOM     19  O   UNL     1       1.924   0.986   1.497  0.00  0.00    -0.465 OA
ATOM     20  C   UNL     1       2.611   1.282   2.741  0.00  0.00    +0.280 C 
ENDBRANCH  17  19
ENDBRANCH   1  17
BRANCH   1  21
ATOM     21  N   UNL     1       0.987  -2.132  -0.198  0.00  0.00    -0.294 N 
ATOM     22  H   UNL     1       1.445  -2.677  -0.858  0.00  0.00    +0.150 HD
BRANCH  21  23
ATOM     23  C   UNL     1       0.132  -2.727   0.722  0.00  0.00    +0.099 A 
ATOM     24  C   UNL     1      -0.542  -1.936   1.648  0.00  0.00    +0.045 A 
ATOM     25  C   UNL     1      -1.394  -2.540   2.554  0.00  0.00    -0.046 A 
ATOM     26  C   UNL     1      -1.537  -3.921   2.511  0.00  0.00    +0.024 A 
ATOM     27  C   UNL     1      -0.833  -4.644   1.569  0.00  0.00    +0.015 A 
ATOM     28  C   UNL     1      -0.983  -6.143   1.518  0.00  0.00    +0.063 C 
ATOM     29  C   UNL     1      -2.147  -1.719   3.569  0.00  0.00    +0.044 C 
ATOM     30  N   UNL     1       0.009  -4.084   0.660  0.00  0.00    -0.347 N 
ATOM     31  H   UNL     1       0.520  -4.647  -0.030  0.00  0.00    +0.167 HD
ENDBRANCH  21  23
ENDBRANCH   1  21
TORSDOF 7
