REMARK  Name = ZINC08829882
REMARK  7 active torsions:
REMARK  status: ('A' for Active; 'I' for Inactive)
REMARK    1  A    between atoms: C_1  and  C_2
REMARK    2  A    between atoms: C_5  and  C_8
REMARK    3  A    between atoms: C_11  and  C_17
REMARK    4  A    between atoms: N_12  and  N_13
REMARK    5  A    between atoms: C_14  and  S_16
REMARK    6  A    between atoms: C_17  and  C_18
REMARK    7  A    between atoms: C_18  and  C_19
REMARK                            x       y       z     vdW  Elec       q    Type
REMARK                         _______ _______ _______ _____ _____    ______ ____
ROOT
ATOM      1  C   UNL     1       4.293   3.385  -1.134  0.00  0.00    +0.073 A 
ATOM      2  C   UNL     1       5.575   3.626  -0.728  0.00  0.00    +0.030 A 
ATOM      3  C   UNL     1       5.577   3.616   0.674  0.00  0.00    +0.025 A 
ATOM      4  C   UNL     1       4.308   3.377   1.085  0.00  0.00    +0.044 A 
ATOM      5  N   UNL     1       3.520   3.229  -0.014  0.00  0.00    -0.234 N 
ENDROOT
BRANCH   1  10
ATOM      6  C   UNL     1       2.467   3.076  -6.582  0.00  0.00    +0.044 C 
ATOM      7  C   UNL     1       2.946   3.157  -5.155  0.00  0.00    -0.050 A 
ATOM      8  C   UNL     1       4.295   3.306  -4.888  0.00  0.00    +0.004 A 
ATOM      9  C   UNL     1       4.739   3.381  -3.584  0.00  0.00    +0.010 A 
ATOM     10  C   UNL     1       3.824   3.306  -2.533  0.00  0.00    +0.000 A 
ATOM     11  C   UNL     1       2.465   3.150  -2.809  0.00  0.00    +0.010 A 
ATOM     12  C   UNL     1       2.033   3.082  -4.118  0.00  0.00    +0.004 A 
ENDBRANCH   1  10
BRANCH   5  13
ATOM     13  N   UNL     1       2.143   2.967  -0.003  0.00  0.00    -0.145 NA
ATOM     14  C   UNL     1       1.714   1.735  -0.005  0.00  0.00    +0.169 C 
ATOM     15  N   UNL     1       2.616   0.689  -0.019  0.00  0.00    -0.337 N 
ATOM     16  H   UNL     1       2.297  -0.227  -0.021  0.00  0.00    +0.144 HD
ATOM     17  H   UNL     1       3.569   0.871  -0.027  0.00  0.00    +0.144 HD
BRANCH  14  18
ATOM     18  S   UNL     1      -0.017   1.406   0.010  0.00  0.00    -0.107 S 
ATOM     19  H   UNL     1       0.002  -0.004   0.002  0.00  0.00    +0.110 HD
ENDBRANCH  14  18
ENDBRANCH   5  13
BRANCH   4  20
ATOM     20  C   UNL     1       3.848   3.287   2.517  0.00  0.00    +0.067 C 
BRANCH  20  21
ATOM     21  C   UNL     1       3.542   4.691   3.043  0.00  0.00    +0.131 C 
BRANCH  21  22
ATOM     22  C   UNL     1       3.082   4.601   4.475  0.00  0.00    +0.356 C 
ATOM     23  O   UNL     1       3.007   3.525   5.019  0.00  0.00    -0.246 OA
ATOM     24  O   UNL     1       2.756   5.717   5.147  0.00  0.00    -0.246 OA
ENDBRANCH  21  22
ENDBRANCH  20  21
ENDBRANCH   4  20
TORSDOF 6
