REMARK  Name = ZINC36829983
REMARK  5 active torsions:
REMARK  status: ('A' for Active; 'I' for Inactive)
REMARK    1  A    between atoms: C_1  and  C_2
REMARK    2  A    between atoms: C_7  and  C_8
REMARK    3  A    between atoms: C_8  and  C_10
REMARK    4  A    between atoms: C_8  and  N_21
REMARK    5  A    between atoms: N_21  and  C_22
REMARK                            x       y       z     vdW  Elec       q    Type
REMARK                         _______ _______ _______ _____ _____    ______ ____
ROOT
ATOM      1  C   UNL     1       0.242   0.049   2.492  0.00  0.00    -0.010 C 
ENDROOT
BRANCH   1   2
ATOM      2  C   UNL     1      -1.133   0.278   3.063  0.00  0.00    -0.054 A 
ATOM      3  C   UNL     1      -1.730  -0.702   3.837  0.00  0.00    +0.004 A 
ATOM      4  C   UNL     1      -2.990  -0.499   4.364  0.00  0.00    +0.030 A 
ATOM      5  C   UNL     1      -3.658   0.690   4.117  0.00  0.00    +0.087 A 
ATOM      6  C   UNL     1      -3.058   1.679   3.337  0.00  0.00    +0.157 A 
ATOM      7  C   UNL     1      -1.790   1.468   2.817  0.00  0.00    +0.051 A 
ATOM      8  O   UNL     1      -3.927   2.716   3.263  0.00  0.00    -0.408 OA
ATOM      9  C   UNL     1      -5.034   2.414   3.959  0.00  0.00    +0.419 A 
ATOM     10  O   UNL     1      -6.003   3.138   4.087  0.00  0.00    -0.223 OA
ATOM     11  N   UNL     1      -4.906   1.184   4.495  0.00  0.00    -0.288 N 
ATOM     12  H   UNL     1      -5.562   0.726   5.044  0.00  0.00    +0.172 HD
ENDBRANCH   1   2
BRANCH   1  19
ATOM     13  C   UNL     1      -0.285   0.889  -0.221  0.00  0.00    +0.044 C 
ATOM     14  C   UNL     1      -0.089  -0.572   0.090  0.00  0.00    -0.048 A 
ATOM     15  C   UNL     1      -0.155  -1.510  -0.923  0.00  0.00    +0.018 A 
ATOM     16  C   UNL     1       0.025  -2.851  -0.637  0.00  0.00    +0.018 A 
ATOM     17  C   UNL     1       0.273  -3.253   0.663  0.00  0.00    +0.015 A 
ATOM     18  C   UNL     1       0.340  -2.315   1.676  0.00  0.00    +0.003 A 
ATOM     19  C   UNL     1       0.164  -0.974   1.389  0.00  0.00    -0.054 A 
ATOM     20 BR   UNL     1      -0.066  -4.134  -2.023  0.00  0.00    -0.050 Br
ENDBRANCH   1  19
BRANCH   1  21
ATOM     21  N   UNL     1       1.137  -0.439   3.550  0.00  0.00    +0.384 N 
ATOM     22  C   UNL     1       2.504  -0.549   3.024  0.00  0.00    -0.099 C 
ATOM     23  H   UNL     1       1.126   0.207   4.325  0.00  0.00    -0.085 HD
ATOM     24  H   UNL     1       0.824  -1.346   3.864  0.00  0.00    -0.085 HD
ENDBRANCH   1  21
TORSDOF 3
