REMARK  Name = ZINC42985557
REMARK  7 active torsions:
REMARK  status: ('A' for Active; 'I' for Inactive)
REMARK    1  A    between atoms: C_1  and  C_2
REMARK    2  A    between atoms: C_7  and  S_8
REMARK    3  A    between atoms: S_8  and  N_11
REMARK    4  A    between atoms: N_11  and  C_12
REMARK    5  A    between atoms: C_12  and  C_13
REMARK    6  A    between atoms: C_16  and  S_19
REMARK    7  A    between atoms: S_19  and  N_22
REMARK                            x       y       z     vdW  Elec       q    Type
REMARK                         _______ _______ _______ _____ _____    ______ ____
ROOT
ATOM      1  N   UNL     1       1.177   1.030   2.916  0.00  0.00    -0.186 NA
ATOM      2  H   UNL     1       1.876   0.859   3.565  0.00  0.00    +0.148 HD
ENDROOT
BRANCH   1   3
ATOM      3  S   UNL     1      -0.065  -0.051   2.732  0.00  0.00    +0.059 S 
ATOM      4  O   UNL     1      -1.269   0.701   2.788  0.00  0.00    -0.153 OA
ATOM      5  O   UNL     1       0.202  -1.129   3.618  0.00  0.00    -0.153 OA
BRANCH   3  12
ATOM      6  C   UNL     1       2.239  -1.735   1.730  0.00  0.00    +0.046 C 
ATOM      7  C   UNL     1       1.143  -1.462   0.732  0.00  0.00    -0.023 A 
ATOM      8  C   UNL     1       1.229  -1.978  -0.547  0.00  0.00    +0.025 A 
ATOM      9  C   UNL     1       0.223  -1.728  -1.463  0.00  0.00    +0.041 A 
ATOM     10  C   UNL     1      -0.870  -0.962  -1.097  0.00  0.00    +0.022 A 
ATOM     11  C   UNL     1      -0.955  -0.447   0.182  0.00  0.00    +0.030 A 
ATOM     12  C   UNL     1       0.049  -0.702   1.099  0.00  0.00    +0.108 A 
ATOM     13 CL   UNL     1       0.331  -2.374  -3.071  0.00  0.00    -0.084 Cl
ENDBRANCH   3  12
ENDBRANCH   1   3
BRANCH   1  14
ATOM     14  C   UNL     1       1.217   2.244   2.097  0.00  0.00    +0.141 C 
BRANCH  14  15
ATOM     15  C   UNL     1       2.192   3.223   2.699  0.00  0.00    -0.032 A 
ATOM     16  C   UNL     1       1.760   4.142   3.637  0.00  0.00    +0.007 A 
ATOM     17  C   UNL     1       2.654   5.040   4.189  0.00  0.00    +0.029 A 
ATOM     18  C   UNL     1       3.982   5.019   3.803  0.00  0.00    +0.105 A 
ATOM     19  C   UNL     1       4.414   4.100   2.865  0.00  0.00    +0.029 A 
ATOM     20  C   UNL     1       3.521   3.199   2.317  0.00  0.00    +0.007 A 
BRANCH  18  21
ATOM     21  S   UNL     1       5.122   6.164   4.505  0.00  0.00    +0.056 S 
ATOM     22  O   UNL     1       6.188   6.297   3.576  0.00  0.00    -0.153 OA
ATOM     23  O   UNL     1       4.357   7.275   4.952  0.00  0.00    -0.153 OA
BRANCH  21  24
ATOM     24  N   UNL     1       5.759   5.453   5.858  0.00  0.00    -0.204 NA
ATOM     25  H   UNL     1       5.477   4.561   6.116  0.00  0.00    +0.144 HD
ATOM     26  H   UNL     1       6.415   5.928   6.393  0.00  0.00    +0.144 HD
ENDBRANCH  21  24
ENDBRANCH  18  21
ENDBRANCH  14  15
ENDBRANCH   1  14
TORSDOF 6
