REMARK  Name = ZINC48818478
REMARK  5 active torsions:
REMARK  status: ('A' for Active; 'I' for Inactive)
REMARK    1  A    between atoms: C_3  and  C_8
REMARK    2  A    between atoms: C_8  and  N_9
REMARK    3  A    between atoms: N_9  and  S_10
REMARK    4  A    between atoms: S_10  and  C_13
REMARK    5  A    between atoms: CA_15  and  C_19
REMARK                            x       y       z     vdW  Elec       q    Type
REMARK                         _______ _______ _______ _____ _____    ______ ____
ROOT
ATOM      1  S   UNL     1       5.657   2.916   1.662  0.00  0.00    +0.060 S 
ATOM      2  O   UNL     1       5.758   3.090   3.069  0.00  0.00    -0.153 OA
ATOM      3  O   UNL     1       6.510   2.038   0.940  0.00  0.00    -0.153 OA
ENDROOT
BRANCH   1   4
ATOM      4  C   UNL     1       5.851   4.513   0.942  0.00  0.00    +0.123 A 
ATOM      5  C   UNL     1       6.277   4.780  -0.361  0.00  0.00    +0.063 A 
ATOM      6  CA  UNL     1       6.286   6.155  -0.507  0.00  0.00    +0.130 A 
ATOM      7  N   UNL     1       5.872   6.700   0.690  0.00  0.00    -0.354 N 
ATOM      8  H   UNL     1       5.782   7.647   0.878  0.00  0.00    +0.166 HD
ATOM      9  C   UNL     1       5.607   5.698   1.553  0.00  0.00    +0.112 A 
BRANCH   6  10
ATOM     10  C   UNL     1       6.666   6.894  -1.709  0.00  0.00    +0.402 C 
ATOM     11  O   UNL     1       6.631   8.119  -1.711  0.00  0.00    -0.239 OA
ATOM     12  OXT UNL     1       7.018   6.290  -2.714  0.00  0.00    -0.239 OA
ENDBRANCH   6  10
ENDBRANCH   1   4
BRANCH   1  13
ATOM     13  N   UNL     1       4.105   2.426   1.356  0.00  0.00    -0.186 NA
ATOM     14  H   UNL     1       3.483   2.300   2.089  0.00  0.00    +0.148 HD
BRANCH  13  15
ATOM     15  C   UNL     1       3.672   2.183  -0.022  0.00  0.00    +0.141 C 
BRANCH  15  18
ATOM     16  C   UNL     1      -0.017   1.378   0.010  0.00  0.00    +0.001 A 
ATOM     17  C   UNL     1       1.171   2.086   0.002  0.00  0.00    +0.005 A 
ATOM     18  C   UNL     1       2.378   1.411  -0.013  0.00  0.00    -0.031 A 
ATOM     19  C   UNL     1       2.397   0.029  -0.022  0.00  0.00    +0.020 A 
ATOM     20  C   UNL     1       1.210  -0.679  -0.014  0.00  0.00    +0.018 A 
ATOM     21  C   UNL     1       0.002  -0.004   0.002  0.00  0.00    +0.015 A 
ATOM     22 BR   UNL     1       1.236  -2.570  -0.025  0.00  0.00    -0.050 Br
ENDBRANCH  15  18
ENDBRANCH  13  15
ENDBRANCH   1  13
TORSDOF 5
