REMARK  Name = ZINC37288954
REMARK  4 active torsions:
REMARK  status: ('A' for Active; 'I' for Inactive)
REMARK    1  A    between atoms: C_1  and  C_2
REMARK    2  A    between atoms: C_10  and  C_12
REMARK    3  A    between atoms: C_13  and  C_19
REMARK    4  A    between atoms: C_14  and  C_18
REMARK                            x       y       z     vdW  Elec       q    Type
REMARK                         _______ _______ _______ _____ _____    ______ ____
ROOT
ATOM      1  C   UNL     1       0.043   1.505   0.014  0.00  0.00    +0.044 C 
ATOM      2  C   UNL     1       0.029  -0.002   0.006  0.00  0.00    -0.048 A 
ATOM      3  C   UNL     1      -0.034  -0.684  -1.201  0.00  0.00    +0.005 A 
ATOM      4  C   UNL     1      -0.047  -2.049  -1.231  0.00  0.00    +0.030 A 
ATOM      5  C   UNL     1       0.004  -2.773  -0.035  0.00  0.00    +0.089 A 
ATOM      6  C   UNL     1       0.069  -2.082   1.189  0.00  0.00    +0.067 A 
ATOM      7  C   UNL     1       0.086  -0.694   1.197  0.00  0.00    +0.031 A 
ATOM      8  N   UNL     1       0.107  -3.047   2.175  0.00  0.00    -0.338 N 
ATOM      9  H   UNL     1       0.154  -2.892   3.132  0.00  0.00    +0.167 HD
ATOM     10  C   UNL     1       0.067  -4.266   1.552  0.00  0.00    +0.142 A 
ATOM     11  N   UNL     1       0.006  -4.097   0.253  0.00  0.00    -0.228 NA
ENDROOT
BRANCH  10  12
ATOM     12  C   UNL     1       0.089  -5.574   2.239  0.00  0.00    +0.048 C 
ATOM     13  C   UNL     1       1.129  -5.922   2.967  0.00  0.00    -0.047 C 
ATOM     14  C   UNL     1       1.079  -7.277   3.641  0.00  0.00    +0.076 C 
ATOM     15  S   UNL     1      -0.563  -7.904   3.101  0.00  0.00    -0.098 S 
ATOM     16  C   UNL     1      -1.063  -6.499   2.119  0.00  0.00    +0.099 C 
ATOM     17  N   UNL     1      -2.172  -6.328   1.454  0.00  0.00    -0.292 NA
ATOM     18  C   UNL     1       2.204  -8.183   3.135  0.00  0.00    +0.024 C 
ATOM     19  C   UNL     1       2.320  -5.011   3.122  0.00  0.00    +0.041 C 
ATOM     20  H   UNL     1      -2.852  -7.021   1.459  0.00  0.00    +0.187 HD
ENDBRANCH  10  12
TORSDOF 1
