REMARK  Name = ZINC37418680
REMARK  2 active torsions:
REMARK  status: ('A' for Active; 'I' for Inactive)
REMARK    1  A    between atoms: C_4  and  C_8
REMARK    2  A    between atoms: C_8  and  N_9
REMARK                            x       y       z     vdW  Elec       q    Type
REMARK                         _______ _______ _______ _____ _____    ______ ____
ROOT
ATOM      1  C   UNL     1       3.713  -0.706  -0.039  0.00  0.00    +0.179 C 
ENDROOT
BRANCH   1   5
ATOM      2  C   UNL     1      -0.017   1.380   0.010  0.00  0.00    +0.039 A 
ATOM      3  C   UNL     1       1.171   2.087   0.002  0.00  0.00    +0.018 A 
ATOM      4  C   UNL     1       2.378   1.412  -0.013  0.00  0.00    +0.023 A 
ATOM      5  C   UNL     1       2.397   0.029  -0.022  0.00  0.00    -0.009 A 
ATOM      6  C   UNL     1       1.211  -0.679  -0.014  0.00  0.00    +0.045 A 
ATOM      7  C   UNL     1       0.002  -0.004   0.002  0.00  0.00    +0.124 A 
ATOM      8  F   UNL     1      -1.158  -0.696   0.010  0.00  0.00    -0.205 F 
ATOM      9 BR   UNL     1       4.002   2.380  -0.025  0.00  0.00    -0.050 Br
ENDBRANCH   1   5
BRANCH   1  10
ATOM     10  N   UNL     1       4.212  -0.847   1.331  0.00  0.00    -0.265 N 
ATOM     11  C   UNL     1       4.558  -2.004   1.934  0.00  0.00    +0.110 A 
ATOM     12  C   UNL     1       4.967  -1.711   3.189  0.00  0.00    +0.064 A 
ATOM     13  C   UNL     1       4.868  -0.321   3.362  0.00  0.00    +0.138 A 
ATOM     14  N   UNL     1       4.419   0.196   2.243  0.00  0.00    -0.156 NA
ATOM     15  N   UNL     1       5.196   0.389   4.523  0.00  0.00    -0.342 N 
ATOM     16  H   UNL     1       5.526  -0.084   5.303  0.00  0.00    +0.144 HD
ATOM     17  H   UNL     1       5.093   1.353   4.547  0.00  0.00    +0.144 HD
ENDBRANCH   1  10
TORSDOF 2
