REMARK  Name = ZINC28849250
REMARK  7 active torsions:
REMARK  status: ('A' for Active; 'I' for Inactive)
REMARK    1  A    between atoms: C_1  and  C_2
REMARK    2  A    between atoms: C_6  and  N_8
REMARK    3  A    between atoms: C_9  and  C_23
REMARK    4  A    between atoms: C_12  and  S_13
REMARK    5  A    between atoms: S_13  and  C_14
REMARK    6  A    between atoms: C_14  and  C_16
REMARK    7  A    between atoms: C_14  and  C_17
REMARK                            x       y       z     vdW  Elec       q    Type
REMARK                         _______ _______ _______ _____ _____    ______ ____
ROOT
ATOM      1  N   UNL     1      -1.228   3.712   0.028  0.00  0.00    -0.270 N 
ATOM      2  C   UNL     1      -1.214   2.334   0.021  0.00  0.00    +0.171 A 
ATOM      3  N   UNL     1      -2.466   1.937   0.019  0.00  0.00    -0.128 NA
ATOM      4  N   UNL     1      -3.251   2.955   0.033  0.00  0.00    -0.122 NA
ATOM      5  C   UNL     1      -2.552   4.066   0.036  0.00  0.00    +0.197 A 
ENDROOT
BRANCH   2   6
ATOM      6  C   UNL     1      -0.018   1.469   0.010  0.00  0.00    +0.045 A 
ATOM      7  C   UNL     1       1.278   1.875  -0.000  0.00  0.00    +0.095 A 
ATOM      8  N   UNL     1       2.102   0.787  -0.014  0.00  0.00    -0.360 N 
ATOM      9  H   UNL     1       3.193   0.923  -0.024  0.00  0.00    +0.165 HD
ATOM     10  C   UNL     1       1.358  -0.373  -0.013  0.00  0.00    +0.047 A 
ATOM     11  C   UNL     1       0.002  -0.004   0.002  0.00  0.00    +0.010 A 
ATOM     12  C   UNL     1      -0.988  -0.984   0.006  0.00  0.00    +0.011 A 
ATOM     13  C   UNL     1      -0.631  -2.315  -0.005  0.00  0.00    +0.001 A 
ATOM     14  C   UNL     1       0.707  -2.681  -0.020  0.00  0.00    +0.002 A 
ATOM     15  C   UNL     1       1.697  -1.722  -0.024  0.00  0.00    +0.026 A 
ENDBRANCH   2   6
BRANCH   1  21
ATOM     16  C   UNL     1       1.460   7.157  -2.231  0.00  0.00    +0.044 C 
ATOM     17  C   UNL     1       1.205   6.251  -1.053  0.00  0.00    -0.048 A 
ATOM     18  C   UNL     1       2.064   6.269   0.031  0.00  0.00    +0.003 A 
ATOM     19  C   UNL     1       1.833   5.441   1.113  0.00  0.00    +0.002 A 
ATOM     20  C   UNL     1       0.741   4.595   1.117  0.00  0.00    +0.026 A 
ATOM     21  C   UNL     1      -0.121   4.572   0.029  0.00  0.00    +0.051 A 
ATOM     22  C   UNL     1       0.114   5.405  -1.057  0.00  0.00    +0.029 A 
ENDBRANCH   1  21
BRANCH   5  23
ATOM     23  S   UNL     1      -3.196   5.706   0.047  0.00  0.00    -0.073 S 
BRANCH  23  24
ATOM     24  C   UNL     1      -4.970   5.347   0.053  0.00  0.00    +0.137 C 
ATOM     25  C   UNL     1      -5.343   4.642   1.359  0.00  0.00    +0.029 C 
BRANCH  24  26
ATOM     26  C   UNL     1      -5.744   6.635  -0.061  0.00  0.00    +0.233 C 
ATOM     27  O   UNL     1      -5.213   7.688   0.221  0.00  0.00    -0.274 OA
ATOM     28  N   UNL     1      -7.026   6.617  -0.477  0.00  0.00    -0.239 N 
ATOM     29  C   UNL     1      -7.718   7.769  -0.579  0.00  0.00    +0.303 C 
ATOM     30  O   UNL     1      -7.186   8.824  -0.296  0.00  0.00    -0.253 OA
ATOM     31  N   UNL     1      -9.000   7.750  -0.994  0.00  0.00    -0.313 N 
ATOM     32  H   UNL     1      -7.507   5.661  -0.733  0.00  0.00    +0.159 HD
ATOM     33  H   UNL     1      -9.564   8.691  -1.077  0.00  0.00    +0.146 HD
ATOM     34  H   UNL     1      -9.481   6.795  -1.250  0.00  0.00    +0.146 HD
ENDBRANCH  24  26
ENDBRANCH  23  24
ENDBRANCH   5  23
TORSDOF 5
