REMARK  Name = ZINC64136947
REMARK  3 active torsions:
REMARK  status: ('A' for Active; 'I' for Inactive)
REMARK    1  A    between atoms: C_2  and  C_3
REMARK    2  A    between atoms: C_3  and  N_4
REMARK    3  A    between atoms: C_7  and  C_13
REMARK                            x       y       z     vdW  Elec       q    Type
REMARK                         _______ _______ _______ _____ _____    ______ ____
ROOT
ATOM      1  C   UNL     1      -2.400  -1.751  -4.727  0.00  0.00    +0.121 C 
ATOM      2  C   UNL     1      -3.895  -1.453  -4.588  0.00  0.00    +0.128 C 
ATOM      3  C   UNL     1      -4.339  -0.864  -5.921  0.00  0.00    -0.035 C 
ATOM      4  C   UNL     1      -5.365  -1.596  -6.332  0.00  0.00    -0.001 A 
ATOM      5  C   UNL     1      -6.260  -1.467  -7.494  0.00  0.00    +0.010 A 
ATOM      6  C   UNL     1      -7.218  -2.422  -7.621  0.00  0.00    +0.001 A 
ATOM      7  C   UNL     1      -7.375  -3.480  -6.719  0.00  0.00    +0.002 A 
ATOM      8  C   UNL     1      -6.602  -3.672  -5.621  0.00  0.00    +0.026 A 
ATOM      9  C   UNL     1      -5.561  -2.729  -5.377  0.00  0.00    +0.043 A 
ATOM     10  N   UNL     1      -4.693  -2.662  -4.386  0.00  0.00    -0.376 N 
ATOM     11  C   UNL     1      -3.589   0.273  -6.574  0.00  0.00    +0.048 C 
ATOM     12  C   UNL     1      -2.099  -0.115  -6.530  0.00  0.00    +0.086 C 
ATOM     13  N   UNL     1      -1.723  -0.523  -5.174  0.00  0.00    -0.307 NA
ATOM     14  H   UNL     1      -1.868   0.229  -4.517  0.00  0.00    +0.123 HD
ATOM     15  H   UNL     1      -4.592  -3.294  -3.658  0.00  0.00    +0.160 HD
ENDROOT
BRANCH   1  19
ATOM     16  N   UNL     1      -1.318  -1.700  -1.126  0.00  0.00    -0.257 N 
ATOM     17  C   UNL     1      -1.821  -1.293  -2.308  0.00  0.00    +0.265 A 
ATOM     18  O   UNL     1      -2.254  -0.161  -2.434  0.00  0.00    -0.267 OA
ATOM     19  C   UNL     1      -1.842  -2.184  -3.396  0.00  0.00    +0.100 A 
ATOM     20  C   UNL     1      -1.351  -3.445  -3.230  0.00  0.00    +0.263 A 
ATOM     21  N   UNL     1      -0.848  -3.817  -2.009  0.00  0.00    -0.274 N 
ATOM     22  C   UNL     1      -0.833  -2.947  -0.983  0.00  0.00    +0.332 A 
ATOM     23  O   UNL     1      -0.379  -3.293   0.090  0.00  0.00    -0.246 OA
ATOM     24  O   UNL     1      -1.360  -4.319  -4.258  0.00  0.00    -0.267 OA
ATOM     25  H   UNL     1      -0.498  -4.714  -1.885  0.00  0.00    +0.173 HD
BRANCH  16  26
ATOM     26  C   UNL     1      -1.293  -0.775   0.010  0.00  0.00    +0.156 C 
BRANCH  26  28
ATOM     27  C   UNL     1      -0.016   1.306   0.009  0.00  0.00    +0.005 C 
ATOM     28  C   UNL     1       0.002  -0.004   0.002  0.00  0.00    -0.013 C 
ENDBRANCH  26  28
ENDBRANCH  16  26
ENDBRANCH   1  19
TORSDOF 3
