REMARK  Name = ZINC37193574
REMARK  6 active torsions:
REMARK  status: ('A' for Active; 'I' for Inactive)
REMARK    1  A    between atoms: C_1  and  C_2
REMARK    2  A    between atoms: C_4  and  N_22
REMARK    3  A    between atoms: C_7  and  S_8
REMARK    4  A    between atoms: S_8  and  C_9
REMARK    5  A    between atoms: C_9  and  C_10
REMARK    6  A    between atoms: C_16  and  C_19
REMARK                            x       y       z     vdW  Elec       q    Type
REMARK                         _______ _______ _______ _____ _____    ______ ____
ROOT
ATOM      1  C   UNL     1       0.061  -0.526   5.359  0.00  0.00    +0.226 C 
ATOM      2  O   UNL     1       0.046   0.680   5.481  0.00  0.00    -0.275 OA
ATOM      3  N   UNL     1       0.082  -1.314   6.452  0.00  0.00    -0.300 N 
ATOM      4  C   UNL     1       0.106  -2.777   6.320  0.00  0.00    +0.108 C 
ATOM      5  C   UNL     1      -1.046  -3.366   7.141  0.00  0.00    +0.020 C 
ATOM      6  C   UNL     1      -0.947  -2.863   8.583  0.00  0.00    +0.016 C 
ATOM      7  C   UNL     1      -1.070  -1.338   8.603  0.00  0.00    +0.092 C 
ATOM      8  C   UNL     1       0.087  -0.727   7.799  0.00  0.00    +0.120 C 
ENDROOT
BRANCH   7   9
ATOM      9  C   UNL     1      -1.006  -0.847  10.027  0.00  0.00    +0.215 C 
ATOM     10  O   UNL     1      -0.876  -1.639  10.936  0.00  0.00    -0.276 OA
ATOM     11  N   UNL     1      -1.094   0.472  10.289  0.00  0.00    -0.329 N 
ATOM     12  H   UNL     1      -1.199   1.105   9.562  0.00  0.00    +0.145 HD
ATOM     13  H   UNL     1      -1.053   0.788  11.205  0.00  0.00    +0.145 HD
ENDBRANCH   7   9
BRANCH   1  14
ATOM     14  C   UNL     1       0.056  -1.144   3.985  0.00  0.00    +0.170 C 
BRANCH  14  15
ATOM     15  S   UNL     1       0.026   0.168   2.732  0.00  0.00    -0.116 S 
BRANCH  15  22
ATOM     16  C   UNL     1      -0.018   1.503   0.010  0.00  0.00    +0.045 C 
ATOM     17  C   UNL     1       0.002  -0.004   0.002  0.00  0.00    -0.035 A 
ATOM     18  C   UNL     1       0.006  -0.688  -1.198  0.00  0.00    +0.027 A 
ATOM     19  C   UNL     1       0.024  -2.076  -1.205  0.00  0.00    +0.025 A 
ATOM     20  C   UNL     1       0.039  -2.778  -0.006  0.00  0.00    +0.024 A 
ATOM     21  C   UNL     1       0.035  -2.094   1.193  0.00  0.00    +0.017 A 
ATOM     22  C   UNL     1       0.023  -0.705   1.201  0.00  0.00    +0.011 A 
BRANCH  19  23
ATOM     23  N   UNL     1       0.027  -2.770  -2.422  0.00  0.00    -0.358 N 
ATOM     24  H   UNL     1       0.017  -2.280  -3.259  0.00  0.00    +0.142 HD
ATOM     25  H   UNL     1       0.040  -3.740  -2.427  0.00  0.00    +0.142 HD
ENDBRANCH  19  23
ENDBRANCH  15  22
ENDBRANCH  14  15
ENDBRANCH   1  14
TORSDOF 5
