REMARK  Name = ZINC44531836
REMARK  8 active torsions:
REMARK  status: ('A' for Active; 'I' for Inactive)
REMARK    1  A    between atoms: C_1  and  C_2
REMARK    2  A    between atoms: C_2  and  C_3
REMARK    3  A    between atoms: C_2  and  N_4
REMARK    4  A    between atoms: N_4  and  S_5
REMARK    5  A    between atoms: S_5  and  C_8
REMARK    6  A    between atoms: C_13  and  N_14
REMARK    7  A    between atoms: C_18  and  C_21
REMARK    8  A    between atoms: C_21  and  N_22
REMARK                            x       y       z     vdW  Elec       q    Type
REMARK                         _______ _______ _______ _____ _____    ______ ____
ROOT
ATOM      1  C   UNL     1      -0.560  -3.069  -0.054  0.00  0.00    +0.126 A 
ATOM      2  C   UNL     1      -1.091  -4.104   0.691  0.00  0.00    +0.030 A 
ATOM      3  C   UNL     1      -0.271  -5.120   1.147  0.00  0.00    +0.002 A 
ATOM      4  C   UNL     1       1.082  -5.104   0.860  0.00  0.00    +0.002 A 
ATOM      5  C   UNL     1       1.618  -4.072   0.115  0.00  0.00    +0.025 A 
ATOM      6  C   UNL     1       0.797  -3.053  -0.350  0.00  0.00    +0.056 A 
ENDROOT
BRANCH   6   7
ATOM      7  N   UNL     1       1.336  -2.010  -1.108  0.00  0.00    -0.328 N 
ATOM      8  C   UNL     1       1.844  -0.795  -0.456  0.00  0.00    +0.105 C 
ATOM      9  C   UNL     1       3.282  -0.549  -0.923  0.00  0.00    +0.019 C 
ATOM     10  C   UNL     1       3.316  -0.503  -2.452  0.00  0.00    +0.005 C 
ATOM     11  C   UNL     1       2.849  -1.847  -3.015  0.00  0.00    -0.011 C 
ATOM     12  C   UNL     1       1.411  -2.110  -2.571  0.00  0.00    +0.106 C 
BRANCH  11  13
ATOM     13  C   UNL     1       2.916  -1.811  -4.543  0.00  0.00    -0.081 C 
BRANCH  13  14
ATOM     14  N   UNL     1       4.315  -1.678  -4.969  0.00  0.00    +0.378 N 
ATOM     15  H   UNL     1       4.359  -1.654  -5.977  0.00  0.00    -0.090 HD
ATOM     16  H   UNL     1       4.700  -0.823  -4.596  0.00  0.00    -0.090 HD
ATOM     17  H   UNL     1       4.847  -2.464  -4.628  0.00  0.00    -0.090 HD
ENDBRANCH  13  14
ENDBRANCH  11  13
ENDBRANCH   6   7
BRANCH   1  18
ATOM     18  S   UNL     1      -1.605  -1.775  -0.635  0.00  0.00    +0.060 S 
ATOM     19  O   UNL     1      -0.945  -0.553  -0.333  0.00  0.00    -0.153 OA
ATOM     20  O   UNL     1      -2.914  -2.069  -0.168  0.00  0.00    -0.153 OA
BRANCH  18  21
ATOM     21  N   UNL     1      -1.655  -1.890  -2.287  0.00  0.00    -0.187 NA
ATOM     22  H   UNL     1      -1.263  -1.190  -2.833  0.00  0.00    +0.148 HD
BRANCH  21  24
ATOM     23  C   UNL     1      -3.000  -2.601  -4.201  0.00  0.00    +0.025 C 
ATOM     24  C   UNL     1      -2.290  -3.047  -2.922  0.00  0.00    +0.070 C 
ATOM     25  C   UNL     1      -1.223  -4.088  -3.267  0.00  0.00    +0.025 C 
ENDBRANCH  21  24
ENDBRANCH  18  21
ENDBRANCH   1  18
TORSDOF 6
