REMARK  Name = ZINC20900967
REMARK  7 active torsions:
REMARK  status: ('A' for Active; 'I' for Inactive)
REMARK    1  A    between atoms: C_1  and  C_2
REMARK    2  A    between atoms: C_3  and  C_22
REMARK    3  A    between atoms: N_9  and  C_10
REMARK    4  A    between atoms: C_10  and  C_11
REMARK    5  A    between atoms: C_11  and  C_12
REMARK    6  A    between atoms: C_15  and  S_18
REMARK    7  A    between atoms: S_18  and  N_21
REMARK                            x       y       z     vdW  Elec       q    Type
REMARK                         _______ _______ _______ _____ _____    ______ ____
ROOT
ATOM      1  C   UNL     1       1.108   8.527   1.431  0.00  0.00    +0.049 C 
ATOM      2  C   UNL     1       1.125   7.693   2.687  0.00  0.00    +0.018 C 
ATOM      3  C   UNL     1       1.124   8.240   3.925  0.00  0.00    +0.126 C 
ATOM      4  S   UNL     1       1.154   6.796   4.967  0.00  0.00    +0.101 S 
ATOM      5  O   UNL     1      -0.090   6.728   5.649  0.00  0.00    -0.146 OA
ATOM      6  O   UNL     1       2.413   6.763   5.625  0.00  0.00    -0.146 OA
ATOM      7  N   UNL     1       1.159   5.600   3.795  0.00  0.00    -0.113 NA
ATOM      8  C   UNL     1       1.139   6.244   2.662  0.00  0.00    +0.145 C 
ATOM      9  N   UNL     1       1.137   5.560   1.463  0.00  0.00    -0.327 N 
ATOM     10  H   UNL     1       1.121   6.115   0.513  0.00  0.00    +0.148 HD
ENDROOT
BRANCH   3  11
ATOM     11  C   UNL     1       1.109   9.661   4.310  0.00  0.00    +0.002 A 
ATOM     12  C   UNL     1       1.092  10.655   3.327  0.00  0.00    +0.011 A 
ATOM     13  C   UNL     1       1.072  11.984   3.696  0.00  0.00    +0.020 A 
ATOM     14  C   UNL     1       1.080  12.335   5.036  0.00  0.00    +0.041 A 
ATOM     15  C   UNL     1       1.102  11.355   6.015  0.00  0.00    +0.020 A 
ATOM     16  C   UNL     1       1.116  10.022   5.661  0.00  0.00    +0.011 A 
ATOM     17 CL   UNL     1       1.063  14.010   5.490  0.00  0.00    -0.084 Cl
ENDBRANCH   3  11
BRANCH   9  18
ATOM     18  C   UNL     1       1.157   4.095   1.455  0.00  0.00    +0.107 C 
BRANCH  18  19
ATOM     19  C   UNL     1       1.151   3.592   0.010  0.00  0.00    +0.054 C 
BRANCH  19  20
ATOM     20  C   UNL     1       1.171   2.086   0.002  0.00  0.00    -0.046 A 
ATOM     21  C   UNL     1      -0.017   1.378   0.010  0.00  0.00    +0.005 A 
ATOM     22  C   UNL     1       0.002  -0.004   0.002  0.00  0.00    +0.029 A 
ATOM     23  C   UNL     1       1.208  -0.679  -0.013  0.00  0.00    +0.105 A 
ATOM     24  C   UNL     1       2.396   0.029  -0.021  0.00  0.00    +0.029 A 
ATOM     25  C   UNL     1       2.377   1.411  -0.015  0.00  0.00    +0.005 A 
BRANCH  23  26
ATOM     26  S   UNL     1       1.232  -2.441  -0.022  0.00  0.00    +0.056 S 
ATOM     27  O   UNL     1       2.489  -2.832   0.515  0.00  0.00    -0.153 OA
ATOM     28  O   UNL     1      -0.002  -2.866   0.539  0.00  0.00    -0.153 OA
BRANCH  26  29
ATOM     29  N   UNL     1       1.223  -2.923  -1.606  0.00  0.00    -0.204 NA
ATOM     30  H   UNL     1       1.238  -4.022  -1.655  0.00  0.00    +0.144 HD
ATOM     31  H   UNL     1       2.111  -2.521  -2.116  0.00  0.00    +0.144 HD
ENDBRANCH  26  29
ENDBRANCH  23  26
ENDBRANCH  19  20
ENDBRANCH  18  19
ENDBRANCH   9  18
TORSDOF 6
