REMARK  Name = ZINC37692616
REMARK  6 active torsions:
REMARK  status: ('A' for Active; 'I' for Inactive)
REMARK    1  A    between atoms: C_1  and  C_2
REMARK    2  A    between atoms: C_3  and  C_20
REMARK    3  A    between atoms: C_4  and  S_9
REMARK    4  A    between atoms: C_6  and  C_8
REMARK    5  A    between atoms: S_9  and  C_10
REMARK    6  A    between atoms: C_17  and  O_19
REMARK                            x       y       z     vdW  Elec       q    Type
REMARK                         _______ _______ _______ _____ _____    ______ ____
ROOT
ATOM      1  C   UNL     1       0.346   1.484  -0.036  0.00  0.00    +0.066 C 
ATOM      2  C   UNL     1       0.175  -0.013  -0.020  0.00  0.00    +0.057 A 
ATOM      3  C   UNL     1      -0.099  -0.709  -1.203  0.00  0.00    +0.116 A 
ATOM      4  C   UNL     1      -0.249  -2.112  -1.125  0.00  0.00    +0.115 A 
ATOM      5  N   UNL     1      -0.123  -2.704   0.060  0.00  0.00    -0.225 NA
ATOM      6  C   UNL     1       0.136  -2.000   1.141  0.00  0.00    +0.128 A 
ATOM      7  N   UNL     1       0.288  -0.689   1.110  0.00  0.00    -0.237 NA
ATOM      8  C   UNL     1       0.269  -2.716   2.461  0.00  0.00    +0.088 C 
ENDROOT
BRANCH   3   9
ATOM      9  C   UNL     1      -0.228  -0.003  -2.485  0.00  0.00    +0.391 C 
ATOM     10  O   UNL     1       0.766   0.225  -3.161  0.00  0.00    -0.240 OA
ATOM     11  O   UNL     1      -1.330   0.356  -2.878  0.00  0.00    -0.240 OA
ENDBRANCH   3   9
BRANCH   4  12
ATOM     12  S   UNL     1      -0.596  -3.060  -2.570  0.00  0.00    -0.097 S 
BRANCH  12  13
ATOM     13  C   UNL     1      -0.693  -4.766  -1.963  0.00  0.00    +0.104 C 
ATOM     14  C   UNL     1       0.690  -5.171  -1.405  0.00  0.00    +0.183 C 
ATOM     15  S   UNL     1       0.778  -6.943  -1.913  0.00  0.00    -0.027 S 
ATOM     16  O   UNL     1       0.064  -7.737  -0.976  0.00  0.00    -0.174 OA
ATOM     17  O   UNL     1       2.122  -7.273  -2.237  0.00  0.00    -0.174 OA
ATOM     18  C   UNL     1      -0.208  -6.793  -3.466  0.00  0.00    +0.198 C 
ATOM     19  C   UNL     1      -1.181  -5.657  -3.095  0.00  0.00    +0.150 C 
BRANCH  19  20
ATOM     20  O   UNL     1      -2.430  -6.238  -2.712  0.00  0.00    -0.389 OA
ATOM     21  H   UNL     1      -2.812  -6.823  -3.380  0.00  0.00    +0.210 HD
ENDBRANCH  19  20
ENDBRANCH  12  13
ENDBRANCH   4  12
TORSDOF 4
