REMARK  Name = ZINC67306627
REMARK  8 active torsions:
REMARK  status: ('A' for Active; 'I' for Inactive)
REMARK    1  A    between atoms: C_1  and  C_2
REMARK    2  A    between atoms: C_3  and  C_9
REMARK    3  A    between atoms: C_4  and  C_8
REMARK    4  A    between atoms: N_5  and  C_7
REMARK    5  A    between atoms: C_9  and  C_11
REMARK    6  A    between atoms: C_9  and  N_12
REMARK    7  A    between atoms: C_13  and  C_15
REMARK    8  A    between atoms: C_15  and  N_16
REMARK                            x       y       z     vdW  Elec       q    Type
REMARK                         _______ _______ _______ _____ _____    ______ ____
ROOT
ATOM      1  N   UNL     1       2.917   2.195  -5.498  0.00  0.00    -0.215 N 
ATOM      2  C   UNL     1       3.977   1.524  -5.996  0.00  0.00    +0.251 C 
ATOM      3  O   UNL     1       4.723   0.778  -5.398  0.00  0.00    -0.272 OA
ATOM      4  C   UNL     1       4.034   1.898  -7.455  0.00  0.00    +0.138 C 
ATOM      5  C   UNL     1       3.904   0.660  -8.351  0.00  0.00    +0.045 C 
ATOM      6  C   UNL     1       5.382   0.321  -8.653  0.00  0.00    +0.038 C 
ATOM      7  C   UNL     1       6.129   1.630  -8.505  0.00  0.00    -0.042 A 
ATOM      8  C   UNL     1       5.348   2.539  -7.811  0.00  0.00    -0.012 A 
ATOM      9  C   UNL     1       5.836   3.811  -7.559  0.00  0.00    +0.006 A 
ATOM     10  C   UNL     1       7.095   4.173  -7.996  0.00  0.00    +0.000 A 
ATOM     11  C   UNL     1       7.874   3.265  -8.688  0.00  0.00    +0.000 A 
ATOM     12  C   UNL     1       7.390   1.996  -8.942  0.00  0.00    +0.004 A 
ATOM     13  N   UNL     1       2.911   2.816  -7.644  0.00  0.00    -0.281 N 
ATOM     14  C   UNL     1       2.309   2.926  -6.442  0.00  0.00    +0.310 C 
ATOM     15  O   UNL     1       1.327   3.613  -6.238  0.00  0.00    -0.252 OA
ATOM     16  H   UNL     1       2.649   3.254  -8.469  0.00  0.00    +0.152 HD
ENDROOT
BRANCH   1  17
ATOM     17  C   UNL     1       2.482   2.129  -4.101  0.00  0.00    +0.213 C 
BRANCH  17  19
ATOM     18  N   UNL     1       0.955   0.751  -2.726  0.00  0.00    -0.307 N 
ATOM     19  C   UNL     1       1.494   1.003  -3.936  0.00  0.00    +0.231 C 
ATOM     20  O   UNL     1       1.183   0.323  -4.891  0.00  0.00    -0.274 OA
ATOM     21  H   UNL     1       1.203   1.295  -1.962  0.00  0.00    +0.149 HD
BRANCH  18  22
ATOM     22  C   UNL     1      -0.006  -0.343  -2.566  0.00  0.00    +0.104 C 
ATOM     23  C   UNL     1      -1.408   0.152  -2.925  0.00  0.00    +0.033 C 
BRANCH  22  26
ATOM     24  C   UNL     1      -0.018   1.503   0.010  0.00  0.00    +0.068 C 
ATOM     25  C   UNL     1       0.002  -0.004   0.002  0.00  0.00    +0.065 A 
ATOM     26  C   UNL     1       0.008  -0.818  -1.135  0.00  0.00    +0.016 A 
ATOM     27  C   UNL     1       0.028  -2.107  -0.725  0.00  0.00    +0.041 A 
ATOM     28  N   UNL     1       0.034  -2.109   0.625  0.00  0.00    -0.271 N 
ATOM     29  N   UNL     1       0.023  -0.777   1.058  0.00  0.00    -0.176 NA
ATOM     30  C   UNL     1       0.055  -3.295   1.485  0.00  0.00    +0.172 C 
ATOM     31  C   UNL     1       0.040  -3.323  -1.615  0.00  0.00    +0.065 C 
ENDBRANCH  22  26
ENDBRANCH  18  22
ENDBRANCH  17  19
ENDBRANCH   1  17
TORSDOF 4
