REMARK  Name = ZINC54414972
REMARK  7 active torsions:
REMARK  status: ('A' for Active; 'I' for Inactive)
REMARK    1  A    between atoms: C_1  and  C_2
REMARK    2  A    between atoms: C_2  and  C_4
REMARK    3  A    between atoms: C_2  and  N_9
REMARK    4  A    between atoms: N_9  and  C_10
REMARK    5  A    between atoms: C_11  and  C_13
REMARK    6  A    between atoms: C_16  and  N_20
REMARK    7  A    between atoms: C_17  and  N_19
REMARK                            x       y       z     vdW  Elec       q    Type
REMARK                         _______ _______ _______ _____ _____    ______ ____
ROOT
ATOM      1  C   UNL     1      -3.002  -1.974   1.107  0.00  0.00    +0.039 A 
ATOM      2  C   UNL     1      -3.649  -2.425  -0.045  0.00  0.00    +0.015 A 
ATOM      3  C   UNL     1      -4.885  -3.030   0.050  0.00  0.00    +0.035 A 
ATOM      4  C   UNL     1      -5.487  -3.193   1.284  0.00  0.00    +0.147 A 
ATOM      5  C   UNL     1      -4.851  -2.748   2.437  0.00  0.00    +0.056 A 
ATOM      6  C   UNL     1      -3.606  -2.143   2.352  0.00  0.00    +0.038 A 
ENDROOT
BRANCH   1   9
ATOM      7  N   UNL     1      -1.388  -0.543  -0.052  0.00  0.00    -0.293 N 
ATOM      8  C   UNL     1      -2.426  -0.229  -1.036  0.00  0.00    +0.133 C 
ATOM      9  C   UNL     1      -1.677  -1.324   1.007  0.00  0.00    +0.247 C 
ATOM     10  O   UNL     1      -0.849  -1.495   1.881  0.00  0.00    -0.270 OA
BRANCH   7  12
ATOM     11  C   UNL     1      -0.087   1.521  -0.226  0.00  0.00    +0.034 C 
ATOM     12  C   UNL     1      -0.034  -0.008  -0.220  0.00  0.00    +0.110 C 
BRANCH  12  13
ATOM     13  C   UNL     1       0.541  -0.496  -1.525  0.00  0.00    +0.010 A 
ATOM     14  C   UNL     1       1.800  -0.915  -1.799  0.00  0.00    +0.013 A 
ATOM     15  C   UNL     1       2.106  -1.324  -3.083  0.00  0.00    +0.008 A 
ATOM     16  C   UNL     1       1.138  -1.293  -4.031  0.00  0.00    +0.045 A 
ATOM     17  S   UNL     1      -0.262  -0.678  -3.109  0.00  0.00    -0.100 S 
ENDBRANCH  12  13
ENDBRANCH   7  12
ENDBRANCH   1   9
BRANCH   5  18
ATOM     18  N   UNL     1      -5.463  -2.915   3.681  0.00  0.00    -0.356 N 
ATOM     19  H   UNL     1      -6.296  -3.408   3.750  0.00  0.00    +0.142 HD
ATOM     20  H   UNL     1      -5.056  -2.537   4.477  0.00  0.00    +0.142 HD
ENDBRANCH   5  18
BRANCH   4  21
ATOM     21  N   UNL     1      -6.813  -3.844   1.378  0.00  0.00    +0.058 N 
ATOM     22  O   UNL     1      -7.166  -4.623   0.523  0.00  0.00    -0.126 OA
ATOM     23  O   UNL     1      -7.544  -3.596   2.308  0.00  0.00    -0.126 OA
ENDBRANCH   4  21
TORSDOF 5
