REMARK  Name = ZINC58950590
REMARK  8 active torsions:
REMARK  status: ('A' for Active; 'I' for Inactive)
REMARK    1  A    between atoms: C_1  and  C_2
REMARK    2  A    between atoms: C_9  and  N_25
REMARK    3  A    between atoms: C_10  and  C_21
REMARK    4  A    between atoms: C_11  and  C_13
REMARK    5  A    between atoms: C_16  and  S_19
REMARK    6  A    between atoms: S_19  and  C_20
REMARK    7  A    between atoms: C_21  and  O_23
REMARK    8  A    between atoms: O_23  and  C_24
REMARK                            x       y       z     vdW  Elec       q    Type
REMARK                         _______ _______ _______ _____ _____    ______ ____
ROOT
ATOM      1  C   UNL     1       0.339   1.427   0.103  0.00  0.00    +0.068 C 
ATOM      2  C   UNL     1       0.197  -0.072   0.052  0.00  0.00    +0.068 A 
ATOM      3  C   UNL     1       0.115  -0.845  -1.099  0.00  0.00    +0.049 A 
ATOM      4  C   UNL     1      -0.005  -2.154  -0.723  0.00  0.00    +0.222 A 
ATOM      5  N   UNL     1      -0.001  -2.192   0.620  0.00  0.00    -0.246 N 
ATOM      6  H   UNL     1      -0.073  -2.989   1.168  0.00  0.00    +0.192 HD
ATOM      7  N   UNL     1       0.134  -0.876   1.087  0.00  0.00    -0.176 NA
ATOM      8  O   UNL     1      -0.105  -3.167  -1.618  0.00  0.00    -0.424 OA
ATOM      9  C   UNL     1       0.192  -2.896  -2.904  0.00  0.00    +0.197 C 
ATOM     10  C   UNL     1       0.324  -1.642  -3.398  0.00  0.00    +0.105 C 
ATOM     11  C   UNL     1       0.144  -0.413  -2.542  0.00  0.00    +0.098 C 
ENDROOT
BRANCH  11  12
ATOM     12  C   UNL     1      -1.153   0.268  -2.895  0.00  0.00    -0.035 A 
ATOM     13  C   UNL     1      -2.347  -0.418  -2.774  0.00  0.00    +0.005 A 
ATOM     14  C   UNL     1      -3.538   0.202  -3.098  0.00  0.00    +0.015 A 
ATOM     15  C   UNL     1      -3.535   1.518  -3.545  0.00  0.00    +0.008 A 
ATOM     16  C   UNL     1      -2.333   2.204  -3.664  0.00  0.00    +0.015 A 
ATOM     17  C   UNL     1      -1.146   1.579  -3.334  0.00  0.00    +0.005 A 
BRANCH  15  18
ATOM     18  S   UNL     1      -5.051   2.313  -3.959  0.00  0.00    -0.129 S 
ATOM     19  C   UNL     1      -4.547   3.977  -4.476  0.00  0.00    +0.090 C 
ENDBRANCH  15  18
ENDBRANCH  11  12
BRANCH   9  20
ATOM     20  N   UNL     1       0.370  -3.949  -3.761  0.00  0.00    -0.329 N 
ATOM     21  H   UNL     1       0.364  -4.857  -3.421  0.00  0.00    +0.145 HD
ATOM     22  H   UNL     1       0.502  -3.787  -4.708  0.00  0.00    +0.145 HD
ENDBRANCH   9  20
BRANCH  10  23
ATOM     23  C   UNL     1       0.640  -1.480  -4.755  0.00  0.00    +0.341 C 
ATOM     24  O   UNL     1       1.784  -1.224  -5.088  0.00  0.00    -0.245 OA
BRANCH  23  25
ATOM     25  O   UNL     1      -0.324  -1.607  -5.692  0.00  0.00    -0.465 OA
ATOM     26  C   UNL     1       0.069  -1.429  -7.055  0.00  0.00    +0.280 C 
ENDBRANCH  23  25
ENDBRANCH  10  23
TORSDOF 5
