REMARK  Name = ZINC52813674
REMARK  5 active torsions:
REMARK  status: ('A' for Active; 'I' for Inactive)
REMARK    1  A    between atoms: C_1  and  C_2
REMARK    2  A    between atoms: C_4  and  N_18
REMARK    3  A    between atoms: C_7  and  O_8
REMARK    4  A    between atoms: O_8  and  C_9
REMARK    5  A    between atoms: C_14  and  C_15
REMARK                            x       y       z     vdW  Elec       q    Type
REMARK                         _______ _______ _______ _____ _____    ______ ____
ROOT
ATOM      1  O   UNL     1       0.026  -0.041   2.375  0.00  0.00    -0.437 OA
ENDROOT
BRANCH   1   8
ATOM      2  C   UNL     1      -0.022   1.492   0.004  0.00  0.00    +0.049 C 
ATOM      3  C   UNL     1       0.070  -0.012   0.002  0.00  0.00    +0.013 A 
ATOM      4  C   UNL     1       0.142  -0.708  -1.192  0.00  0.00    +0.032 A 
ATOM      5  C   UNL     1       0.226  -2.098  -1.145  0.00  0.00    +0.043 A 
ATOM      6  C   UNL     1       0.235  -2.733   0.089  0.00  0.00    +0.137 A 
ATOM      7  N   UNL     1       0.164  -2.036   1.206  0.00  0.00    -0.219 NA
ATOM      8  C   UNL     1       0.090  -0.716   1.199  0.00  0.00    +0.224 A 
BRANCH   5   9
ATOM      9  N   UNL     1       0.300  -2.844  -2.327  0.00  0.00    -0.357 N 
ATOM     10  H   UNL     1       0.293  -2.393  -3.186  0.00  0.00    +0.142 HD
ATOM     11  H   UNL     1       0.358  -3.811  -2.287  0.00  0.00    +0.142 HD
ENDBRANCH   5   9
ENDBRANCH   1   8
BRANCH   1  12
ATOM     12  C   UNL     1      -0.058  -0.763   3.520  0.00  0.00    +0.142 A 
ATOM     13  C   UNL     1      -1.298  -1.060   4.068  0.00  0.00    +0.047 A 
ATOM     14  C   UNL     1      -1.381  -1.795   5.233  0.00  0.00    +0.004 A 
ATOM     15  C   UNL     1      -0.232  -2.243   5.864  0.00  0.00    +0.001 A 
ATOM     16  C   UNL     1       1.008  -1.958   5.334  0.00  0.00    +0.017 A 
ATOM     17  C   UNL     1       1.107  -1.219   4.152  0.00  0.00    +0.079 A 
BRANCH  17  18
ATOM     18  C   UNL     1       2.431  -0.915   3.576  0.00  0.00    +0.245 C 
ATOM     19  O   UNL     1       2.513  -0.268   2.550  0.00  0.00    -0.270 OA
ATOM     20  N   UNL     1       3.549  -1.355   4.186  0.00  0.00    -0.325 N 
ATOM     21  H   UNL     1       3.483  -1.872   5.005  0.00  0.00    +0.145 HD
ATOM     22  H   UNL     1       4.419  -1.156   3.808  0.00  0.00    +0.145 HD
ENDBRANCH  17  18
ENDBRANCH   1  12
TORSDOF 4
