REMARK  Name = ZINC51117974
REMARK  6 active torsions:
REMARK  status: ('A' for Active; 'I' for Inactive)
REMARK    1  A    between atoms: C_1  and  C_2
REMARK    2  A    between atoms: C_2  and  C_4
REMARK    3  A    between atoms: C_2  and  N_11
REMARK    4  A    between atoms: C_12  and  C_14
REMARK    5  A    between atoms: C_19  and  N_20
REMARK    6  A    between atoms: N_20  and  N_21
REMARK                            x       y       z     vdW  Elec       q    Type
REMARK                         _______ _______ _______ _____ _____    ______ ____
ROOT
ATOM      1  N   UNL     1      -1.391  -0.464   0.020  0.00  0.00    -0.305 N 
ATOM      2  C   UNL     1      -2.058  -0.622  -1.141  0.00  0.00    +0.248 C 
ATOM      3  O   UNL     1      -1.523  -0.335  -2.194  0.00  0.00    -0.270 OA
ATOM      4  H   UNL     1      -1.818  -0.692   0.860  0.00  0.00    +0.150 HD
ENDROOT
BRANCH   2   5
ATOM      5  C   UNL     1      -3.438  -1.143  -1.132  0.00  0.00    +0.079 A 
ATOM      6  C   UNL     1      -4.022  -1.593   0.058  0.00  0.00    +0.033 A 
ATOM      7  C   UNL     1      -5.320  -2.072   0.012  0.00  0.00    +0.037 A 
ATOM      8  C   UNL     1      -5.997  -2.093  -1.196  0.00  0.00    +0.128 A 
ATOM      9  N   UNL     1      -5.428  -1.665  -2.305  0.00  0.00    -0.237 NA
ATOM     10  C   UNL     1      -4.191  -1.192  -2.317  0.00  0.00    +0.144 A 
ATOM     11 BR   UNL     1      -6.162  -2.693   1.587  0.00  0.00    -0.049 Br
BRANCH  10  12
ATOM     12  N   UNL     1      -3.636  -0.748  -3.504  0.00  0.00    -0.267 N 
ATOM     13  H   UNL     1      -2.704  -0.480  -3.533  0.00  0.00    +0.167 HD
BRANCH  12  14
ATOM     14  N   UNL     1      -4.400  -0.688  -4.635  0.00  0.00    -0.255 NA
ATOM     15  H   UNL     1      -5.221  -0.121  -4.487  0.00  0.00    +0.140 HD
ATOM     16  H   UNL     1      -3.861  -0.347  -5.417  0.00  0.00    +0.140 HD
ENDBRANCH  12  14
ENDBRANCH  10  12
ENDBRANCH   2   5
BRANCH   1  18
ATOM     17  C   UNL     1      -0.053   1.584  -0.009  0.00  0.00    +0.033 C 
ATOM     18  C   UNL     1      -0.021   0.054   0.011  0.00  0.00    +0.100 C 
BRANCH  18  19
ATOM     19  C   UNL     1       0.702  -0.416   1.247  0.00  0.00    -0.027 A 
ATOM     20  C   UNL     1       0.041  -0.454   2.461  0.00  0.00    +0.006 A 
ATOM     21  C   UNL     1       0.703  -0.886   3.595  0.00  0.00    +0.015 A 
ATOM     22  C   UNL     1       2.026  -1.281   3.515  0.00  0.00    +0.018 A 
ATOM     23  C   UNL     1       2.687  -1.243   2.300  0.00  0.00    +0.015 A 
ATOM     24  C   UNL     1       2.023  -0.816   1.166  0.00  0.00    +0.006 A 
ATOM     25 BR   UNL     1       2.933  -1.871   5.066  0.00  0.00    -0.050 Br
ENDBRANCH  18  19
ENDBRANCH   1  18
TORSDOF 5
