REMARK  Name = ZINC39686110
REMARK  10 active torsions:
REMARK  status: ('A' for Active; 'I' for Inactive)
REMARK    1  A    between atoms: C_1  and  C_2
REMARK    2  A    between atoms: C_2  and  C_3
REMARK    3  A    between atoms: C_3  and  C_5
REMARK    4  A    between atoms: C_3  and  C_6
REMARK    5  A    between atoms: C_6  and  C_7
REMARK    6  A    between atoms: C_11  and  C_20
REMARK    7  A    between atoms: N_22  and  C_23
REMARK    8  A    between atoms: C_29  and  C_31
REMARK    9  A    between atoms: C_31  and  C_32
REMARK   10  A    between atoms: C_31  and  C_33
REMARK                            x       y       z     vdW  Elec       q    Type
REMARK                         _______ _______ _______ _____ _____    ______ ____
ROOT
ATOM      1  C   UNL     1      -5.822  -3.625  -0.428  0.00  0.00    +0.216 C 
ATOM      2  O   UNL     1      -6.935  -3.146  -0.371  0.00  0.00    -0.276 OA
ATOM      3  N   UNL     1      -5.639  -4.937  -0.180  0.00  0.00    -0.300 N 
ATOM      4  C   UNL     1      -4.366  -5.695  -0.194  0.00  0.00    +0.121 C 
ATOM      5  C   UNL     1      -4.479  -6.670   0.999  0.00  0.00    +0.100 C 
ATOM      6  C   UNL     1      -5.990  -6.833   1.232  0.00  0.00    -0.004 C 
ATOM      7  C   UNL     1      -6.665  -5.946   0.175  0.00  0.00    +0.115 C 
ATOM      8  C   UNL     1      -6.365  -6.354   2.631  0.00  0.00    -0.010 C 
ATOM      9  C   UNL     1      -7.862  -6.579   2.859  0.00  0.00    -0.082 C 
ATOM     10  N   UNL     1      -8.173  -8.005   2.709  0.00  0.00    +0.379 N 
ATOM     11  C   UNL     1      -7.896  -8.436   1.333  0.00  0.00    -0.082 C 
ATOM     12  C   UNL     1      -6.401  -8.290   1.040  0.00  0.00    -0.010 C 
ATOM     13  H   UNL     1      -7.604  -8.541   3.348  0.00  0.00    -0.086 HD
ATOM     14  H   UNL     1      -9.147  -8.160   2.919  0.00  0.00    -0.086 HD
ENDROOT
BRANCH   5  15
ATOM     15  C   UNL     1      -3.853  -7.996   0.654  0.00  0.00    +0.218 C 
ATOM     16  O   UNL     1      -3.773  -8.346  -0.504  0.00  0.00    -0.275 OA
ATOM     17  N   UNL     1      -3.381  -8.793   1.633  0.00  0.00    -0.312 N 
ATOM     18  H   UNL     1      -3.444  -8.513   2.560  0.00  0.00    +0.149 HD
BRANCH  17  19
ATOM     19  C   UNL     1      -2.772 -10.083   1.298  0.00  0.00    +0.076 C 
ATOM     20  C   UNL     1      -3.867 -11.144   1.161  0.00  0.00    +0.041 C 
ATOM     21  C   UNL     1      -3.230 -12.483   0.776  0.00  0.00    +0.109 C 
ATOM     22  N   UNL     1      -2.190 -12.812   1.761  0.00  0.00    -0.301 N 
ATOM     23  C   UNL     1      -1.139 -11.823   2.036  0.00  0.00    +0.109 C 
ATOM     24  C   UNL     1      -1.799 -10.492   2.407  0.00  0.00    +0.041 C 
ATOM     25  C   UNL     1      -2.201 -13.999   2.400  0.00  0.00    +0.218 C 
ATOM     26  O   UNL     1      -3.015 -14.844   2.095  0.00  0.00    -0.275 OA
BRANCH  25  27
ATOM     27  C   UNL     1      -1.202 -14.275   3.494  0.00  0.00    +0.069 C 
ATOM     28  C   UNL     1      -1.560 -15.588   4.192  0.00  0.00    +0.017 C 
ATOM     29  C   UNL     1       0.199 -14.384   2.889  0.00  0.00    +0.017 C 
ENDBRANCH  25  27
ENDBRANCH  17  19
ENDBRANCH   5  15
BRANCH   1  30
ATOM     30  C   UNL     1      -4.644  -2.752  -0.776  0.00  0.00    +0.099 C 
BRANCH  30  31
ATOM     31  C   UNL     1      -5.122  -1.317  -1.008  0.00  0.00    -0.006 C 
ATOM     32  C   UNL     1      -6.034  -1.276  -2.236  0.00  0.00    +0.008 C 
BRANCH  31  34
ATOM     33  C   UNL     1      -4.382   1.045  -1.346  0.00  0.00    +0.004 C 
ATOM     34  C   UNL     1      -3.914  -0.408  -1.238  0.00  0.00    +0.000 C 
ENDBRANCH  31  34
ENDBRANCH  30  31
ENDBRANCH   1  30
TORSDOF 6
