REMARK  Name = ZINC40316715
REMARK  7 active torsions:
REMARK  status: ('A' for Active; 'I' for Inactive)
REMARK    1  A    between atoms: C_1  and  C_2
REMARK    2  A    between atoms: C_2  and  C_4
REMARK    3  A    between atoms: C_2  and  N_11
REMARK    4  A    between atoms: N_11  and  S_12
REMARK    5  A    between atoms: S_12  and  C_15
REMARK    6  A    between atoms: C_18  and  O_22
REMARK    7  A    between atoms: C_19  and  N_21
REMARK                            x       y       z     vdW  Elec       q    Type
REMARK                         _______ _______ _______ _____ _____    ______ ____
ROOT
ATOM      1  S   UNL     1       2.322  -0.861   1.097  0.00  0.00    +0.059 S 
ATOM      2  O   UNL     1       2.719  -1.271   2.398  0.00  0.00    -0.153 OA
ATOM      3  O   UNL     1       2.483  -1.690  -0.045  0.00  0.00    -0.153 OA
ENDROOT
BRANCH   1   4
ATOM      4  C   UNL     1       3.183   0.638   0.757  0.00  0.00    +0.107 A 
ATOM      5  C   UNL     1       3.402   1.025  -0.552  0.00  0.00    +0.032 A 
ATOM      6  C   UNL     1       4.077   2.201  -0.826  0.00  0.00    +0.049 A 
ATOM      7  C   UNL     1       4.537   2.994   0.213  0.00  0.00    +0.137 A 
ATOM      8  C   UNL     1       4.317   2.604   1.532  0.00  0.00    +0.068 A 
ATOM      9  C   UNL     1       3.634   1.426   1.799  0.00  0.00    +0.055 A 
BRANCH   8  10
ATOM     10  N   UNL     1       4.779   3.401   2.586  0.00  0.00    -0.355 N 
ATOM     11  H   UNL     1       5.254   4.226   2.398  0.00  0.00    +0.142 HD
ATOM     12  H   UNL     1       4.625   3.128   3.504  0.00  0.00    +0.142 HD
ENDBRANCH   8  10
BRANCH   7  13
ATOM     13  O   UNL     1       5.202   4.150  -0.055  0.00  0.00    -0.505 OA
ATOM     14  H   UNL     1       4.628   4.925  -0.130  0.00  0.00    +0.292 HD
ENDBRANCH   7  13
ENDBRANCH   1   4
BRANCH   1  15
ATOM     15  N   UNL     1       0.711  -0.489   1.189  0.00  0.00    -0.183 NA
ATOM     16  H   UNL     1       0.236  -0.593   2.029  0.00  0.00    +0.149 HD
BRANCH  15  18
ATOM     17  C   UNL     1      -0.019   1.526   0.010  0.00  0.00    +0.031 C 
ATOM     18  C   UNL     1       0.002  -0.004   0.002  0.00  0.00    +0.104 C 
BRANCH  18  19
ATOM     19  C   UNL     1      -1.412  -0.526   0.013  0.00  0.00    -0.015 A 
ATOM     20  C   UNL     1      -2.015  -0.864   1.210  0.00  0.00    +0.006 A 
ATOM     21  C   UNL     1      -3.312  -1.342   1.220  0.00  0.00    +0.000 A 
ATOM     22  C   UNL     1      -4.006  -1.482   0.033  0.00  0.00    +0.001 A 
ATOM     23  C   UNL     1      -3.404  -1.144  -1.165  0.00  0.00    +0.015 A 
ATOM     24  C   UNL     1      -2.108  -0.661  -1.175  0.00  0.00    +0.023 A 
ATOM     25 BR   UNL     1      -1.286  -0.192  -2.812  0.00  0.00    -0.050 Br
ENDBRANCH  18  19
ENDBRANCH  15  18
ENDBRANCH   1  15
TORSDOF 6
