REMARK  Name = ZINC54404698
REMARK  4 active torsions:
REMARK  status: ('A' for Active; 'I' for Inactive)
REMARK    1  A    between atoms: C_1  and  C_2
REMARK    2  A    between atoms: C_2  and  C_3
REMARK    3  A    between atoms: C_3  and  C_4
REMARK    4  A    between atoms: N_7  and  C_9
REMARK                            x       y       z     vdW  Elec       q    Type
REMARK                         _______ _______ _______ _____ _____    ______ ____
ROOT
ATOM      1  C   UNL     1      -1.413  -2.041   0.005  0.00  0.00    +0.153 A 
ATOM      2  N   UNL     1      -1.407  -2.807  -1.087  0.00  0.00    -0.198 NA
ATOM      3  C   UNL     1      -1.388  -4.076  -0.738  0.00  0.00    +0.216 A 
ATOM      4  N   UNL     1      -1.382  -4.133   0.614  0.00  0.00    -0.200 N 
ATOM      5  N   UNL     1      -1.392  -2.803   1.065  0.00  0.00    -0.149 NA
ATOM      6  N   UNL     1      -1.377  -5.158  -1.599  0.00  0.00    -0.327 N 
ATOM      7  H   UNL     1      -1.383  -5.014  -2.558  0.00  0.00    +0.145 HD
ATOM      8  H   UNL     1      -1.364  -6.061  -1.243  0.00  0.00    +0.145 HD
ENDROOT
BRANCH   4   9
ATOM      9  C   UNL     1      -1.363  -5.289   1.407  0.00  0.00    +0.069 A 
ATOM     10  C   UNL     1      -2.035  -6.430   0.988  0.00  0.00    +0.029 A 
ATOM     11  C   UNL     1      -2.015  -7.568   1.771  0.00  0.00    +0.017 A 
ATOM     12  C   UNL     1      -1.327  -7.571   2.971  0.00  0.00    +0.018 A 
ATOM     13  C   UNL     1      -0.657  -6.436   3.391  0.00  0.00    +0.017 A 
ATOM     14  C   UNL     1      -0.669  -5.297   2.609  0.00  0.00    +0.029 A 
ATOM     15 BR   UNL     1      -1.302  -9.131   4.041  0.00  0.00    -0.050 Br
ENDBRANCH   4   9
BRANCH   1  16
ATOM     16  C   UNL     1      -1.433  -0.534   0.013  0.00  0.00    +0.078 C 
BRANCH  16  18
ATOM     17  C   UNL     1      -0.019   1.526   0.010  0.00  0.00    +0.004 C 
ATOM     18  C   UNL     1       0.002  -0.004   0.002  0.00  0.00    +0.004 C 
ENDBRANCH  16  18
ENDBRANCH   1  16
TORSDOF 3
