REMARK  Name = ZINC45270605
REMARK  8 active torsions:
REMARK  status: ('A' for Active; 'I' for Inactive)
REMARK    1  A    between atoms: C_1  and  C_2
REMARK    2  A    between atoms: C_2  and  C_3
REMARK    3  A    between atoms: C_2  and  N_4
REMARK    4  A    between atoms: N_7  and  C_10
REMARK    5  A    between atoms: C_10  and  C_11
REMARK    6  A    between atoms: C_11  and  C_12
REMARK    7  A    between atoms: C_11  and  C_18
REMARK    8  A    between atoms: C_11  and  N_21
REMARK                            x       y       z     vdW  Elec       q    Type
REMARK                         _______ _______ _______ _____ _____    ______ ____
ROOT
ATOM      1  C   UNL     1       1.200  -3.983   4.981  0.00  0.00    +0.132 C 
ENDROOT
BRANCH   1   2
ATOM      2  C   UNL     1       1.722  -4.404   6.330  0.00  0.00    -0.018 A 
ATOM      3  C   UNL     1       2.785  -3.728   6.901  0.00  0.00    +0.006 A 
ATOM      4  C   UNL     1       3.264  -4.114   8.139  0.00  0.00    +0.000 A 
ATOM      5  C   UNL     1       2.680  -5.174   8.807  0.00  0.00    +0.000 A 
ATOM      6  C   UNL     1       1.617  -5.848   8.236  0.00  0.00    +0.000 A 
ATOM      7  C   UNL     1       1.135  -5.460   7.000  0.00  0.00    +0.006 A 
ENDBRANCH   1   2
BRANCH   1   8
ATOM      8  C   UNL     1       1.928  -4.743   3.902  0.00  0.00    +0.236 C 
ATOM      9  O   UNL     1       2.976  -4.318   3.462  0.00  0.00    -0.274 OA
ATOM     10  N   UNL     1       1.415  -5.895   3.425  0.00  0.00    -0.327 N 
ATOM     11  H   UNL     1       0.578  -6.235   3.777  0.00  0.00    +0.145 HD
ATOM     12  H   UNL     1       1.884  -6.384   2.731  0.00  0.00    +0.145 HD
ENDBRANCH   1   8
BRANCH   1  13
ATOM     13  N   UNL     1      -0.237  -4.274   4.899  0.00  0.00    -0.313 NA
ATOM     14  H   UNL     1      -0.748  -3.776   5.613  0.00  0.00    +0.119 HD
ATOM     15  H   UNL     1      -0.598  -4.061   3.981  0.00  0.00    +0.119 HD
ENDBRANCH   1  13
BRANCH   1  16
ATOM     16  C   UNL     1       1.429  -2.483   4.790  0.00  0.00    +0.120 C 
BRANCH  16  20
ATOM     17  N   UNL     1       0.567  -0.575   1.117  0.00  0.00    +0.383 N 
ATOM     18  C   UNL     1      -0.192  -0.162   2.305  0.00  0.00    -0.063 C 
ATOM     19  C   UNL     1       0.567  -0.578   3.567  0.00  0.00    +0.066 C 
ATOM     20  N   UNL     1       0.752  -2.036   3.565  0.00  0.00    -0.303 NA
ATOM     21  C   UNL     1       1.489  -2.468   2.369  0.00  0.00    +0.066 C 
ATOM     22  C   UNL     1       0.722  -2.036   1.117  0.00  0.00    -0.063 C 
ATOM     23  H   UNL     1       1.478  -0.140   1.133  0.00  0.00    -0.081 HD
BRANCH  17  25
ATOM     24  C   UNL     1      -0.315   1.363  -0.093  0.00  0.00    -0.014 C 
ATOM     25  C   UNL     1      -0.153  -0.159  -0.093  0.00  0.00    -0.075 C 
ATOM     26  C   UNL     1       0.638  -0.588  -1.331  0.00  0.00    -0.014 C 
ENDBRANCH  17  25
ENDBRANCH  16  20
ENDBRANCH   1  16
TORSDOF 6
