REMARK  Name = ZINC40685391
REMARK  7 active torsions:
REMARK  status: ('A' for Active; 'I' for Inactive)
REMARK    1  A    between atoms: C_1  and  C_2
REMARK    2  A    between atoms: C_6  and  N_8
REMARK    3  A    between atoms: C_10  and  N_27
REMARK    4  A    between atoms: C_11  and  N_15
REMARK    5  A    between atoms: C_17  and  C_26
REMARK    6  A    between atoms: C_22  and  C_24
REMARK    7  A    between atoms: C_22  and  C_25
REMARK                            x       y       z     vdW  Elec       q    Type
REMARK                         _______ _______ _______ _____ _____    ______ ____
ROOT
ATOM      1  N   UNL     1       0.058  -2.641   2.348  0.00  0.00    -0.284 N 
ATOM      2  C   UNL     1      -0.032  -4.027   2.433  0.00  0.00    +0.127 A 
ATOM      3  C   UNL     1      -0.144  -4.654   3.675  0.00  0.00    +0.104 A 
ATOM      4  C   UNL     1      -0.231  -6.047   3.705  0.00  0.00    +0.147 A 
ATOM      5  N   UNL     1      -0.204  -6.719   2.557  0.00  0.00    -0.221 NA
ATOM      6  C   UNL     1      -0.097  -6.088   1.405  0.00  0.00    +0.200 A 
ATOM      7  N   UNL     1      -0.018  -4.774   1.333  0.00  0.00    -0.333 N 
ATOM      8  H   UNL     1       0.146  -2.110   3.154  0.00  0.00    +0.155 HD
ATOM      9  H   UNL     1       0.056  -4.347   0.465  0.00  0.00    +0.168 HD
ENDROOT
BRANCH   4  10
ATOM     10  N   UNL     1      -0.344  -6.722   4.915  0.00  0.00    -0.310 N 
ATOM     11  C   UNL     1      -0.280  -6.110   6.251  0.00  0.00    +0.113 C 
ATOM     12  C   UNL     1      -0.402  -7.269   7.268  0.00  0.00    -0.014 C 
ATOM     13  C   UNL     1      -1.227  -8.317   6.474  0.00  0.00    +0.030 C 
ATOM     14  C   UNL     1      -0.561  -8.173   5.083  0.00  0.00    +0.076 C 
ATOM     15  C   UNL     1       0.792  -8.875   5.153  0.00  0.00    +0.029 C 
ATOM     16  C   UNL     1       1.688  -8.380   6.274  0.00  0.00    -0.033 C 
ATOM     17  C   UNL     1       0.984  -7.862   7.513  0.00  0.00    +0.014 C 
ATOM     18  C   UNL     1       2.647  -7.309   5.731  0.00  0.00    +0.011 C 
ATOM     19  C   UNL     1       2.571  -9.574   6.713  0.00  0.00    +0.011 C 
ATOM     20  C   UNL     1      -1.100  -6.835   8.566  0.00  0.00    +0.013 C 
ENDBRANCH   4  10
BRANCH   1  26
ATOM     21  C   UNL     1      -0.041  -3.079  -2.420  0.00  0.00    +0.065 C 
ATOM     22  C   UNL     1      -0.026  -2.200  -1.196  0.00  0.00    +0.040 A 
ATOM     23  C   UNL     1      -0.049  -0.827  -1.343  0.00  0.00    +0.023 A 
ATOM     24  C   UNL     1      -0.035  -0.022  -0.212  0.00  0.00    +0.005 A 
ATOM     25  C   UNL     1       0.001  -0.629   1.030  0.00  0.00    +0.044 A 
ATOM     26  C   UNL     1       0.021  -2.017   1.104  0.00  0.00    +0.124 A 
ATOM     27  N   UNL     1       0.003  -2.751   0.002  0.00  0.00    -0.237 NA
ENDBRANCH   1  26
BRANCH   3  28
ATOM     28  N   UNL     1      -0.169  -3.904   4.862  0.00  0.00    -0.353 N 
ATOM     29  H   UNL     1      -0.192  -2.935   4.824  0.00  0.00    +0.143 HD
ATOM     30  H   UNL     1      -0.163  -4.356   5.721  0.00  0.00    +0.143 HD
ENDBRANCH   3  28
TORSDOF 3
