REMARK  Name = ZINC17293842
REMARK  8 active torsions:
REMARK  status: ('A' for Active; 'I' for Inactive)
REMARK    1  A    between atoms: C_1  and  C_2
REMARK    2  A    between atoms: C_2  and  C_3
REMARK    3  A    between atoms: C_2  and  O_4
REMARK    4  A    between atoms: O_4  and  C_5
REMARK    5  A    between atoms: C_8  and  C_11
REMARK    6  A    between atoms: N_13  and  N_14
REMARK    7  A    between atoms: C_15  and  C_17
REMARK    8  A    between atoms: C_17  and  N_18
REMARK                            x       y       z     vdW  Elec       q    Type
REMARK                         _______ _______ _______ _____ _____    ______ ____
ROOT
ATOM      1  N   UNL     1       6.648   2.230  -4.081  0.00  0.00    -0.233 N 
ATOM      2  C   UNL     1       5.820   1.610  -3.217  0.00  0.00    +0.247 C 
ATOM      3  O   UNL     1       4.766   2.126  -2.912  0.00  0.00    -0.273 OA
ATOM      4  H   UNL     1       7.492   1.817  -4.325  0.00  0.00    +0.173 HD
ENDROOT
BRANCH   1   7
ATOM      5  C   UNL     1       7.120   4.090  -5.490  0.00  0.00    +0.260 C 
ATOM      6  O   UNL     1       8.177   3.573  -5.796  0.00  0.00    -0.269 OA
ATOM      7  N   UNL     1       6.292   3.470  -4.626  0.00  0.00    -0.230 N 
ATOM      8  H   UNL     1       5.449   3.883  -4.382  0.00  0.00    +0.173 HD
BRANCH   5  12
ATOM      9  C   UNL     1       6.038   7.850  -7.142  0.00  0.00    +0.121 A 
ATOM     10  C   UNL     1       7.247   7.260  -7.494  0.00  0.00    +0.046 A 
ATOM     11  C   UNL     1       7.602   6.041  -6.960  0.00  0.00    +0.016 A 
ATOM     12  C   UNL     1       6.744   5.397  -6.064  0.00  0.00    +0.038 A 
ATOM     13  C   UNL     1       5.527   5.990  -5.718  0.00  0.00    +0.016 A 
ATOM     14  C   UNL     1       5.183   7.212  -6.252  0.00  0.00    +0.046 A 
BRANCH   9  15
ATOM     15  O   UNL     1       5.693   9.051  -7.670  0.00  0.00    -0.489 OA
BRANCH  15  17
ATOM     16  C   UNL     1       5.769  10.553  -9.562  0.00  0.00    +0.051 C 
ATOM     17  C   UNL     1       6.559   9.595  -8.668  0.00  0.00    +0.167 C 
ATOM     18  C   UNL     1       7.703  10.353  -7.992  0.00  0.00    +0.051 C 
ENDBRANCH  15  17
ENDBRANCH   9  15
ENDBRANCH   5  12
ENDBRANCH   1   7
BRANCH   2  19
ATOM     19  C   UNL     1       6.204   0.276  -2.631  0.00  0.00    +0.215 C 
BRANCH  19  20
ATOM     20  N   UNL     1       5.145  -0.184  -1.729  0.00  0.00    -0.215 N 
ATOM     21  C   UNL     1       4.096  -0.940  -2.115  0.00  0.00    +0.251 C 
ATOM     22  O   UNL     1       3.860  -1.353  -3.230  0.00  0.00    -0.272 OA
ATOM     23  C   UNL     1       3.278  -1.165  -0.863  0.00  0.00    +0.138 C 
ATOM     24  C   UNL     1       3.209  -2.652  -0.538  0.00  0.00    +0.040 C 
ATOM     25  C   UNL     1       2.281  -3.328  -1.556  0.00  0.00    +0.008 C 
ATOM     26  C   UNL     1       0.852  -2.857  -1.296  0.00  0.00    +0.035 C 
ATOM     27  C   UNL     1       0.789  -1.353  -1.236  0.00  0.00    -0.042 A 
ATOM     28  C   UNL     1       1.906  -0.574  -1.027  0.00  0.00    -0.012 A 
ATOM     29  C   UNL     1       1.779   0.807  -0.966  0.00  0.00    +0.006 A 
ATOM     30  C   UNL     1       0.545   1.405  -1.117  0.00  0.00    +0.000 A 
ATOM     31  C   UNL     1      -0.575   0.624  -1.332  0.00  0.00    +0.000 A 
ATOM     32  C   UNL     1      -0.452  -0.749  -1.390  0.00  0.00    +0.004 A 
ATOM     33  N   UNL     1       4.022  -0.447   0.181  0.00  0.00    -0.281 N 
ATOM     34  C   UNL     1       5.098   0.095  -0.421  0.00  0.00    +0.310 C 
ATOM     35  O   UNL     1       5.932   0.762   0.159  0.00  0.00    -0.252 OA
ATOM     36  H   UNL     1       3.784  -0.376   1.119  0.00  0.00    +0.152 HD
ENDBRANCH  19  20
ENDBRANCH   2  19
TORSDOF 6
