REMARK  Name = ZINC36339233
REMARK  8 active torsions:
REMARK  status: ('A' for Active; 'I' for Inactive)
REMARK    1  A    between atoms: C_1  and  C_2
REMARK    2  A    between atoms: C_2  and  C_3
REMARK    3  A    between atoms: C_3  and  C_4
REMARK    4  A    between atoms: C_4  and  C_5
REMARK    5  A    between atoms: C_4  and  C_6
REMARK    6  A    between atoms: C_4  and  N_9
REMARK    7  A    between atoms: C_10  and  C_12
REMARK    8  A    between atoms: C_19  and  C_21
REMARK                            x       y       z     vdW  Elec       q    Type
REMARK                         _______ _______ _______ _____ _____    ______ ____
ROOT
ATOM      1  N   UNL     1       1.429  -2.489  -2.472  0.00  0.00    -0.300 N 
ATOM      2  C   UNL     1       1.576  -3.811  -2.689  0.00  0.00    +0.218 C 
ATOM      3  O   UNL     1       1.139  -4.609  -1.887  0.00  0.00    -0.275 OA
ATOM      4  H   UNL     1       1.778  -1.851  -3.114  0.00  0.00    +0.150 HD
ENDROOT
BRANCH   2   5
ATOM      5  C   UNL     1       2.281  -4.297  -3.929  0.00  0.00    +0.092 C 
ATOM      6  C   UNL     1       2.310  -5.827  -3.933  0.00  0.00    +0.016 C 
ATOM      7  C   UNL     1       3.055  -6.322  -5.176  0.00  0.00    +0.020 C 
ATOM      8  C   UNL     1       2.316  -5.848  -6.431  0.00  0.00    +0.108 C 
ATOM      9  N   UNL     1       2.156  -4.389  -6.364  0.00  0.00    -0.301 N 
ATOM     10  C   UNL     1       1.534  -3.800  -5.171  0.00  0.00    +0.120 C 
ATOM     11  C   UNL     1       2.573  -3.606  -7.378  0.00  0.00    +0.212 C 
ATOM     12  O   UNL     1       2.355  -2.413  -7.352  0.00  0.00    -0.276 OA
ATOM     13  C   UNL     1       3.310  -4.212  -8.545  0.00  0.00    +0.109 C 
ENDBRANCH   2   5
BRANCH   1  14
ATOM     14  C   UNL     1       0.744  -2.016  -1.267  0.00  0.00    +0.133 C 
ATOM     15  C   UNL     1      -0.689  -2.554  -1.251  0.00  0.00    +0.044 C 
BRANCH  14  16
ATOM     16  C   UNL     1       1.478  -2.507  -0.046  0.00  0.00    +0.379 C 
ATOM     17  O   UNL     1       1.069  -2.222   1.067  0.00  0.00    -0.244 OA
ATOM     18  O   UNL     1       2.481  -3.188  -0.171  0.00  0.00    -0.244 OA
ENDBRANCH  14  16
BRANCH  14  19
ATOM     19  C   UNL     1       0.714  -0.486  -1.264  0.00  0.00    +0.037 C 
BRANCH  19  21
ATOM     20  C   UNL     1      -0.032   1.537  -0.002  0.00  0.00    +0.004 C 
ATOM     21  C   UNL     1      -0.002   0.007  -0.005  0.00  0.00    -0.001 C 
ENDBRANCH  19  21
ENDBRANCH  14  19
ENDBRANCH   1  14
TORSDOF 5
