REMARK  Name = ZINC43772807
REMARK  5 active torsions:
REMARK  status: ('A' for Active; 'I' for Inactive)
REMARK    1  A    between atoms: C_1  and  C_2
REMARK    2  A    between atoms: C_5  and  O_32
REMARK    3  A    between atoms: C_18  and  C_31
REMARK    4  A    between atoms: C_19  and  O_30
REMARK    5  A    between atoms: C_22  and  C_24
REMARK                            x       y       z     vdW  Elec       q    Type
REMARK                         _______ _______ _______ _____ _____    ______ ____
ROOT
ATOM      1  C   UNL     1       0.465   1.721   0.032  0.00  0.00    +0.012 C 
ATOM      2  C   UNL     1       0.330   0.197   0.020  0.00  0.00    -0.026 C 
ATOM      3  C   UNL     1      -1.151  -0.182   0.085  0.00  0.00    +0.010 C 
ATOM      4  C   UNL     1      -1.764   0.381   1.369  0.00  0.00    +0.032 C 
ATOM      5  C   UNL     1      -1.034  -0.202   2.581  0.00  0.00    +0.115 C 
ATOM      6  C   UNL     1       0.447   0.175   2.515  0.00  0.00    +0.035 C 
ATOM      7  C   UNL     1       1.060  -0.388   1.230  0.00  0.00    -0.002 C 
ATOM      8  C   UNL     1       2.541  -0.009   1.164  0.00  0.00    +0.004 C 
ATOM      9  C   UNL     1       3.155  -0.570  -0.120  0.00  0.00    +0.007 C 
ATOM     10  C   UNL     1       2.084  -1.321  -0.912  0.00  0.00    +0.025 C 
ATOM     11  C   UNL     1       0.942  -0.356  -1.266  0.00  0.00    +0.001 C 
ATOM     12  C   UNL     1      -0.134  -1.033  -2.109  0.00  0.00    +0.005 C 
ATOM     13  C   UNL     1       0.466  -1.677  -3.370  0.00  0.00    +0.010 C 
ATOM     14  C   UNL     1       1.525  -2.662  -2.915  0.00  0.00    +0.004 C 
ATOM     15  C   UNL     1       2.666  -1.857  -2.207  0.00  0.00    +0.075 C 
ATOM     16  C   UNL     1       3.769  -2.910  -2.059  0.00  0.00    +0.036 C 
ATOM     17  C   UNL     1       3.723  -3.655  -3.421  0.00  0.00    +0.011 C 
ATOM     18  C   UNL     1       2.269  -3.418  -4.011  0.00  0.00    +0.027 C 
ATOM     19  C   UNL     1       0.915  -3.654  -1.923  0.00  0.00    +0.014 C 
ENDROOT
BRANCH  18  20
ATOM     20  C   UNL     1       1.610  -4.750  -4.265  0.00  0.00    -0.022 C 
ATOM     21  C   UNL     1       2.044  -5.941  -3.858  0.00  0.00    +0.094 C 
ATOM     22  C   UNL     1       1.110  -6.973  -4.317  0.00  0.00    +0.332 C 
ATOM     23  O   UNL     1       1.225  -8.164  -4.107  0.00  0.00    -0.246 OA
ATOM     24  O   UNL     1       0.104  -6.402  -5.006  0.00  0.00    -0.457 OA
ATOM     25  C   UNL     1       0.327  -4.989  -5.025  0.00  0.00    +0.264 C 
ENDBRANCH  18  20
BRANCH  15  26
ATOM     26  O   UNL     1       3.095  -0.780  -3.042  0.00  0.00    -0.388 OA
ATOM     27  H   UNL     1       3.768  -0.213  -2.639  0.00  0.00    +0.210 HD
ENDBRANCH  15  26
BRANCH   5  28
ATOM     28  O   UNL     1      -1.164  -1.625   2.577  0.00  0.00    -0.392 OA
ATOM     29  H   UNL     1      -2.079  -1.936   2.618  0.00  0.00    +0.210 HD
ENDBRANCH   5  28
TORSDOF 3
