REMARK  Name = ZINC06604396
REMARK  3 active torsions:
REMARK  status: ('A' for Active; 'I' for Inactive)
REMARK    1  A    between atoms: C_1  and  C_2
REMARK    2  A    between atoms: C_6  and  C_11
REMARK    3  A    between atoms: C_21  and  C_24
REMARK                            x       y       z     vdW  Elec       q    Type
REMARK                         _______ _______ _______ _____ _____    ______ ____
ROOT
ATOM      1  C   UNL     1       6.258   1.083  -4.163  0.00  0.00    +0.088 C 
ATOM      2  C   UNL     1       5.338   1.290  -2.988  0.00  0.00    +0.129 A 
ATOM      3  N   UNL     1       4.259   2.037  -3.136  0.00  0.00    -0.217 NA
ATOM      4  C   UNL     1       3.413   2.255  -2.142  0.00  0.00    +0.134 A 
ATOM      5  C   UNL     1       3.668   1.670  -0.873  0.00  0.00    +0.055 A 
ATOM      6  C   UNL     1       2.899   1.759   0.364  0.00  0.00    +0.002 A 
ATOM      7  C   UNL     1       3.353   1.109   1.462  0.00  0.00    +0.056 A 
ATOM      8  S   UNL     1       4.848   0.323   0.890  0.00  0.00    -0.076 S 
ATOM      9  C   UNL     1       4.837   0.887  -0.791  0.00  0.00    +0.114 A 
ATOM     10  N   UNL     1       5.627   0.720  -1.834  0.00  0.00    -0.225 NA
ATOM     11  N   UNL     1       2.293   3.045  -2.337  0.00  0.00    -0.314 N 
ATOM     12  C   UNL     1       1.266   2.322  -3.098  0.00  0.00    +0.106 C 
ATOM     13  C   UNL     1      -0.007   3.168  -3.168  0.00  0.00    +0.020 C 
ATOM     14  C   UNL     1       0.310   4.505  -3.845  0.00  0.00    +0.016 C 
ATOM     15  C   UNL     1       1.417   5.215  -3.060  0.00  0.00    +0.092 C 
ATOM     16  C   UNL     1       2.649   4.310  -2.993  0.00  0.00    +0.119 C 
ENDROOT
BRANCH   6  17
ATOM     17  C   UNL     1       1.647   2.550   0.420  0.00  0.00    -0.017 A 
ATOM     18  C   UNL     1       0.454   1.945   0.812  0.00  0.00    +0.008 A 
ATOM     19  C   UNL     1      -0.710   2.686   0.857  0.00  0.00    +0.001 A 
ATOM     20  C   UNL     1      -0.691   4.029   0.525  0.00  0.00    +0.000 A 
ATOM     21  C   UNL     1       0.490   4.635   0.137  0.00  0.00    +0.001 A 
ATOM     22  C   UNL     1       1.659   3.903   0.082  0.00  0.00    +0.008 A 
ENDBRANCH   6  17
BRANCH  15  23
ATOM     23  C   UNL     1       1.777   6.504  -3.753  0.00  0.00    +0.215 C 
ATOM     24  O   UNL     1       2.909   6.683  -4.150  0.00  0.00    -0.276 OA
ATOM     25  N   UNL     1       0.841   7.458  -3.930  0.00  0.00    -0.329 N 
ATOM     26  H   UNL     1      -0.064   7.314  -3.613  0.00  0.00    +0.145 HD
ATOM     27  H   UNL     1       1.073   8.287  -4.376  0.00  0.00    +0.145 HD
ENDBRANCH  15  23
TORSDOF 2
