REMARK  Name = ZINC66347443
REMARK  3 active torsions:
REMARK  status: ('A' for Active; 'I' for Inactive)
REMARK    1  A    between atoms: C_1  and  C_2
REMARK    2  A    between atoms: C_10  and  C_14
REMARK    3  A    between atoms: C_12  and  N_13
REMARK                            x       y       z     vdW  Elec       q    Type
REMARK                         _______ _______ _______ _____ _____    ______ ____
ROOT
ATOM      1  C   UNL     1      -0.018   1.503   0.010  0.00  0.00    +0.045 C 
ATOM      2  C   UNL     1       0.002  -0.004   0.002  0.00  0.00    -0.034 A 
ATOM      3  C   UNL     1       0.006  -0.683  -1.213  0.00  0.00    +0.005 A 
ATOM      4  C   UNL     1       0.024  -2.046  -1.255  0.00  0.00    +0.014 A 
ATOM      5  C   UNL     1       0.040  -2.772  -0.058  0.00  0.00    +0.041 A 
ATOM      6  C   UNL     1       0.037  -2.084   1.180  0.00  0.00    +0.090 A 
ATOM      7  C   UNL     1       0.022  -0.682   1.185  0.00  0.00    +0.047 A 
ATOM      8 BR   UNL     1       0.025   0.263   2.823  0.00  0.00    -0.048 Br
ATOM      9  N   UNL     1       0.053  -2.799   2.314  0.00  0.00    -0.231 NA
ATOM     10  C   UNL     1       0.071  -4.110   2.273  0.00  0.00    +0.129 A 
ATOM     11  N   UNL     1       0.075  -4.796   1.141  0.00  0.00    -0.217 NA
ATOM     12  C   UNL     1       0.061  -4.188  -0.037  0.00  0.00    +0.127 A 
ATOM     13  C   UNL     1       0.089  -4.870   3.575  0.00  0.00    +0.088 C 
ENDROOT
BRANCH  12  14
ATOM     14  N   UNL     1       0.065  -4.913  -1.209  0.00  0.00    -0.343 N 
ATOM     15  H   UNL     1       0.053  -4.455  -2.064  0.00  0.00    +0.144 HD
ATOM     16  H   UNL     1       0.079  -5.883  -1.179  0.00  0.00    +0.144 HD
ENDBRANCH  12  14
TORSDOF 1
