REMARK  Name = ZINC20465890
REMARK  11 active torsions:
REMARK  status: ('A' for Active; 'I' for Inactive)
REMARK    1  A    between atoms: C_1  and  N_2
REMARK    2  A    between atoms: N_2  and  C_3
REMARK    3  A    between atoms: N_2  and  C_11
REMARK    4  A    between atoms: C_3  and  C_4
REMARK    5  A    between atoms: C_4  and  C_5
REMARK    6  A    between atoms: C_13  and  C_23
REMARK    7  A    between atoms: C_16  and  C_21
REMARK    8  A    between atoms: C_18  and  O_20
REMARK    9  A    between atoms: C_21  and  O_22
REMARK   10  A    between atoms: C_23  and  N_24
REMARK   11  A    between atoms: N_27  and  C_28
REMARK                            x       y       z     vdW  Elec       q    Type
REMARK                         _______ _______ _______ _____ _____    ______ ____
ROOT
ATOM      1  C   UNL     1       8.133   1.685  -0.264  0.00  0.00    -0.006 C 
ATOM      2  C   UNL     1       6.659   1.262  -0.447  0.00  0.00    +0.125 C 
ATOM      3  O   UNL     1       6.624   0.589  -1.724  0.00  0.00    -0.369 OA
ATOM      4  C   UNL     1       7.829  -0.206  -1.769  0.00  0.00    +0.171 C 
ATOM      5  C   UNL     1       8.921   0.698  -1.154  0.00  0.00    +0.134 C 
ENDROOT
BRANCH   1   7
ATOM      6  C   UNL     1       9.699   3.524  -0.439  0.00  0.00    -0.096 C 
ATOM      7  N   UNL     1       8.333   3.066  -0.726  0.00  0.00    +0.383 N 
ATOM      8  H   UNL     1       7.636   3.712  -0.171  0.00  0.00    -0.082 HD
BRANCH   7   9
ATOM      9  C   UNL     1       8.024   3.192  -2.156  0.00  0.00    -0.072 C 
BRANCH   9  10
ATOM     10  C   UNL     1       7.751   4.660  -2.491  0.00  0.00    +0.037 C 
BRANCH  10  11
ATOM     11  C   UNL     1       7.435   4.790  -3.958  0.00  0.00    +0.040 A 
ATOM     12  C   UNL     1       6.256   5.396  -4.352  0.00  0.00    +0.023 A 
ATOM     13  C   UNL     1       5.975   5.511  -5.704  0.00  0.00    +0.003 A 
ATOM     14  C   UNL     1       6.893   5.010  -6.614  0.00  0.00    +0.020 A 
ATOM     15  C   UNL     1       8.050   4.417  -6.147  0.00  0.00    +0.111 A 
ATOM     16  N   UNL     1       8.287   4.330  -4.852  0.00  0.00    -0.260 NA
ENDBRANCH  10  11
ENDBRANCH   9  10
ENDBRANCH   7   9
ENDBRANCH   1   7
BRANCH   5  17
ATOM     17  O   UNL     1       9.625   1.400  -2.179  0.00  0.00    -0.391 OA
ATOM     18  H   UNL     1      10.239   0.845  -2.904  0.00  0.00    +0.210 HD
ENDBRANCH   5  17
BRANCH   4  19
ATOM     19  C   UNL     1       8.181  -0.558  -3.216  0.00  0.00    +0.190 C 
BRANCH  19  20
ATOM     20  O   UNL     1       7.222  -1.485  -3.728  0.00  0.00    -0.392 OA
ATOM     21  H   UNL     1       7.312  -1.856  -4.759  0.00  0.00    +0.210 HD
ENDBRANCH  19  20
ENDBRANCH   4  19
BRANCH   2  22
ATOM     22  C   UNL     1       5.750   2.492  -0.468  0.00  0.00    +0.135 C 
BRANCH  22  23
ATOM     23  N   UNL     1       4.350   2.064  -0.531  0.00  0.00    -0.297 N 
ATOM     24  C   UNL     1       3.365   2.983  -0.560  0.00  0.00    +0.304 C 
ATOM     25  O   UNL     1       3.638   4.168  -0.532  0.00  0.00    -0.253 OA
ATOM     26  N   UNL     1       2.077   2.590  -0.618  0.00  0.00    -0.269 N 
ATOM     27  H   UNL     1       4.103   0.992  -0.556  0.00  0.00    +0.150 HD
ATOM     28  H   UNL     1       1.826   1.520  -0.562  0.00  0.00    +0.156 HD
BRANCH  26  29
ATOM     29  C   UNL     1       1.060   3.541  -0.751  0.00  0.00    +0.035 A 
ATOM     30  C   UNL     1      -0.071   3.251  -1.503  0.00  0.00    +0.023 A 
ATOM     31  C   UNL     1      -1.071   4.195  -1.636  0.00  0.00    +0.002 A 
ATOM     32  C   UNL     1      -0.952   5.423  -1.011  0.00  0.00    +0.000 A 
ATOM     33  C   UNL     1       0.172   5.715  -0.262  0.00  0.00    +0.002 A 
ATOM     34  C   UNL     1       1.179   4.778  -0.130  0.00  0.00    +0.023 A 
ENDBRANCH  26  29
ENDBRANCH  22  23
ENDBRANCH   2  22
TORSDOF 10
