REMARK  Name = ZINC50000920
REMARK  4 active torsions:
REMARK  status: ('A' for Active; 'I' for Inactive)
REMARK    1  A    between atoms: C_1  and  N_2
REMARK    2  A    between atoms: N_2  and  C_3
REMARK    3  A    between atoms: C_10  and  C_12
REMARK    4  A    between atoms: C_13  and  N_17
REMARK                            x       y       z     vdW  Elec       q    Type
REMARK                         _______ _______ _______ _____ _____    ______ ____
ROOT
ATOM      1  C   UNL     1      -0.471   1.405   0.052  0.00  0.00    +0.138 C 
ATOM      2  N   UNL     1      -0.239  -0.039  -0.017  0.00  0.00    -0.270 N 
ATOM      3  C   UNL     1      -0.162  -0.653  -1.215  0.00  0.00    +0.259 C 
ATOM      4  O   UNL     1      -0.084  -1.867  -1.274  0.00  0.00    -0.269 OA
ENDROOT
BRANCH   2   5
ATOM      5  C   UNL     1      -0.099  -0.782   1.159  0.00  0.00    +0.039 A 
ATOM      6  C   UNL     1       0.285  -2.116   1.098  0.00  0.00    +0.024 A 
ATOM      7  C   UNL     1       0.424  -2.848   2.261  0.00  0.00    +0.005 A 
ATOM      8  C   UNL     1       0.181  -2.256   3.486  0.00  0.00    +0.038 A 
ATOM      9  C   UNL     1      -0.202  -0.927   3.552  0.00  0.00    +0.125 A 
ATOM     10  C   UNL     1      -0.337  -0.187   2.390  0.00  0.00    +0.061 A 
ATOM     11  F   UNL     1      -0.438  -0.350   4.751  0.00  0.00    -0.205 F 
ENDBRANCH   2   5
BRANCH   3  12
ATOM     12  C   UNL     1      -0.172   0.114  -2.404  0.00  0.00    +0.095 A 
ATOM     13  C   UNL     1      -0.232  -0.319  -3.729  0.00  0.00    +0.044 A 
ATOM     14  C   UNL     1      -0.225   0.683  -4.680  0.00  0.00    +0.031 A 
ATOM     15  C   UNL     1      -0.163   1.973  -4.276  0.00  0.00    +0.048 A 
ATOM     16  S   UNL     1      -0.118   1.885  -2.600  0.00  0.00    -0.090 S 
BRANCH  13  17
ATOM     17  N   UNL     1      -0.293  -1.667  -4.069  0.00  0.00    -0.357 N 
ATOM     18  H   UNL     1      -0.296  -2.344  -3.373  0.00  0.00    +0.142 HD
ATOM     19  H   UNL     1      -0.334  -1.931  -5.002  0.00  0.00    +0.142 HD
ENDBRANCH  13  17
ENDBRANCH   3  12
TORSDOF 3
