REMARK  Name = ZINC26560974
REMARK  7 active torsions:
REMARK  status: ('A' for Active; 'I' for Inactive)
REMARK    1  A    between atoms: C_1  and  C_2
REMARK    2  A    between atoms: C_2  and  C_4
REMARK    3  A    between atoms: C_2  and  S_13
REMARK    4  A    between atoms: N_9  and  C_10
REMARK    5  A    between atoms: C_10  and  C_11
REMARK    6  A    between atoms: S_13  and  C_14
REMARK    7  A    between atoms: N_28  and  C_29
REMARK                            x       y       z     vdW  Elec       q    Type
REMARK                         _______ _______ _______ _____ _____    ______ ____
ROOT
ATOM      1  C   UNL     1      -2.323  -0.026   0.023  0.00  0.00    +0.173 A 
ATOM      2  N   UNL     1      -1.183  -0.668   0.009  0.00  0.00    -0.223 NA
ATOM      3  C   UNL     1       0.002  -0.004   0.002  0.00  0.00    +0.080 A 
ATOM      4  C   UNL     1       1.209  -0.683  -0.013  0.00  0.00    +0.037 A 
ATOM      5  C   UNL     1       2.408   0.040  -0.021  0.00  0.00    -0.016 A 
ATOM      6  C   UNL     1       3.654  -0.618  -0.036  0.00  0.00    +0.008 A 
ATOM      7  C   UNL     1       4.799   0.116  -0.043  0.00  0.00    +0.001 A 
ATOM      8  C   UNL     1       4.775   1.509  -0.036  0.00  0.00    +0.001 A 
ATOM      9  C   UNL     1       3.606   2.203  -0.021  0.00  0.00    +0.008 A 
ATOM     10  C   UNL     1       2.384   1.504  -0.013  0.00  0.00    -0.017 A 
ATOM     11  C   UNL     1       1.160   2.184   0.003  0.00  0.00    +0.024 A 
ATOM     12  C   UNL     1      -0.018   1.461   0.010  0.00  0.00    +0.066 A 
ATOM     13  C   UNL     1      -1.333   2.126   0.020  0.00  0.00    +0.262 A 
ATOM     14  O   UNL     1      -1.428   3.339   0.027  0.00  0.00    -0.267 OA
ATOM     15  N   UNL     1      -2.430   1.335   0.032  0.00  0.00    -0.290 N 
ATOM     16  C   UNL     1      -3.759   1.951   0.047  0.00  0.00    +0.154 C 
ENDROOT
BRANCH   1  17
ATOM     17  S   UNL     1      -3.808  -0.974   0.031  0.00  0.00    -0.075 S 
BRANCH  17  19
ATOM     18  C   UNL     1      -2.367  -2.875  -1.300  0.00  0.00    +0.029 C 
ATOM     19  C   UNL     1      -3.114  -2.646   0.015  0.00  0.00    +0.137 C 
BRANCH  19  20
ATOM     20  C   UNL     1      -4.227  -3.653   0.143  0.00  0.00    +0.233 C 
ATOM     21  O   UNL     1      -5.350  -3.364  -0.210  0.00  0.00    -0.274 OA
ATOM     22  N   UNL     1      -3.974  -4.876   0.650  0.00  0.00    -0.239 N 
ATOM     23  C   UNL     1      -4.969  -5.778   0.765  0.00  0.00    +0.306 C 
ATOM     24  O   UNL     1      -6.095  -5.487   0.411  0.00  0.00    -0.252 OA
ATOM     25  N   UNL     1      -4.716  -7.000   1.272  0.00  0.00    -0.296 N 
ATOM     26  H   UNL     1      -2.955  -5.139   0.970  0.00  0.00    +0.159 HD
ATOM     27  H   UNL     1      -3.697  -7.263   1.592  0.00  0.00    +0.151 HD
BRANCH  25  28
ATOM     28  C   UNL     1      -5.798  -7.980   1.396  0.00  0.00    +0.132 C 
BRANCH  28  29
ATOM     29  C   UNL     1      -5.255  -9.256   1.986  0.00  0.00    -0.016 C 
ATOM     30  C   UNL     1      -5.799  -9.762   3.065  0.00  0.00    +0.005 C 
ENDBRANCH  28  29
ENDBRANCH  25  28
ENDBRANCH  19  20
ENDBRANCH  17  19
ENDBRANCH   1  17
TORSDOF 5
