REMARK  Name = ZINC65042607
REMARK  4 active torsions:
REMARK  status: ('A' for Active; 'I' for Inactive)
REMARK    1  A    between atoms: C_4  and  C_7
REMARK    2  A    between atoms: C_18  and  S_21
REMARK    3  A    between atoms: S_21  and  C_22
REMARK    4  A    between atoms: C_22  and  C_23
REMARK                            x       y       z     vdW  Elec       q    Type
REMARK                         _______ _______ _______ _____ _____    ______ ____
ROOT
ATOM      1  C   UNL     1       3.711  -0.707  -0.038  0.00  0.00    +0.207 C 
ATOM      2  N   UNL     1       3.630  -1.880   0.845  0.00  0.00    -0.320 N 
ATOM      3  C   UNL     1       3.026  -3.062   0.419  0.00  0.00    +0.040 A 
ATOM      4  C   UNL     1       2.401  -3.915   1.313  0.00  0.00    +0.024 A 
ATOM      5  C   UNL     1       1.830  -5.090   0.861  0.00  0.00    +0.002 A 
ATOM      6  C   UNL     1       1.875  -5.428  -0.481  0.00  0.00    +0.001 A 
ATOM      7  C   UNL     1       2.488  -4.586  -1.391  0.00  0.00    +0.013 A 
ATOM      8  C   UNL     1       3.055  -3.401  -0.948  0.00  0.00    +0.040 A 
ATOM      9  C   UNL     1       3.683  -2.424  -1.855  0.00  0.00    +0.168 A 
ATOM     10  N   UNL     1       4.005  -1.151  -1.399  0.00  0.00    -0.279 N 
ATOM     11  C   UNL     1       4.583  -0.519  -2.443  0.00  0.00    +0.194 A 
ATOM     12  N   UNL     1       4.569  -1.359  -3.459  0.00  0.00    -0.122 NA
ATOM     13  N   UNL     1       4.022  -2.480  -3.105  0.00  0.00    -0.128 NA
ATOM     14  H   UNL     1       4.004  -1.831   1.739  0.00  0.00    +0.148 HD
ENDROOT
BRANCH   1  18
ATOM     15  C   UNL     1      -0.017   1.378   0.010  0.00  0.00    +0.000 A 
ATOM     16  C   UNL     1       1.171   2.086   0.002  0.00  0.00    +0.000 A 
ATOM     17  C   UNL     1       2.377   1.411  -0.013  0.00  0.00    +0.007 A 
ATOM     18  C   UNL     1       2.396   0.029  -0.020  0.00  0.00    -0.007 A 
ATOM     19  C   UNL     1       1.208  -0.679  -0.012  0.00  0.00    +0.007 A 
ATOM     20  C   UNL     1       0.002  -0.004   0.002  0.00  0.00    +0.000 A 
ENDBRANCH   1  18
BRANCH  11  21
ATOM     21  S   UNL     1       5.233   1.119  -2.447  0.00  0.00    -0.082 S 
BRANCH  21  22
ATOM     22  C   UNL     1       5.852   1.342  -4.138  0.00  0.00    +0.124 C 
BRANCH  22  23
ATOM     23  C   UNL     1       6.452   2.742  -4.281  0.00  0.00    +0.184 C 
ATOM     24  N   UNL     1       5.449   3.757  -3.933  0.00  0.00    -0.363 N 
ATOM     25  C   UNL     1       5.912   4.432  -2.921  0.00  0.00    +0.060 A 
ATOM     26  C   UNL     1       5.375   5.555  -2.140  0.00  0.00    +0.027 A 
ATOM     27  C   UNL     1       6.098   6.061  -1.120  0.00  0.00    +0.002 A 
ATOM     28  C   UNL     1       7.361   5.557  -0.762  0.00  0.00    +0.002 A 
ATOM     29  C   UNL     1       7.944   4.530  -1.412  0.00  0.00    +0.027 A 
ATOM     30  C   UNL     1       7.249   3.898  -2.542  0.00  0.00    +0.060 A 
ATOM     31  N   UNL     1       7.561   2.914  -3.335  0.00  0.00    -0.363 N 
ATOM     32  H   UNL     1       4.599   3.900  -4.377  0.00  0.00    +0.162 HD
ATOM     33  H   UNL     1       8.377   2.391  -3.306  0.00  0.00    +0.162 HD
ENDBRANCH  22  23
ENDBRANCH  21  22
ENDBRANCH  11  21
TORSDOF 4
