REMARK  Name = ZINC05610058
REMARK  4 active torsions:
REMARK  status: ('A' for Active; 'I' for Inactive)
REMARK    1  A    between atoms: C_1  and  C_2
REMARK    2  A    between atoms: C_2  and  C_3
REMARK    3  A    between atoms: C_10  and  N_25
REMARK    4  A    between atoms: C_11  and  C_23
REMARK                            x       y       z     vdW  Elec       q    Type
REMARK                         _______ _______ _______ _____ _____    ______ ____
ROOT
ATOM      1  C   UNL     1       0.731  -0.503   1.223  0.00  0.00    +0.044 A 
ATOM      2  C   UNL     1       0.198  -0.697   2.438  0.00  0.00    +0.061 A 
ATOM      3  C   UNL     1       1.220  -1.169   3.295  0.00  0.00    +0.245 A 
ATOM      4  N   UNL     1       2.318  -1.251   2.602  0.00  0.00    -0.135 NA
ATOM      5  N   UNL     1       2.039  -0.842   1.289  0.00  0.00    -0.278 N 
ATOM      6  H   UNL     1       2.674  -0.807   0.556  0.00  0.00    +0.189 HD
ATOM      7  O   UNL     1       0.985  -1.458   4.603  0.00  0.00    -0.421 OA
ATOM      8  C   UNL     1      -0.178  -1.038   5.140  0.00  0.00    +0.201 C 
ATOM      9  C   UNL     1      -1.228  -0.578   4.423  0.00  0.00    +0.110 C 
ATOM     10  C   UNL     1      -1.209  -0.488   2.923  0.00  0.00    +0.145 C 
ATOM     11  C   UNL     1      -2.148  -1.474   2.305  0.00  0.00    +0.001 A 
ATOM     12  C   UNL     1      -2.194  -2.850   2.357  0.00  0.00    +0.045 A 
ATOM     13  C   UNL     1      -3.220  -3.475   1.652  0.00  0.00    +0.124 A 
ATOM     14  C   UNL     1      -4.148  -2.744   0.935  0.00  0.00    +0.040 A 
ATOM     15  C   UNL     1      -4.107  -1.360   0.880  0.00  0.00    +0.026 A 
ATOM     16  C   UNL     1      -3.084  -0.722   1.583  0.00  0.00    +0.038 A 
ATOM     17  N   UNL     1      -2.809   0.630   1.701  0.00  0.00    -0.284 N 
ATOM     18  C   UNL     1      -1.725   0.861   2.472  0.00  0.00    +0.238 C 
ATOM     19  O   UNL     1      -1.254   1.943   2.750  0.00  0.00    -0.274 OA
ATOM     20  F   UNL     1      -3.309  -4.823   1.670  0.00  0.00    -0.205 F 
ATOM     21  H   UNL     1      -3.333   1.329   1.280  0.00  0.00    +0.155 HD
ENDROOT
BRANCH   8  22
ATOM     22  N   UNL     1      -0.304  -1.080   6.506  0.00  0.00    -0.328 N 
ATOM     23  H   UNL     1       0.430  -1.405   7.051  0.00  0.00    +0.145 HD
ATOM     24  H   UNL     1      -1.127  -0.786   6.926  0.00  0.00    +0.145 HD
ENDBRANCH   8  22
BRANCH   1  26
ATOM     25  C   UNL     1      -0.019   1.526   0.010  0.00  0.00    +0.010 C 
ATOM     26  C   UNL     1       0.002  -0.004   0.002  0.00  0.00    +0.052 C 
ENDBRANCH   1  26
BRANCH   9  27
ATOM     27  C   UNL     1      -2.406  -0.161   5.122  0.00  0.00    +0.102 C 
ATOM     28  N   UNL     1      -3.341   0.169   5.676  0.00  0.00    -0.191 NA
ENDBRANCH   9  27
TORSDOF 3
