REMARK  Name = ZINC10162059
REMARK  8 active torsions:
REMARK  status: ('A' for Active; 'I' for Inactive)
REMARK    1  A    between atoms: C_1  and  C_2
REMARK    2  A    between atoms: C_4  and  C_23
REMARK    3  A    between atoms: C_5  and  N_9
REMARK    4  A    between atoms: C_6  and  C_8
REMARK    5  A    between atoms: N_9  and  C_10
REMARK    6  A    between atoms: C_10  and  C_11
REMARK    7  A    between atoms: N_13  and  N_14
REMARK    8  A    between atoms: C_15  and  C_17
REMARK                            x       y       z     vdW  Elec       q    Type
REMARK                         _______ _______ _______ _____ _____    ______ ____
ROOT
ATOM      1  C   UNL     1      -4.425   4.477  -1.199  0.00  0.00    +0.246 C 
ATOM      2  O   UNL     1      -4.660   5.207  -0.260  0.00  0.00    -0.273 OA
ATOM      3  N   UNL     1      -5.271   4.434  -2.248  0.00  0.00    -0.233 N 
ATOM      4  H   UNL     1      -5.082   3.850  -2.999  0.00  0.00    +0.173 HD
ENDROOT
BRANCH   3   5
ATOM      5  N   UNL     1      -6.422   5.232  -2.252  0.00  0.00    -0.228 N 
ATOM      6  C   UNL     1      -7.268   5.189  -3.300  0.00  0.00    +0.295 C 
ATOM      7  O   UNL     1      -7.032   4.456  -4.243  0.00  0.00    -0.265 OA
ATOM      8  H   UNL     1      -6.611   5.815  -1.500  0.00  0.00    +0.173 HD
BRANCH   6   9
ATOM      9  C   UNL     1      -8.473   6.023  -3.305  0.00  0.00    +0.192 A 
ATOM     10  C   UNL     1      -9.409   6.076  -4.298  0.00  0.00    +0.056 A 
ATOM     11  C   UNL     1     -10.382   6.999  -3.887  0.00  0.00    +0.058 A 
ATOM     12  C   UNL     1     -10.002   7.465  -2.675  0.00  0.00    +0.171 A 
ATOM     13  O   UNL     1      -8.854   6.870  -2.325  0.00  0.00    -0.444 OA
ATOM     14 BR   UNL     1     -10.941   8.740  -1.642  0.00  0.00    -0.008 Br
ENDBRANCH   6   9
ENDBRANCH   3   5
BRANCH   1  15
ATOM     15  C   UNL     1      -3.186   3.619  -1.195  0.00  0.00    +0.199 C 
BRANCH  15  16
ATOM     16  N   UNL     1      -2.437   3.847   0.048  0.00  0.00    -0.335 N 
ATOM     17  H   UNL     1      -2.987   3.589   0.854  0.00  0.00    +0.147 HD
BRANCH  16  22
ATOM     18  C   UNL     1       2.503   1.063  -0.015  0.00  0.00    +0.044 C 
ATOM     19  C   UNL     1       1.190   1.803   0.001  0.00  0.00    -0.050 A 
ATOM     20  C   UNL     1       0.061   1.191   0.513  0.00  0.00    +0.008 A 
ATOM     21  C   UNL     1      -1.145   1.864   0.525  0.00  0.00    -0.029 A 
ATOM     22  C   UNL     1      -1.220   3.161   0.032  0.00  0.00    +0.033 A 
ATOM     23  C   UNL     1      -0.083   3.772  -0.481  0.00  0.00    -0.029 A 
ATOM     24  C   UNL     1       1.118   3.091  -0.495  0.00  0.00    +0.008 A 
ATOM     25  C   UNL     1      -0.161   5.176  -1.023  0.00  0.00    +0.045 C 
ATOM     26  C   UNL     1      -2.377   1.195   1.077  0.00  0.00    +0.045 C 
ENDBRANCH  16  22
ENDBRANCH  15  16
ENDBRANCH   1  15
TORSDOF 5
