REMARK  Name = ZINC12574331
REMARK  8 active torsions:
REMARK  status: ('A' for Active; 'I' for Inactive)
REMARK    1  A    between atoms: C_1  and  C_2
REMARK    2  A    between atoms: C_2  and  O_3
REMARK    3  A    between atoms: O_3  and  C_4
REMARK    4  A    between atoms: C_7  and  N_10
REMARK    5  A    between atoms: N_10  and  C_11
REMARK    6  A    between atoms: C_11  and  C_12
REMARK    7  A    between atoms: N_14  and  N_15
REMARK    8  A    between atoms: C_19  and  C_27
REMARK                            x       y       z     vdW  Elec       q    Type
REMARK                         _______ _______ _______ _____ _____    ______ ____
ROOT
ATOM      1  C   UNL     1       1.885  -7.982  -2.900  0.00  0.00    +0.249 C 
ATOM      2  O   UNL     1       1.595  -8.536  -1.861  0.00  0.00    -0.272 OA
ATOM      3  N   UNL     1       2.259  -8.710  -3.971  0.00  0.00    -0.205 N 
ATOM      4  H   UNL     1       2.491  -8.267  -4.802  0.00  0.00    +0.177 HD
ENDROOT
BRANCH   3   5
ATOM      5  N   UNL     1       2.313 -10.107  -3.883  0.00  0.00    -0.174 NA
ATOM      6  C   UNL     1       2.780 -10.809  -4.887  0.00  0.00    +0.153 C 
ATOM      7  C   UNL     1       3.457 -10.304  -6.104  0.00  0.00    +0.028 A 
ATOM      8  C   UNL     1       3.792  -9.029  -6.547  0.00  0.00    +0.016 A 
ATOM      9  C   UNL     1       4.436  -8.872  -7.757  0.00  0.00    -0.036 A 
ATOM     10  C   UNL     1       4.748  -9.981  -8.527  0.00  0.00    +0.023 A 
ATOM     11  C   UNL     1       4.418 -11.251  -8.095  0.00  0.00    +0.039 A 
ATOM     12  C   UNL     1       3.769 -11.428  -6.879  0.00  0.00    +0.044 A 
ATOM     13  N   UNL     1       3.333 -12.574  -6.223  0.00  0.00    -0.280 N 
ATOM     14  C   UNL     1       2.751 -12.277  -5.049  0.00  0.00    +0.269 C 
ATOM     15  O   UNL     1       2.281 -13.076  -4.260  0.00  0.00    -0.268 OA
ATOM     16 BR   UNL     1       5.631  -9.754 -10.184  0.00  0.00    -0.050 Br
ATOM     17  C   UNL     1       4.801  -7.492  -8.242  0.00  0.00    +0.045 C 
ATOM     18  H   UNL     1       3.440 -13.475  -6.567  0.00  0.00    +0.155 HD
ENDBRANCH   3   5
BRANCH   1  19
ATOM     19  C   UNL     1       1.826  -6.479  -2.994  0.00  0.00    +0.199 C 
BRANCH  19  20
ATOM     20  N   UNL     1       1.395  -5.926  -1.708  0.00  0.00    -0.335 N 
ATOM     21  H   UNL     1       1.200  -6.519  -0.966  0.00  0.00    +0.147 HD
BRANCH  20  25
ATOM     22  C   UNL     1       1.009  -1.802  -1.238  0.00  0.00    +0.121 A 
ATOM     23  C   UNL     1       0.729  -2.650  -0.176  0.00  0.00    +0.047 A 
ATOM     24  C   UNL     1       0.857  -4.016  -0.331  0.00  0.00    +0.026 A 
ATOM     25  C   UNL     1       1.265  -4.541  -1.550  0.00  0.00    +0.028 A 
ATOM     26  C   UNL     1       1.545  -3.692  -2.612  0.00  0.00    +0.026 A 
ATOM     27  C   UNL     1       1.412  -2.326  -2.457  0.00  0.00    +0.047 A 
BRANCH  22  28
ATOM     28  O   UNL     1       0.883  -0.457  -1.084  0.00  0.00    -0.492 OA
BRANCH  28  30
ATOM     29  C   UNL     1       0.381   1.541   0.179  0.00  0.00    +0.048 C 
ATOM     30  C   UNL     1       0.465   0.014   0.198  0.00  0.00    +0.225 C 
ENDBRANCH  28  30
ENDBRANCH  22  28
ENDBRANCH  20  25
ENDBRANCH  19  20
ENDBRANCH   1  19
TORSDOF 6
