REMARK  Name = ZINC49193525
REMARK  7 active torsions:
REMARK  status: ('A' for Active; 'I' for Inactive)
REMARK    1  A    between atoms: C_1  and  C_2
REMARK    2  A    between atoms: C_2  and  N_3
REMARK    3  A    between atoms: C_4  and  C_6
REMARK    4  A    between atoms: C_6  and  C_8
REMARK    5  A    between atoms: C_6  and  N_9
REMARK    6  A    between atoms: N_9  and  C_10
REMARK    7  A    between atoms: C_13  and  N_20
REMARK                            x       y       z     vdW  Elec       q    Type
REMARK                         _______ _______ _______ _____ _____    ______ ____
ROOT
ATOM      1  C   UNL     1       2.547  -4.431  -3.381  0.00  0.00    +0.036 A 
ATOM      2  C   UNL     1       3.515  -3.729  -4.068  0.00  0.00    +0.025 A 
ATOM      3  C   UNL     1       4.511  -4.394  -4.777  0.00  0.00    +0.025 A 
ATOM      4  C   UNL     1       4.557  -5.772  -4.811  0.00  0.00    +0.034 A 
ATOM      5  C   UNL     1       3.582  -6.517  -4.119  0.00  0.00    +0.020 A 
ATOM      6  C   UNL     1       2.570  -5.838  -3.392  0.00  0.00    +0.007 A 
ATOM      7  C   UNL     1       1.614  -6.607  -2.706  0.00  0.00    +0.028 A 
ATOM      8  C   UNL     1       1.703  -7.965  -2.764  0.00  0.00    +0.083 A 
ATOM      9  N   UNL     1       2.663  -8.574  -3.447  0.00  0.00    -0.366 N 
ATOM     10  C   UNL     1       3.581  -7.920  -4.120  0.00  0.00    +0.093 A 
ATOM     11  H   UNL     1       2.682  -9.544  -3.457  0.00  0.00    +0.165 HD
ENDROOT
BRANCH   4  12
ATOM     12  N   UNL     1       5.562  -6.423  -5.528  0.00  0.00    -0.357 N 
ATOM     13  H   UNL     1       6.231  -5.907  -6.004  0.00  0.00    +0.142 HD
ATOM     14  H   UNL     1       5.591  -7.393  -5.550  0.00  0.00    +0.142 HD
ENDBRANCH   4  12
BRANCH   1  15
ATOM     15  N   UNL     1       1.552  -3.749  -2.673  0.00  0.00    -0.333 N 
ATOM     16  H   UNL     1       0.875  -4.246  -2.187  0.00  0.00    +0.147 HD
BRANCH  15  17
ATOM     17  C   UNL     1       1.532  -2.285  -2.665  0.00  0.00    +0.154 C 
ATOM     18  C   UNL     1       0.792  -1.778  -3.904  0.00  0.00    +0.038 C 
BRANCH  17  20
ATOM     19  N   UNL     1       0.688  -0.476  -1.203  0.00  0.00    -0.314 N 
ATOM     20  C   UNL     1       0.827  -1.799  -1.425  0.00  0.00    +0.233 C 
ATOM     21  O   UNL     1       0.384  -2.597  -0.627  0.00  0.00    -0.274 OA
ATOM     22  H   UNL     1       1.042   0.162  -1.842  0.00  0.00    +0.149 HD
BRANCH  19  24
ATOM     23  C   UNL     1      -0.019   1.526   0.010  0.00  0.00    +0.024 C 
ATOM     24  C   UNL     1       0.002  -0.004   0.002  0.00  0.00    +0.101 C 
ENDBRANCH  19  24
ENDBRANCH  17  20
ENDBRANCH  15  17
ENDBRANCH   1  15
TORSDOF 5
