REMARK  Name = ZINC61691163
REMARK  3 active torsions:
REMARK  status: ('A' for Active; 'I' for Inactive)
REMARK    1  A    between atoms: C_4  and  N_8
REMARK    2  A    between atoms: N_8  and  C_9
REMARK    3  A    between atoms: C_14  and  O_16
REMARK                            x       y       z     vdW  Elec       q    Type
REMARK                         _______ _______ _______ _____ _____    ______ ____
ROOT
ATOM      1  N   UNL     1       3.621  -0.651  -0.036  0.00  0.00    -0.335 N 
ATOM      2  H   UNL     1       4.454  -0.153  -0.042  0.00  0.00    +0.147 HD
ENDROOT
BRANCH   1   6
ATOM      3  C   UNL     1      -0.017   1.379   0.010  0.00  0.00    +0.017 A 
ATOM      4  C   UNL     1       1.170   2.090   0.002  0.00  0.00    +0.023 A 
ATOM      5  C   UNL     1       2.378   1.420  -0.013  0.00  0.00    +0.062 A 
ATOM      6  C   UNL     1       2.400   0.030  -0.021  0.00  0.00    +0.047 A 
ATOM      7  C   UNL     1       1.208  -0.680  -0.013  0.00  0.00    +0.039 A 
ATOM      8  C   UNL     1       0.002  -0.004   0.002  0.00  0.00    +0.020 A 
ATOM      9 BR   UNL     1      -1.623  -0.971   0.013  0.00  0.00    -0.050 Br
ATOM     10 CL   UNL     1       3.867   2.313  -0.023  0.00  0.00    -0.082 Cl
ENDBRANCH   1   6
BRANCH   1  11
ATOM     11  C   UNL     1       3.642  -2.116  -0.044  0.00  0.00    +0.127 C 
ATOM     12  C   UNL     1       3.593  -2.650  -1.493  0.00  0.00    +0.184 C 
ATOM     13  O   UNL     1       4.975  -2.863  -1.855  0.00  0.00    -0.375 OA
ATOM     14  C   UNL     1       5.593  -3.429  -0.679  0.00  0.00    +0.193 C 
ATOM     15  C   UNL     1       4.987  -2.640   0.507  0.00  0.00    +0.162 C 
BRANCH  15  16
ATOM     16  O   UNL     1       5.837  -1.551   0.873  0.00  0.00    -0.388 OA
ATOM     17  H   UNL     1       6.696  -1.824   1.225  0.00  0.00    +0.210 HD
ENDBRANCH  15  16
ENDBRANCH   1  11
TORSDOF 3
