REMARK  Name = ZINC63210226
REMARK  4 active torsions:
REMARK  status: ('A' for Active; 'I' for Inactive)
REMARK    1  A    between atoms: C_4  and  N_22
REMARK    2  A    between atoms: C_6  and  N_10
REMARK    3  A    between atoms: C_11  and  C_13
REMARK    4  A    between atoms: C_13  and  C_14
REMARK                            x       y       z     vdW  Elec       q    Type
REMARK                         _______ _______ _______ _____ _____    ______ ____
ROOT
ATOM      1  N   UNL     1       2.354  -0.949  -2.753  0.00  0.00    -0.314 N 
ATOM      2  C   UNL     1       3.554  -1.521  -2.534  0.00  0.00    +0.213 C 
ATOM      3  O   UNL     1       4.176  -1.259  -1.526  0.00  0.00    -0.276 OA
ATOM      4  H   UNL     1       1.856  -1.159  -3.559  0.00  0.00    +0.149 HD
ENDROOT
BRANCH   1   9
ATOM      5  C   UNL     1      -0.117   1.585  -0.083  0.00  0.00    +0.000 C 
ATOM      6  C   UNL     1       1.230   2.256  -0.068  0.00  0.00    -0.002 C 
ATOM      7  C   UNL     1       1.780   2.506  -1.485  0.00  0.00    -0.014 C 
ATOM      8  C   UNL     1       1.545   1.318  -2.436  0.00  0.00    -0.055 C 
ATOM      9  C   UNL     1       1.801  -0.009  -1.774  0.00  0.00    +0.058 C 
ATOM     10  C   UNL     1       0.464  -0.550  -1.229  0.00  0.00    +0.020 C 
ATOM     11  C   UNL     1       0.093   0.062   0.039  0.00  0.00    +0.002 C 
BRANCH   8  12
ATOM     12  N   UNL     1       2.440   1.450  -3.593  0.00  0.00    +0.381 N 
ATOM     13  H   UNL     1       3.398   1.352  -3.290  0.00  0.00    -0.090 HD
ATOM     14  H   UNL     1       2.226   0.732  -4.268  0.00  0.00    -0.090 HD
ATOM     15  H   UNL     1       2.312   2.357  -4.015  0.00  0.00    -0.090 HD
ENDBRANCH   8  12
ENDBRANCH   1   9
BRANCH   2  16
ATOM     16  C   UNL     1       4.123  -2.488  -3.540  0.00  0.00    +0.101 C 
BRANCH  16  17
ATOM     17  C   UNL     1       5.484  -2.988  -3.053  0.00  0.00    +0.020 C 
ATOM     18  C   UNL     1       6.491  -1.826  -3.041  0.00  0.00    +0.028 C 
ATOM     19  C   UNL     1       7.928  -2.374  -2.864  0.00  0.00    +0.166 C 
ATOM     20  S   UNL     1       7.814  -4.053  -3.605  0.00  0.00    -0.031 S 
ATOM     21  O   UNL     1       8.569  -4.079  -4.808  0.00  0.00    -0.174 OA
ATOM     22  O   UNL     1       8.070  -5.021  -2.597  0.00  0.00    -0.174 OA
ATOM     23  C   UNL     1       6.020  -4.081  -4.022  0.00  0.00    +0.170 C 
ENDBRANCH  16  17
ENDBRANCH   2  16
TORSDOF 4
