REMARK  Name = ZINC13273763
REMARK  6 active torsions:
REMARK  status: ('A' for Active; 'I' for Inactive)
REMARK    1  A    between atoms: C_4  and  S_9
REMARK    2  A    between atoms: C_5  and  C_7
REMARK    3  A    between atoms: S_9  and  C_10
REMARK    4  A    between atoms: C_13  and  S_18
REMARK    5  A    between atoms: C_15  and  C_16
REMARK    6  A    between atoms: S_18  and  N_21
REMARK                            x       y       z     vdW  Elec       q    Type
REMARK                         _______ _______ _______ _____ _____    ______ ____
ROOT
ATOM      1  C   UNL     1       5.069  -1.628  -2.691  0.00  0.00    +0.027 A 
ATOM      2  C   UNL     1       4.207  -2.315  -1.843  0.00  0.00    +0.018 A 
ATOM      3  C   UNL     1       3.957  -1.835  -0.575  0.00  0.00    +0.029 A 
ATOM      4  C   UNL     1       4.551  -0.661  -0.138  0.00  0.00    +0.106 A 
ATOM      5  C   UNL     1       5.408   0.034  -0.962  0.00  0.00    +0.044 A 
ATOM      6  C   UNL     1       5.677  -0.441  -2.249  0.00  0.00    +0.079 A 
ENDROOT
BRANCH   6   7
ATOM      7  C   UNL     1       6.592   0.297  -3.136  0.00  0.00    +0.388 C 
ATOM      8  O   UNL     1       6.823  -0.119  -4.254  0.00  0.00    -0.241 OA
ATOM      9  O   UNL     1       7.173   1.435  -2.707  0.00  0.00    -0.241 OA
ENDBRANCH   6   7
BRANCH   4  10
ATOM     10  S   UNL     1       4.215  -0.060   1.484  0.00  0.00    +0.061 S 
ATOM     11  O   UNL     1       5.318   0.757   1.851  0.00  0.00    -0.153 OA
ATOM     12  O   UNL     1       3.806  -1.181   2.256  0.00  0.00    -0.153 OA
BRANCH  10  13
ATOM     13  N   UNL     1       2.901   0.942   1.371  0.00  0.00    -0.177 NA
ATOM     14  C   UNL     1       1.540   0.412   1.526  0.00  0.00    +0.109 C 
ATOM     15  C   UNL     1       0.708   0.825   0.307  0.00  0.00    +0.017 C 
ATOM     16  C   UNL     1       0.775   2.344   0.140  0.00  0.00    +0.003 C 
ATOM     17  C   UNL     1       2.226   2.769  -0.099  0.00  0.00    +0.017 C 
ATOM     18  C   UNL     1       3.075   2.378   1.115  0.00  0.00    +0.109 C 
ENDBRANCH  10  13
ENDBRANCH   4  10
BRANCH   1  19
ATOM     19  S   UNL     1       5.395  -2.241  -4.310  0.00  0.00    -0.088 S 
BRANCH  19  23
ATOM     20  C   UNL     1       2.878   0.400  -7.012  0.00  0.00    +0.001 A 
ATOM     21  C   UNL     1       2.787   0.520  -5.633  0.00  0.00    +0.001 A 
ATOM     22  C   UNL     1       3.546  -0.284  -4.810  0.00  0.00    +0.016 A 
ATOM     23  C   UNL     1       4.418  -1.217  -5.359  0.00  0.00    +0.027 A 
ATOM     24  C   UNL     1       4.513  -1.342  -6.755  0.00  0.00    +0.077 A 
ATOM     25  C   UNL     1       3.732  -0.522  -7.575  0.00  0.00    +0.016 A 
BRANCH  24  26
ATOM     26  C   UNL     1       5.429  -2.329  -7.350  0.00  0.00    +0.388 C 
ATOM     27  O   UNL     1       6.106  -3.039  -6.633  0.00  0.00    -0.241 OA
ATOM     28  O   UNL     1       5.516  -2.445  -8.690  0.00  0.00    -0.241 OA
ENDBRANCH  24  26
ENDBRANCH  19  23
ENDBRANCH   1  19
TORSDOF 6
