REMARK  Name = ZINC49974253
REMARK  7 active torsions:
REMARK  status: ('A' for Active; 'I' for Inactive)
REMARK    1  A    between atoms: C_1  and  C_2
REMARK    2  A    between atoms: C_2  and  C_4
REMARK    3  A    between atoms: C_2  and  N_11
REMARK    4  A    between atoms: N_9  and  C_10
REMARK    5  A    between atoms: N_11  and  C_12
REMARK    6  A    between atoms: C_12  and  C_14
REMARK    7  A    between atoms: C_12  and  C_20
REMARK                            x       y       z     vdW  Elec       q    Type
REMARK                         _______ _______ _______ _____ _____    ______ ____
ROOT
ATOM      1  N   UNL     1       0.690  -0.478  -1.207  0.00  0.00    +0.396 N 
ATOM      2  H   UNL     1       0.632  -1.484  -1.254  0.00  0.00    -0.083 HD
ATOM      3  H   UNL     1       0.251  -0.077  -2.022  0.00  0.00    -0.083 HD
ENDROOT
BRANCH   1   5
ATOM      4  C   UNL     1      -0.019   1.526   0.010  0.00  0.00    -0.004 C 
ATOM      5  C   UNL     1       0.002  -0.004   0.002  0.00  0.00    +0.015 C 
BRANCH   5   6
ATOM      6  C   UNL     1      -1.412  -0.526   0.013  0.00  0.00    +0.206 C 
ATOM      7  O   UNL     1      -1.807  -1.223  -0.897  0.00  0.00    -0.277 OA
ATOM      8  N   UNL     1      -2.236  -0.217   1.033  0.00  0.00    -0.242 N 
ATOM      9  C   UNL     1      -3.501  -0.683   1.043  0.00  0.00    +0.306 C 
ATOM     10  O   UNL     1      -3.897  -1.383   0.131  0.00  0.00    -0.252 OA
ATOM     11  N   UNL     1      -4.325  -0.374   2.063  0.00  0.00    -0.302 N 
ATOM     12  C   UNL     1      -5.700  -0.882   2.074  0.00  0.00    +0.129 C 
ATOM     13  H   UNL     1      -1.920   0.341   1.761  0.00  0.00    +0.159 HD
ATOM     14  H   UNL     1      -4.009   0.183   2.791  0.00  0.00    +0.150 HD
ENDBRANCH   5   6
ENDBRANCH   1   5
BRANCH   1  15
ATOM     15  C   UNL     1       2.100  -0.070  -1.159  0.00  0.00    +0.028 C 
BRANCH  15  16
ATOM     16  C   UNL     1       2.776  -0.448  -2.452  0.00  0.00    -0.054 A 
ATOM     17  C   UNL     1       2.481  -1.654  -3.059  0.00  0.00    +0.002 A 
ATOM     18  C   UNL     1       3.101  -2.001  -4.245  0.00  0.00    +0.000 A 
ATOM     19  C   UNL     1       4.016  -1.141  -4.824  0.00  0.00    +0.000 A 
ATOM     20  C   UNL     1       4.310   0.065  -4.217  0.00  0.00    +0.000 A 
ATOM     21  C   UNL     1       3.687   0.414  -3.033  0.00  0.00    +0.002 A 
ENDBRANCH  15  16
BRANCH  15  22
ATOM     22  C   UNL     1       2.786  -0.766  -0.012  0.00  0.00    +0.095 A 
ATOM     23  C   UNL     1       3.688  -0.213   0.818  0.00  0.00    +0.043 A 
ATOM     24  C   UNL     1       4.067  -1.216   1.739  0.00  0.00    +0.041 A 
ATOM     25  C   UNL     1       3.374  -2.323   1.417  0.00  0.00    +0.195 A 
ATOM     26  O   UNL     1       2.595  -2.043   0.359  0.00  0.00    -0.469 OA
ENDBRANCH  15  22
ENDBRANCH   1  15
TORSDOF 5
