REMARK  Name = ZINC01430184
REMARK  3 active torsions:
REMARK  status: ('A' for Active; 'I' for Inactive)
REMARK    1  A    between atoms: C_1  and  C_2
REMARK    2  A    between atoms: C_3  and  C_12
REMARK    3  A    between atoms: N_10  and  C_11
REMARK                            x       y       z     vdW  Elec       q    Type
REMARK                         _______ _______ _______ _____ _____    ______ ____
ROOT
ATOM      1  C   UNL     1      -0.006  -0.284  -2.528  0.00  0.00    +0.211 C 
ATOM      2  N   UNL     1      -0.864  -1.157  -3.349  0.00  0.00    -0.293 N 
ATOM      3  C   UNL     1      -0.368  -2.337  -3.836  0.00  0.00    +0.183 C 
ATOM      4  N   UNL     1       0.916  -2.479  -4.117  0.00  0.00    -0.183 NA
ATOM      5  C   UNL     1       1.752  -1.448  -3.856  0.00  0.00    +0.236 A 
ATOM      6  N   UNL     1       1.345  -0.359  -3.097  0.00  0.00    -0.285 N 
ATOM      7  C   UNL     1       2.393   0.508  -3.025  0.00  0.00    +0.072 A 
ATOM      8  C   UNL     1       2.554   1.750  -2.423  0.00  0.00    +0.028 A 
ATOM      9  C   UNL     1       3.791   2.361  -2.556  0.00  0.00    +0.002 A 
ATOM     10  C   UNL     1       4.830   1.772  -3.255  0.00  0.00    +0.002 A 
ATOM     11  C   UNL     1       4.696   0.537  -3.863  0.00  0.00    +0.030 A 
ATOM     12  C   UNL     1       3.455  -0.100  -3.743  0.00  0.00    +0.091 A 
ATOM     13  N   UNL     1       3.004  -1.286  -4.212  0.00  0.00    -0.210 NA
ATOM     14  N   UNL     1      -1.218  -3.390  -4.036  0.00  0.00    -0.331 N 
ATOM     15  H   UNL     1      -1.778  -0.897  -3.544  0.00  0.00    +0.151 HD
ATOM     16  H   UNL     1      -2.162  -3.297  -3.833  0.00  0.00    +0.145 HD
ATOM     17  H   UNL     1      -0.877  -4.230  -4.381  0.00  0.00    +0.145 HD
ENDROOT
BRANCH   1  20
ATOM     18  C   UNL     1      -0.359   1.476   0.004  0.00  0.00    +0.064 C 
ATOM     19  C   UNL     1      -0.144  -0.016  -0.001  0.00  0.00    +0.023 A 
ATOM     20  C   UNL     1       0.007  -0.769  -1.101  0.00  0.00    +0.021 A 
ATOM     21  C   UNL     1       0.189  -2.151  -0.653  0.00  0.00    +0.007 A 
ATOM     22  C   UNL     1       0.390  -3.366  -1.310  0.00  0.00    +0.010 A 
ATOM     23  C   UNL     1       0.527  -4.516  -0.585  0.00  0.00    +0.001 A 
ATOM     24  C   UNL     1       0.468  -4.486   0.802  0.00  0.00    +0.002 A 
ATOM     25  C   UNL     1       0.271  -3.298   1.471  0.00  0.00    +0.026 A 
ATOM     26  C   UNL     1       0.129  -2.115   0.752  0.00  0.00    +0.049 A 
ATOM     27  N   UNL     1      -0.070  -0.802   1.117  0.00  0.00    -0.347 N 
ATOM     28  C   UNL     1      -0.186  -0.320   2.495  0.00  0.00    +0.149 C 
ENDBRANCH   1  20
TORSDOF 1
