REMARK  Name = ZINC27646156
REMARK  4 active torsions:
REMARK  status: ('A' for Active; 'I' for Inactive)
REMARK    1  A    between atoms: C_1  and  C_2
REMARK    2  A    between atoms: C_10  and  O_12
REMARK    3  A    between atoms: C_23  and  C_29
REMARK    4  A    between atoms: C_26  and  O_28
REMARK                            x       y       z     vdW  Elec       q    Type
REMARK                         _______ _______ _______ _____ _____    ______ ____
ROOT
ATOM      1  C   UNL     1       1.852   0.579   2.035  0.00  0.00    +0.010 C 
ATOM      2  C   UNL     1       2.393   1.183   0.745  0.00  0.00    +0.021 C 
ATOM      3  C   UNL     1       1.398   2.046  -0.000  0.00  0.00    +0.026 C 
ATOM      4  C   UNL     1       1.158   3.416   0.648  0.00  0.00    -0.002 C 
ATOM      5  C   UNL     1       0.123   3.177   1.750  0.00  0.00    +0.007 C 
ATOM      6  C   UNL     1      -0.724   1.985   1.257  0.00  0.00    +0.032 C 
ATOM      7  C   UNL     1      -0.017   1.419   0.010  0.00  0.00    +0.118 C 
ATOM      8  C   UNL     1       2.412   4.122   1.110  0.00  0.00    -0.001 C 
ATOM      9  C   UNL     1       3.083   4.787  -0.091  0.00  0.00    +0.008 C 
ATOM     10  C   UNL     1       4.327   5.569   0.329  0.00  0.00    +0.032 C 
ATOM     11  C   UNL     1       5.227   4.640   1.123  0.00  0.00    -0.060 C 
ATOM     12  C   UNL     1       6.498   4.516   0.743  0.00  0.00    +0.046 C 
ATOM     13  C   UNL     1       7.381   3.623   1.506  0.00  0.00    +0.156 C 
ATOM     14  O   UNL     1       8.577   3.810   1.581  0.00  0.00    -0.293 OA
ATOM     15  C   UNL     1       6.704   2.453   2.194  0.00  0.00    +0.080 C 
ATOM     16  C   UNL     1       5.565   3.002   3.045  0.00  0.00    +0.019 C 
ATOM     17  C   UNL     1       4.632   3.920   2.288  0.00  0.00    -0.005 C 
ATOM     18  C   UNL     1       3.349   3.203   1.873  0.00  0.00    +0.031 C 
ATOM     19  C   UNL     1       3.676   1.952   1.067  0.00  0.00    +0.122 C 
ATOM     20  C   UNL     1       4.220   4.995   3.302  0.00  0.00    +0.016 C 
ENDROOT
BRANCH   7  21
ATOM     21  O   UNL     1       0.002  -0.004   0.002  0.00  0.00    -0.391 OA
ATOM     22  H   UNL     1      -0.943  -0.567   0.008  0.00  0.00    +0.210 HD
ENDBRANCH   7  21
BRANCH  19  23
ATOM     23  O   UNL     1       4.365   2.269  -0.140  0.00  0.00    -0.391 OA
ATOM     24  H   UNL     1       5.314   2.824  -0.102  0.00  0.00    +0.210 HD
ENDBRANCH  19  23
TORSDOF 2
