REMARK  Name = ZINC23130522
REMARK  7 active torsions:
REMARK  status: ('A' for Active; 'I' for Inactive)
REMARK    1  A    between atoms: C_1  and  C_2
REMARK    2  A    between atoms: C_11  and  C_12
REMARK    3  A    between atoms: C_12  and  N_13
REMARK    4  A    between atoms: N_16  and  C_23
REMARK    5  A    between atoms: C_17  and  C_20
REMARK    6  A    between atoms: C_20  and  C_21
REMARK    7  A    between atoms: C_21  and  O_22
REMARK                            x       y       z     vdW  Elec       q    Type
REMARK                         _______ _______ _______ _____ _____    ______ ____
ROOT
ATOM      1  N   UNL     1       2.138   1.643  -0.099  0.00  0.00    -0.300 NA
ATOM      2  C   UNL     1       2.452   1.252   1.282  0.00  0.00    +0.066 C 
ATOM      3  C   UNL     1       2.249  -0.257   1.441  0.00  0.00    -0.062 C 
ATOM      4  N   UNL     1       0.861  -0.600   1.103  0.00  0.00    +0.385 N 
ATOM      5  C   UNL     1       0.546  -0.209  -0.278  0.00  0.00    -0.052 C 
ATOM      6  C   UNL     1       0.749   1.300  -0.437  0.00  0.00    +0.069 C 
ATOM      7  H   UNL     1       0.198  -0.036   1.775  0.00  0.00    -0.081 HD
ENDROOT
BRANCH   4   8
ATOM      8  C   UNL     1       0.605  -2.031   1.316  0.00  0.00    -0.068 C 
ATOM      9  C   UNL     1      -0.909  -2.280   1.474  0.00  0.00    -0.015 C 
ATOM     10  C   UNL     1      -1.001  -3.392   2.549  0.00  0.00    -0.002 C 
ATOM     11  C   UNL     1       0.131  -3.010   3.534  0.00  0.00    -0.002 C 
ATOM     12  C   UNL     1       1.267  -2.495   2.625  0.00  0.00    -0.015 C 
ENDBRANCH   4   8
BRANCH   1  13
ATOM     13  C   UNL     1       2.393   3.074  -0.312  0.00  0.00    +0.137 C 
BRANCH  13  24
ATOM     14  C   UNL     1       5.140   2.572  -1.667  0.00  0.00    +0.046 C 
ATOM     15  C   UNL     1       4.918   3.216  -0.323  0.00  0.00    -0.021 A 
ATOM     16  C   UNL     1       5.953   3.719   0.584  0.00  0.00    +0.004 A 
ATOM     17  C   UNL     1       7.348   3.774   0.530  0.00  0.00    +0.010 A 
ATOM     18  C   UNL     1       8.046   4.322   1.568  0.00  0.00    +0.002 A 
ATOM     19  C   UNL     1       7.381   4.825   2.678  0.00  0.00    +0.022 A 
ATOM     20  C   UNL     1       6.005   4.781   2.752  0.00  0.00    +0.065 A 
ATOM     21  C   UNL     1       5.274   4.227   1.705  0.00  0.00    +0.066 A 
ATOM     22  N   UNL     1       3.927   4.045   1.481  0.00  0.00    -0.356 N 
ATOM     23  H   UNL     1       3.195   4.378   2.232  0.00  0.00    +0.166 HD
ATOM     24  C   UNL     1       3.735   3.437   0.271  0.00  0.00    +0.034 A 
ATOM     25 CL   UNL     1       5.187   5.414   4.146  0.00  0.00    -0.081 Cl
ENDBRANCH  13  24
ENDBRANCH   1  13
BRANCH   5  26
ATOM     26  C   UNL     1      -0.909  -0.564  -0.591  0.00  0.00    +0.014 C 
BRANCH  26  27
ATOM     27  C   UNL     1      -1.263  -0.071  -1.996  0.00  0.00    +0.154 C 
BRANCH  27  28
ATOM     28  O   UNL     1      -2.580  -0.509  -2.336  0.00  0.00    -0.395 OA
ATOM     29  H   UNL     1      -3.011  -0.249  -3.314  0.00  0.00    +0.209 HD
ENDBRANCH  27  28
ENDBRANCH  26  27
ENDBRANCH   5  26
TORSDOF 6
