REMARK  Name = ZINC37053949
REMARK  4 active torsions:
REMARK  status: ('A' for Active; 'I' for Inactive)
REMARK    1  A    between atoms: C_1  and  C_2
REMARK    2  A    between atoms: N_8  and  S_9
REMARK    3  A    between atoms: S_9  and  C_12
REMARK    4  A    between atoms: C_13  and  N_20
REMARK                            x       y       z     vdW  Elec       q    Type
REMARK                         _______ _______ _______ _____ _____    ______ ____
ROOT
ATOM      1  S   UNL     1       0.058  -4.835   2.124  0.00  0.00    +0.104 S 
ATOM      2  O   UNL     1      -1.248  -5.154   1.663  0.00  0.00    -0.146 OA
ATOM      3  O   UNL     1       1.226  -5.430   1.575  0.00  0.00    -0.146 OA
ENDROOT
BRANCH   1  11
ATOM      4  C   UNL     1       0.574   0.758  -0.842  0.00  0.00    +0.044 C 
ATOM      5  C   UNL     1       0.416  -0.729  -0.655  0.00  0.00    -0.046 A 
ATOM      6  C   UNL     1       0.282  -1.571  -1.773  0.00  0.00    +0.021 A 
ATOM      7  C   UNL     1       0.140  -2.903  -1.612  0.00  0.00    +0.084 A 
ATOM      8  N   UNL     1       0.123  -3.456  -0.366  0.00  0.00    -0.345 N 
ATOM      9  C   UNL     1       0.252  -2.661   0.747  0.00  0.00    +0.153 A 
ATOM     10  C   UNL     1       0.407  -1.263   0.594  0.00  0.00    +0.051 A 
ATOM     11  N   UNL     1       0.234  -3.198   1.950  0.00  0.00    -0.111 NA
ATOM     12  H   UNL     1       0.019  -4.415  -0.265  0.00  0.00    +0.167 HD
ENDBRANCH   1  11
BRANCH   1  13
ATOM     13  C   UNL     1       0.081  -5.181   3.851  0.00  0.00    +0.151 A 
ATOM     14  C   UNL     1       1.292  -5.311   4.518  0.00  0.00    +0.055 A 
ATOM     15  C   UNL     1       1.307  -5.583   5.880  0.00  0.00    +0.044 A 
ATOM     16  C   UNL     1       0.116  -5.724   6.568  0.00  0.00    +0.044 A 
ATOM     17  C   UNL     1      -1.089  -5.594   5.901  0.00  0.00    +0.042 A 
ATOM     18  C   UNL     1      -1.107  -5.318   4.545  0.00  0.00    +0.071 A 
ATOM     19 CL   UNL     1      -2.621  -5.148   3.714  0.00  0.00    -0.081 Cl
ATOM     20 CL   UNL     1       0.133  -6.065   8.270  0.00  0.00    -0.083 Cl
BRANCH  14  21
ATOM     21  N   UNL     1       2.494  -5.169   3.820  0.00  0.00    -0.356 N 
ATOM     22  H   UNL     1       2.494  -4.792   2.927  0.00  0.00    +0.142 HD
ATOM     23  H   UNL     1       3.328  -5.447   4.230  0.00  0.00    +0.142 HD
ENDBRANCH  14  21
ENDBRANCH   1  13
TORSDOF 3
