REMARK  Name = ZINC52014049
REMARK  8 active torsions:
REMARK  status: ('A' for Active; 'I' for Inactive)
REMARK    1  A    between atoms: C_4  and  O_8
REMARK    2  A    between atoms: O_8  and  C_9
REMARK    3  A    between atoms: C_9  and  C_10
REMARK    4  A    between atoms: C_10  and  C_12
REMARK    5  A    between atoms: C_10  and  O_23
REMARK    6  A    between atoms: C_12  and  N_13
REMARK    7  A    between atoms: N_13  and  C_14
REMARK    8  A    between atoms: C_20  and  O_22
REMARK                            x       y       z     vdW  Elec       q    Type
REMARK                         _______ _______ _______ _____ _____    ______ ____
ROOT
ATOM      1  C   UNL     1       4.955  -2.625  -0.062  0.00  0.00    +0.135 C 
ENDROOT
BRANCH   1   2
ATOM      2  O   UNL     1       5.620  -2.278   1.154  0.00  0.00    -0.390 OA
ATOM      3  H   UNL     1       5.188  -2.618   1.950  0.00  0.00    +0.210 HD
ENDBRANCH   1   2
BRANCH   1   4
ATOM      4  C   UNL     1       3.532  -2.061  -0.044  0.00  0.00    +0.258 C 
BRANCH   4   5
ATOM      5  O   UNL     1       3.586  -0.633  -0.037  0.00  0.00    -0.488 OA
BRANCH   5   9
ATOM      6  C   UNL     1      -0.017   1.379   0.010  0.00  0.00    +0.021 A 
ATOM      7  C   UNL     1       1.170   2.089   0.002  0.00  0.00    +0.025 A 
ATOM      8  C   UNL     1       2.378   1.418  -0.013  0.00  0.00    +0.083 A 
ATOM      9  C   UNL     1       2.400   0.029  -0.021  0.00  0.00    +0.140 A 
ATOM     10  C   UNL     1       1.208  -0.680  -0.013  0.00  0.00    +0.067 A 
ATOM     11  C   UNL     1       0.002  -0.004   0.002  0.00  0.00    +0.045 A 
ATOM     12 CL   UNL     1      -1.490  -0.892   0.012  0.00  0.00    -0.083 Cl
ATOM     13 CL   UNL     1       3.867   2.310  -0.024  0.00  0.00    -0.080 Cl
ENDBRANCH   5   9
ENDBRANCH   4   5
ENDBRANCH   1   4
BRANCH   1  14
ATOM     14  C   UNL     1       4.897  -4.148  -0.195  0.00  0.00    -0.047 C 
BRANCH  14  15
ATOM     15  N   UNL     1       6.263  -4.690  -0.212  0.00  0.00    +0.384 N 
ATOM     16  H   UNL     1       6.769  -4.302  -0.995  0.00  0.00    -0.085 HD
ATOM     17  H   UNL     1       6.733  -4.445   0.646  0.00  0.00    -0.085 HD
BRANCH  15  18
ATOM     18  C   UNL     1       6.208  -6.152  -0.340  0.00  0.00    -0.043 C 
ATOM     19  C   UNL     1       5.551  -6.749   0.906  0.00  0.00    -0.013 C 
ATOM     20  C   UNL     1       5.494  -8.272   0.773  0.00  0.00    -0.001 C 
ATOM     21  C   UNL     1       6.914  -8.825   0.630  0.00  0.00    +0.002 C 
ATOM     22  C   UNL     1       7.570  -8.228  -0.617  0.00  0.00    +0.030 C 
ATOM     23  C   UNL     1       7.628  -6.705  -0.483  0.00  0.00    +0.101 C 
BRANCH  23  24
ATOM     24  O   UNL     1       8.393  -6.356   0.672  0.00  0.00    -0.393 OA
ATOM     25  H   UNL     1       9.306  -6.675   0.650  0.00  0.00    +0.210 HD
ENDBRANCH  23  24
ENDBRANCH  15  18
ENDBRANCH  14  15
ENDBRANCH   1  14
TORSDOF 8
