REMARK  Name = ZINC43403250
REMARK  5 active torsions:
REMARK  status: ('A' for Active; 'I' for Inactive)
REMARK    1  A    between atoms: C_1  and  C_2
REMARK    2  A    between atoms: C_3  and  S_8
REMARK    3  A    between atoms: S_8  and  C_9
REMARK    4  A    between atoms: C_9  and  C_11
REMARK    5  A    between atoms: C_9  and  C_12
REMARK                            x       y       z     vdW  Elec       q    Type
REMARK                         _______ _______ _______ _____ _____    ______ ____
ROOT
ATOM      1  C   UNL     1       0.003  -1.562  -3.855  0.00  0.00    +0.135 C 
ATOM      2  C   UNL     1      -1.292  -2.345  -3.634  0.00  0.00    +0.029 C 
ENDROOT
BRANCH   1   3
ATOM      3  C   UNL     1       0.114  -1.174  -5.307  0.00  0.00    +0.228 C 
ATOM      4  O   UNL     1      -0.183  -0.052  -5.659  0.00  0.00    -0.274 OA
ATOM      5  N   UNL     1       0.543  -2.074  -6.214  0.00  0.00    -0.304 N 
ATOM      6  C   UNL     1       0.903  -3.442  -5.811  0.00  0.00    +0.089 C 
ATOM      7  C   UNL     1       0.172  -4.427  -6.730  0.00  0.00    -0.063 C 
ATOM      8  N   UNL     1       0.478  -4.107  -8.130  0.00  0.00    +0.381 N 
ATOM      9  C   UNL     1      -0.055  -2.782  -8.469  0.00  0.00    -0.063 C 
ATOM     10  C   UNL     1       0.659  -1.717  -7.637  0.00  0.00    +0.089 C 
ATOM     11  H   UNL     1       1.478  -4.111  -8.264  0.00  0.00    -0.086 HD
ATOM     12  H   UNL     1       0.059  -4.801  -8.731  0.00  0.00    -0.086 HD
ENDBRANCH   1   3
BRANCH   1  13
ATOM     13  S   UNL     1      -0.012  -0.066  -2.829  0.00  0.00    -0.104 S 
BRANCH  13  16
ATOM     14  C   UNL     1      -0.018   1.503   0.010  0.00  0.00    +0.067 C 
ATOM     15  C   UNL     1       0.002  -0.004   0.002  0.00  0.00    +0.061 A 
ATOM     16  C   UNL     1       0.005  -0.682  -1.178  0.00  0.00    +0.070 A 
ATOM     17  S   UNL     1       0.031  -2.370  -0.589  0.00  0.00    -0.046 S 
ATOM     18  C   UNL     1       0.035  -1.995   1.158  0.00  0.00    +0.157 A 
ATOM     19  N   UNL     1       0.022  -0.675   1.141  0.00  0.00    -0.229 NA
ATOM     20  N   UNL     1       0.052  -2.861   2.245  0.00  0.00    -0.337 N 
ATOM     21  H   UNL     1       0.065  -3.820   2.100  0.00  0.00    +0.144 HD
ATOM     22  H   UNL     1       0.052  -2.507   3.148  0.00  0.00    +0.144 HD
ENDBRANCH  13  16
ENDBRANCH   1  13
TORSDOF 3
