REMARK  Name = ZINC33609043
REMARK  3 active torsions:
REMARK  status: ('A' for Active; 'I' for Inactive)
REMARK    1  A    between atoms: C_4  and  S_7
REMARK    2  A    between atoms: S_7  and  C_10
REMARK    3  A    between atoms: C_14  and  N_16
REMARK                            x       y       z     vdW  Elec       q    Type
REMARK                         _______ _______ _______ _____ _____    ______ ____
ROOT
ATOM      1  C   UNL     1       3.151   0.678  -1.708  0.00  0.00    +0.095 A 
ATOM      2  C   UNL     1       2.743  -0.467  -2.368  0.00  0.00    +0.029 A 
ATOM      3  C   UNL     1       3.081  -0.661  -3.695  0.00  0.00    +0.024 A 
ATOM      4  C   UNL     1       3.837   0.284  -4.362  0.00  0.00    +0.062 A 
ATOM      5  C   UNL     1       4.253   1.433  -3.700  0.00  0.00    +0.045 A 
ATOM      6  C   UNL     1       3.907   1.626  -2.369  0.00  0.00    +0.051 A 
ATOM      7 CL   UNL     1       4.266   0.036  -6.026  0.00  0.00    -0.082 Cl
ENDROOT
BRANCH   1   8
ATOM      8  S   UNL     1       2.713   0.923  -0.019  0.00  0.00    +0.025 S 
ATOM      9  O   UNL     1       3.680   1.809   0.527  0.00  0.00    -0.164 OA
ATOM     10  O   UNL     1       2.464  -0.365   0.527  0.00  0.00    -0.164 OA
BRANCH   8  14
ATOM     11  C   UNL     1      -1.238   3.133   0.030  0.00  0.00    +0.000 A 
ATOM     12  C   UNL     1      -1.219   1.751   0.017  0.00  0.00    +0.002 A 
ATOM     13  C   UNL     1      -0.013   1.076   0.008  0.00  0.00    +0.027 A 
ATOM     14  C   UNL     1       1.175   1.783   0.000  0.00  0.00    +0.094 A 
ATOM     15  C   UNL     1       1.156   3.165   0.008  0.00  0.00    +0.027 A 
ATOM     16  C   UNL     1      -0.050   3.840   0.022  0.00  0.00    +0.002 A 
ENDBRANCH   8  14
ENDBRANCH   1   8
BRANCH   5  17
ATOM     17  N   UNL     1       5.017   2.390  -4.371  0.00  0.00    -0.357 N 
ATOM     18  H   UNL     1       5.346   3.299  -3.846  0.00  0.00    +0.142 HD
ATOM     19  H   UNL     1       5.290   2.236  -5.426  0.00  0.00    +0.142 HD
ENDBRANCH   5  17
TORSDOF 3
