REMARK  Name = ZINC63153079
REMARK  8 active torsions:
REMARK  status: ('A' for Active; 'I' for Inactive)
REMARK    1  A    between atoms: C_1  and  C_2
REMARK    2  A    between atoms: C_5  and  N_12
REMARK    3  A    between atoms: C_7  and  S_8
REMARK    4  A    between atoms: S_8  and  N_11
REMARK    5  A    between atoms: C_13  and  C_15
REMARK    6  A    between atoms: C_15  and  C_16
REMARK    7  A    between atoms: C_16  and  C_17
REMARK    8  A    between atoms: C_25  and  C_27
REMARK                            x       y       z     vdW  Elec       q    Type
REMARK                         _______ _______ _______ _____ _____    ______ ____
ROOT
ATOM      1  C   UNL     1      -0.236  -6.847  -2.628  0.00  0.00    +0.043 C 
ENDROOT
BRANCH   1   2
ATOM      2  C   UNL     1      -0.330  -8.351  -2.628  0.00  0.00    -0.034 C 
ATOM      3  C   UNL     1      -0.333  -9.166  -1.549  0.00  0.00    +0.002 A 
ATOM      4  C   UNL     1      -0.254  -8.905  -0.106  0.00  0.00    +0.048 A 
ATOM      5  C   UNL     1      -0.281  -9.951   0.753  0.00  0.00    +0.124 A 
ATOM      6  C   UNL     1      -0.383 -11.276   0.298  0.00  0.00    +0.040 A 
ATOM      7  C   UNL     1      -0.460 -11.593  -1.011  0.00  0.00    +0.029 A 
ATOM      8  C   UNL     1      -0.441 -10.571  -2.001  0.00  0.00    +0.043 A 
ATOM      9  N   UNL     1      -0.501 -10.623  -3.310  0.00  0.00    -0.374 N 
ATOM     10  C   UNL     1      -0.446  -9.255  -3.835  0.00  0.00    +0.137 C 
ATOM     11  F   UNL     1      -0.207  -9.715   2.081  0.00  0.00    -0.205 F 
ATOM     12  H   UNL     1      -0.574 -11.431  -3.841  0.00  0.00    +0.161 HD
BRANCH  10  13
ATOM     13  C   UNL     1      -1.703  -8.938  -4.603  0.00  0.00    -0.021 A 
ATOM     14  C   UNL     1      -2.920  -9.428  -4.166  0.00  0.00    +0.009 A 
ATOM     15  C   UNL     1      -4.074  -9.138  -4.869  0.00  0.00    +0.039 A 
ATOM     16  C   UNL     1      -4.012  -8.357  -6.010  0.00  0.00    +0.123 A 
ATOM     17  C   UNL     1      -2.792  -7.866  -6.446  0.00  0.00    +0.039 A 
ATOM     18  C   UNL     1      -1.640  -8.153  -5.739  0.00  0.00    +0.009 A 
ATOM     19  F   UNL     1      -5.139  -8.073  -6.698  0.00  0.00    -0.205 F 
ENDBRANCH  10  13
ENDBRANCH   1   2
BRANCH   1  20
ATOM     20  C   UNL     1      -0.134  -6.343  -1.187  0.00  0.00    +0.100 C 
BRANCH  20  22
ATOM     21  N   UNL     1       0.059  -4.170  -0.021  0.00  0.00    -0.285 N 
ATOM     22  C   UNL     1      -0.040  -4.839  -1.187  0.00  0.00    +0.217 C 
ATOM     23  O   UNL     1      -0.054  -4.230  -2.236  0.00  0.00    -0.275 OA
ATOM     24  H   UNL     1       0.147  -4.658   0.812  0.00  0.00    +0.155 HD
BRANCH  21  29
ATOM     25  C   UNL     1      -0.041   1.502   0.014  0.00  0.00    +0.046 C 
ATOM     26  C   UNL     1      -0.015  -0.004   0.004  0.00  0.00    -0.024 A 
ATOM     27  C   UNL     1      -0.752  -0.702  -0.935  0.00  0.00    +0.007 A 
ATOM     28  C   UNL     1      -0.730  -2.082  -0.946  0.00  0.00    +0.023 A 
ATOM     29  C   UNL     1       0.034  -2.771  -0.013  0.00  0.00    +0.035 A 
ATOM     30  C   UNL     1       0.773  -2.068   0.929  0.00  0.00    +0.052 A 
ATOM     31  C   UNL     1       0.751  -0.686   0.932  0.00  0.00    +0.110 A 
BRANCH  31  32
ATOM     32  S   UNL     1       1.694   0.207   2.122  0.00  0.00    +0.056 S 
ATOM     33  O   UNL     1       0.818   1.167   2.697  0.00  0.00    -0.153 OA
ATOM     34  O   UNL     1       2.382  -0.760   2.904  0.00  0.00    -0.153 OA
BRANCH  32  35
ATOM     35  N   UNL     1       2.849   1.056   1.294  0.00  0.00    -0.204 NA
ATOM     36  H   UNL     1       2.898   0.993   0.328  0.00  0.00    +0.144 HD
ATOM     37  H   UNL     1       3.477   1.618   1.776  0.00  0.00    +0.144 HD
ENDBRANCH  32  35
ENDBRANCH  31  32
ENDBRANCH  21  29
ENDBRANCH  20  22
ENDBRANCH   1  20
TORSDOF 7
