REMARK  Name = ZINC39673339
REMARK  7 active torsions:
REMARK  status: ('A' for Active; 'I' for Inactive)
REMARK    1  A    between atoms: C_1  and  C_2
REMARK    2  A    between atoms: C_7  and  C_10
REMARK    3  A    between atoms: C_14  and  C_23
REMARK    4  A    between atoms: N_25  and  C_26
REMARK    5  A    between atoms: C_26  and  C_27
REMARK    6  A    between atoms: C_30  and  O_33
REMARK    7  A    between atoms: O_33  and  C_34
REMARK                            x       y       z     vdW  Elec       q    Type
REMARK                         _______ _______ _______ _____ _____    ______ ____
ROOT
ATOM      1  C   UNL     1      -2.002  -2.780  -4.080  0.00  0.00    +0.219 C 
ATOM      2  O   UNL     1      -2.795  -2.077  -4.669  0.00  0.00    -0.275 OA
ATOM      3  N   UNL     1      -2.092  -4.122  -4.171  0.00  0.00    -0.300 N 
ATOM      4  C   UNL     1      -1.168  -5.135  -3.610  0.00  0.00    +0.121 C 
ATOM      5  C   UNL     1      -2.091  -6.266  -3.102  0.00  0.00    +0.100 C 
ATOM      6  C   UNL     1      -3.381  -6.119  -3.925  0.00  0.00    -0.004 C 
ATOM      7  C   UNL     1      -3.142  -4.917  -4.851  0.00  0.00    +0.115 C 
ATOM      8  C   UNL     1      -4.566  -5.841  -3.005  0.00  0.00    -0.010 C 
ATOM      9  C   UNL     1      -5.846  -5.755  -3.841  0.00  0.00    -0.082 C 
ATOM     10  N   UNL     1      -6.047  -7.018  -4.563  0.00  0.00    +0.379 N 
ATOM     11  C   UNL     1      -4.948  -7.232  -5.513  0.00  0.00    -0.082 C 
ATOM     12  C   UNL     1      -3.630  -7.379  -4.748  0.00  0.00    -0.010 C 
ATOM     13  H   UNL     1      -6.072  -7.780  -3.903  0.00  0.00    -0.086 HD
ATOM     14  H   UNL     1      -6.921  -6.982  -5.065  0.00  0.00    -0.086 HD
ENDROOT
BRANCH   1  21
ATOM     15  C   UNL     1       0.957   2.274  -1.730  0.00  0.00    +0.109 C 
ATOM     16  C   UNL     1       1.446   1.146  -2.600  0.00  0.00    +0.212 C 
ATOM     17  O   UNL     1       2.374   1.325  -3.361  0.00  0.00    -0.276 OA
ATOM     18  N   UNL     1       0.853  -0.062  -2.535  0.00  0.00    -0.302 N 
ATOM     19  C   UNL     1       1.396  -1.205  -3.282  0.00  0.00    +0.108 C 
ATOM     20  C   UNL     1       0.280  -1.810  -4.139  0.00  0.00    +0.032 C 
ATOM     21  C   UNL     1      -0.914  -2.154  -3.245  0.00  0.00    +0.078 C 
ATOM     22  C   UNL     1      -1.446  -0.878  -2.589  0.00  0.00    +0.032 C 
ATOM     23  C   UNL     1      -0.346  -0.264  -1.710  0.00  0.00    +0.108 C 
ENDBRANCH   1  21
BRANCH   5  24
ATOM     24  C   UNL     1      -2.379  -6.088  -1.634  0.00  0.00    +0.218 C 
ATOM     25  O   UNL     1      -2.488  -4.974  -1.167  0.00  0.00    -0.275 OA
ATOM     26  N   UNL     1      -2.516  -7.168  -0.839  0.00  0.00    -0.311 N 
ATOM     27  H   UNL     1      -2.429  -8.059  -1.212  0.00  0.00    +0.149 HD
BRANCH  26  28
ATOM     28  C   UNL     1      -2.797  -6.996   0.589  0.00  0.00    +0.139 C 
BRANCH  28  29
ATOM     29  C   UNL     1      -2.903  -8.347   1.247  0.00  0.00    -0.030 A 
ATOM     30  C   UNL     1      -4.126  -8.988   1.314  0.00  0.00    +0.009 A 
ATOM     31  C   UNL     1      -4.226 -10.227   1.917  0.00  0.00    +0.046 A 
ATOM     32  C   UNL     1      -3.098 -10.828   2.455  0.00  0.00    +0.127 A 
ATOM     33  C   UNL     1      -1.871 -10.184   2.386  0.00  0.00    +0.046 A 
ATOM     34  C   UNL     1      -1.775  -8.947   1.777  0.00  0.00    +0.009 A 
BRANCH  32  35
ATOM     35  O   UNL     1      -3.193 -12.047   3.049  0.00  0.00    -0.434 OA
BRANCH  35  36
ATOM     36  C   UNL     1      -1.990 -12.606   3.581  0.00  0.00    +0.541 C 
ATOM     37  F   UNL     1      -1.054 -12.761   2.553  0.00  0.00    -0.166 F 
ATOM     38  F   UNL     1      -1.471 -11.751   4.559  0.00  0.00    -0.166 F 
ENDBRANCH  35  36
ENDBRANCH  32  35
ENDBRANCH  28  29
ENDBRANCH  26  28
ENDBRANCH   5  24
TORSDOF 6
