REMARK  Name = ZINC39964305
REMARK  7 active torsions:
REMARK  status: ('A' for Active; 'I' for Inactive)
REMARK    1  A    between atoms: C_1  and  C_2
REMARK    2  A    between atoms: C_2  and  C_3
REMARK    3  A    between atoms: C_2  and  O_4
REMARK    4  A    between atoms: O_4  and  C_5
REMARK    5  A    between atoms: C_8  and  C_12
REMARK    6  A    between atoms: C_13  and  C_14
REMARK    7  A    between atoms: C_13  and  C_16
REMARK                            x       y       z     vdW  Elec       q    Type
REMARK                         _______ _______ _______ _____ _____    ______ ____
ROOT
ATOM      1  C   UNL     1       6.205  -1.395  -0.975  0.00  0.00    +0.026 C 
ATOM      2  C   UNL     1       6.814  -1.978  -2.029  0.00  0.00    +0.072 C 
ENDROOT
BRANCH   2   3
ATOM      3  C   UNL     1       6.078  -2.127  -3.336  0.00  0.00    +0.216 C 
ATOM      4  N   UNL     1       6.215  -3.500  -3.838  0.00  0.00    -0.359 N 
ATOM      5  C   UNL     1       6.812  -3.436  -4.993  0.00  0.00    +0.060 A 
ATOM      6  C   UNL     1       7.221  -4.459  -5.965  0.00  0.00    +0.027 A 
ATOM      7  C   UNL     1       7.836  -4.086  -7.104  0.00  0.00    +0.002 A 
ATOM      8  C   UNL     1       8.111  -2.742  -7.412  0.00  0.00    +0.002 A 
ATOM      9  C   UNL     1       7.780  -1.725  -6.591  0.00  0.00    +0.027 A 
ATOM     10  C   UNL     1       7.103  -2.013  -5.319  0.00  0.00    +0.060 A 
ATOM     11  N   UNL     1       6.674  -1.253  -4.353  0.00  0.00    -0.359 N 
ATOM     12  H   UNL     1       5.917  -4.308  -3.391  0.00  0.00    +0.162 HD
ATOM     13  H   UNL     1       6.737  -0.286  -4.313  0.00  0.00    +0.162 HD
ENDBRANCH   2   3
BRANCH   1  17
ATOM     14  C   UNL     1       2.406   0.428  -1.462  0.00  0.00    +0.135 A 
ATOM     15  C   UNL     1       3.339   0.487  -2.490  0.00  0.00    +0.047 A 
ATOM     16  C   UNL     1       4.574  -0.103  -2.337  0.00  0.00    +0.011 A 
ATOM     17  C   UNL     1       4.888  -0.763  -1.143  0.00  0.00    -0.023 A 
ATOM     18  C   UNL     1       3.946  -0.819  -0.111  0.00  0.00    +0.027 A 
ATOM     19  C   UNL     1       2.715  -0.220  -0.272  0.00  0.00    +0.060 A 
ATOM     20 BR   UNL     1       1.442  -0.288   1.125  0.00  0.00    -0.046 Br
BRANCH  14  21
ATOM     21  O   UNL     1       1.190   1.012  -1.618  0.00  0.00    -0.488 OA
BRANCH  21  23
ATOM     22  C   UNL     1       0.464   0.613  -3.889  0.00  0.00    +0.051 C 
ATOM     23  C   UNL     1       0.933   1.653  -2.869  0.00  0.00    +0.167 C 
ATOM     24  C   UNL     1      -0.154   2.713  -2.686  0.00  0.00    +0.051 C 
ENDBRANCH  21  23
ENDBRANCH  14  21
ENDBRANCH   1  17
BRANCH   2  25
ATOM     25  C   UNL     1       8.158  -2.455  -1.906  0.00  0.00    +0.099 C 
ATOM     26  N   UNL     1       9.225  -2.834  -1.809  0.00  0.00    -0.191 NA
ENDBRANCH   2  25
TORSDOF 5
