REMARK  Name = ZINC06807750
REMARK  9 active torsions:
REMARK  status: ('A' for Active; 'I' for Inactive)
REMARK    1  A    between atoms: C_1  and  C_2
REMARK    2  A    between atoms: C_5  and  N_9
REMARK    3  A    between atoms: C_6  and  C_8
REMARK    4  A    between atoms: C_10  and  C_12
REMARK    5  A    between atoms: C_12  and  C_14
REMARK    6  A    between atoms: C_12  and  N_15
REMARK    7  A    between atoms: C_16  and  C_32
REMARK    8  A    between atoms: N_20  and  C_26
REMARK    9  A    between atoms: C_24  and  C_25
REMARK                            x       y       z     vdW  Elec       q    Type
REMARK                         _______ _______ _______ _____ _____    ______ ____
ROOT
ATOM      1  N   UNL     1       4.357   0.681   0.325  0.00  0.00    -0.335 N 
ATOM      2  C   UNL     1       3.552   1.762   0.513  0.00  0.00    +0.026 A 
ATOM      3  C   UNL     1       2.277   1.328   0.664  0.00  0.00    +0.028 A 
ATOM      4  C   UNL     1       0.969   1.947   0.891  0.00  0.00    +0.143 A 
ATOM      5  N   UNL     1      -0.089   1.202   0.990  0.00  0.00    -0.171 NA
ATOM      6  N   UNL     1      -0.065  -0.188   0.891  0.00  0.00    -0.196 N 
ATOM      7  C   UNL     1       1.073  -0.883   0.683  0.00  0.00    +0.281 A 
ATOM      8  O   UNL     1       1.052  -2.098   0.604  0.00  0.00    -0.265 OA
ATOM      9  C   UNL     1       2.333  -0.147   0.555  0.00  0.00    +0.071 A 
ATOM     10  C   UNL     1       3.637  -0.461   0.349  0.00  0.00    +0.030 A 
ATOM     11  C   UNL     1       4.190  -1.852   0.176  0.00  0.00    +0.064 C 
ATOM     12  C   UNL     1       4.003   3.200   0.548  0.00  0.00    +0.064 C 
ENDROOT
BRANCH   6  13
ATOM     13  C   UNL     1      -1.268  -0.890   1.013  0.00  0.00    +0.069 A 
ATOM     14  C   UNL     1      -1.610  -1.853   0.072  0.00  0.00    +0.028 A 
ATOM     15  C   UNL     1      -2.796  -2.549   0.198  0.00  0.00    +0.002 A 
ATOM     16  C   UNL     1      -3.648  -2.280   1.253  0.00  0.00    +0.000 A 
ATOM     17  C   UNL     1      -3.314  -1.318   2.189  0.00  0.00    +0.002 A 
ATOM     18  C   UNL     1      -2.126  -0.623   2.072  0.00  0.00    +0.028 A 
ENDBRANCH   6  13
BRANCH   1  19
ATOM     19  C   UNL     1       5.806   0.747   0.124  0.00  0.00    +0.170 C 
ATOM     20  C   UNL     1       6.105   1.423  -1.216  0.00  0.00    +0.041 C 
BRANCH  19  22
ATOM     21  N   UNL     1       7.766   1.738   1.263  0.00  0.00    -0.284 N 
ATOM     22  C   UNL     1       6.433   1.544   1.240  0.00  0.00    +0.240 C 
ATOM     23  O   UNL     1       5.737   2.010   2.116  0.00  0.00    -0.273 OA
ATOM     24  H   UNL     1       8.316   1.417   0.531  0.00  0.00    +0.155 HD
BRANCH  21  29
ATOM     25  C   UNL     1      10.164   4.431   5.642  0.00  0.00    +0.044 C 
ATOM     26  C   UNL     1       9.527   3.716   4.479  0.00  0.00    -0.050 A 
ATOM     27  C   UNL     1       8.228   4.016   4.111  0.00  0.00    +0.005 A 
ATOM     28  C   UNL     1       7.642   3.362   3.046  0.00  0.00    +0.024 A 
ATOM     29  C   UNL     1       8.358   2.402   2.343  0.00  0.00    +0.036 A 
ATOM     30  C   UNL     1       9.660   2.098   2.718  0.00  0.00    -0.029 A 
ATOM     31  C   UNL     1      10.243   2.760   3.781  0.00  0.00    +0.008 A 
ATOM     32  C   UNL     1      10.438   1.052   1.962  0.00  0.00    +0.045 C 
ENDBRANCH  21  29
ENDBRANCH  19  22
ENDBRANCH   1  19
TORSDOF 4
