REMARK  Name = ZINC17358812
REMARK  3 active torsions:
REMARK  status: ('A' for Active; 'I' for Inactive)
REMARK    1  A    between atoms: C_5  and  C_7
REMARK    2  A    between atoms: N_9  and  N_10
REMARK    3  A    between atoms: C_11  and  C_13
REMARK                            x       y       z     vdW  Elec       q    Type
REMARK                         _______ _______ _______ _____ _____    ______ ____
ROOT
ATOM      1  C   UNL     1      -3.571   1.812   0.029  0.00  0.00    +0.261 C 
ATOM      2  O   UNL     1      -3.587   3.028   0.035  0.00  0.00    -0.269 OA
ATOM      3  N   UNL     1      -2.394   1.154   0.020  0.00  0.00    -0.230 N 
ATOM      4  H   UNL     1      -2.381   0.184   0.014  0.00  0.00    +0.173 HD
ENDROOT
BRANCH   1   9
ATOM      5  C   UNL     1      -6.013  -1.040   0.025  0.00  0.00    +0.001 A 
ATOM      6  C   UNL     1      -7.220  -0.362   0.034  0.00  0.00    +0.001 A 
ATOM      7  C   UNL     1      -7.244   1.021   0.042  0.00  0.00    +0.016 A 
ATOM      8  C   UNL     1      -6.061   1.734   0.040  0.00  0.00    +0.030 A 
ATOM      9  C   UNL     1      -4.840   1.056   0.031  0.00  0.00    +0.052 A 
ATOM     10  C   UNL     1      -4.825  -0.340   0.017  0.00  0.00    +0.014 A 
ATOM     11 BR   UNL     1      -6.095   3.625   0.050  0.00  0.00    -0.050 Br
ENDBRANCH   1   9
BRANCH   3  12
ATOM     12  N   UNL     1      -1.191   1.871   0.018  0.00  0.00    -0.228 N 
ATOM     13  C   UNL     1      -0.014   1.213   0.009  0.00  0.00    +0.298 C 
ATOM     14  O   UNL     1       0.002  -0.004   0.002  0.00  0.00    -0.265 OA
ATOM     15  H   UNL     1      -1.204   2.841   0.023  0.00  0.00    +0.173 HD
BRANCH  13  16
ATOM     16  C   UNL     1       1.243   1.962   0.001  0.00  0.00    +0.218 C 
ATOM     17  C   UNL     1       1.207   3.301   0.003  0.00  0.00    +0.238 C 
ATOM     18  O   UNL     1       2.336   4.041  -0.006  0.00  0.00    -0.492 OA
ATOM     19  C   UNL     1       3.551   3.371   0.349  0.00  0.00    +0.269 C 
ATOM     20  C   UNL     1       3.587   2.026  -0.391  0.00  0.00    +0.270 C 
ATOM     21  O   UNL     1       2.423   1.281  -0.014  0.00  0.00    -0.481 OA
ENDBRANCH  13  16
ENDBRANCH   3  12
TORSDOF 3
