REMARK  Name = ZINC48375011
REMARK  9 active torsions:
REMARK  status: ('A' for Active; 'I' for Inactive)
REMARK    1  A    between atoms: C_1  and  C_2
REMARK    2  A    between atoms: C_6  and  N_9
REMARK    3  A    between atoms: C_7  and  C_8
REMARK    4  A    between atoms: C_13  and  C_15
REMARK    5  A    between atoms: C_15  and  N_16
REMARK    6  A    between atoms: N_16  and  C_17
REMARK    7  A    between atoms: C_17  and  C_19
REMARK    8  A    between atoms: C_17  and  C_25
REMARK    9  A    between atoms: C_30  and  C_33
REMARK                            x       y       z     vdW  Elec       q    Type
REMARK                         _______ _______ _______ _____ _____    ______ ____
ROOT
ATOM      1  N   UNL     1      -0.012  -8.505   4.557  0.00  0.00    -0.294 NA
ATOM      2  H   UNL     1      -0.759  -8.440   3.881  0.00  0.00    +0.123 HD
ENDROOT
BRANCH   1   3
ATOM      3  C   UNL     1       0.581  -7.186   4.815  0.00  0.00    +0.178 C 
BRANCH   3   8
ATOM      4  N   UNL     1       2.633  -3.612   2.340  0.00  0.00    -0.269 N 
ATOM      5  C   UNL     1       2.052  -4.828   2.347  0.00  0.00    +0.310 C 
ATOM      6  O   UNL     1       1.907  -5.439   1.306  0.00  0.00    -0.252 OA
ATOM      7  N   UNL     1       1.631  -5.367   3.509  0.00  0.00    -0.239 N 
ATOM      8  C   UNL     1       1.050  -6.583   3.516  0.00  0.00    +0.234 C 
ATOM      9  O   UNL     1       0.906  -7.192   2.478  0.00  0.00    -0.274 OA
ATOM     10  H   UNL     1       2.822  -3.160   3.177  0.00  0.00    +0.156 HD
ATOM     11  H   UNL     1       1.747  -4.880   4.340  0.00  0.00    +0.159 HD
BRANCH   4  17
ATOM     12  C   UNL     1       5.356  -0.379  -0.170  0.00  0.00    +0.044 C 
ATOM     13  C   UNL     1       4.279  -1.431  -0.121  0.00  0.00    -0.046 A 
ATOM     14  C   UNL     1       3.615  -1.795  -1.278  0.00  0.00    +0.004 A 
ATOM     15  C   UNL     1       2.626  -2.760  -1.237  0.00  0.00    +0.002 A 
ATOM     16  C   UNL     1       2.298  -3.364  -0.039  0.00  0.00    +0.023 A 
ATOM     17  C   UNL     1       2.963  -3.002   1.125  0.00  0.00    +0.038 A 
ATOM     18  C   UNL     1       3.960  -2.036   1.079  0.00  0.00    -0.026 A 
ATOM     19  C   UNL     1       4.688  -1.644   2.339  0.00  0.00    +0.046 C 
ENDBRANCH   4  17
ENDBRANCH   3   8
ENDBRANCH   1   3
BRANCH   1  20
ATOM     20  C   UNL     1      -0.482  -9.124   5.803  0.00  0.00    +0.172 C 
BRANCH  20  21
ATOM     21  C   UNL     1      -0.504 -10.622   5.643  0.00  0.00    +0.237 C 
ATOM     22  O   UNL     1      -0.675 -11.113   4.547  0.00  0.00    -0.274 OA
ATOM     23  N   UNL     1      -0.333 -11.418   6.718  0.00  0.00    -0.300 N 
ATOM     24  C   UNL     1      -0.241 -10.843   8.067  0.00  0.00    +0.108 C 
ATOM     25  C   UNL     1      -1.274 -11.531   8.966  0.00  0.00    +0.022 C 
ATOM     26  C   UNL     1      -1.063 -13.046   8.913  0.00  0.00    -0.011 C 
ATOM     27  C   UNL     1      -1.266 -13.540   7.479  0.00  0.00    +0.022 C 
ATOM     28  C   UNL     1      -0.240 -12.876   6.563  0.00  0.00    +0.108 C 
ATOM     29  C   UNL     1      -2.070 -13.734   9.837  0.00  0.00    +0.007 C 
ENDBRANCH  20  21
BRANCH  20  30
ATOM     30  C   UNL     1      -1.872  -8.632   6.115  0.00  0.00    -0.022 A 
ATOM     31  C   UNL     1      -2.846  -8.645   5.135  0.00  0.00    +0.005 A 
ATOM     32  C   UNL     1      -4.121  -8.194   5.421  0.00  0.00    +0.000 A 
ATOM     33  C   UNL     1      -4.422  -7.730   6.688  0.00  0.00    +0.000 A 
ATOM     34  C   UNL     1      -3.449  -7.718   7.669  0.00  0.00    +0.000 A 
ATOM     35  C   UNL     1      -2.175  -8.174   7.384  0.00  0.00    +0.005 A 
ENDBRANCH  20  30
ENDBRANCH   1  20
TORSDOF 6
