REMARK  Name = ZINC42561248
REMARK  6 active torsions:
REMARK  status: ('A' for Active; 'I' for Inactive)
REMARK    1  A    between atoms: C_1  and  C_2
REMARK    2  A    between atoms: C_2  and  C_4
REMARK    3  A    between atoms: C_2  and  N_8
REMARK    4  A    between atoms: N_6  and  C_7
REMARK    5  A    between atoms: N_8  and  C_9
REMARK    6  A    between atoms: C_12  and  N_19
REMARK                            x       y       z     vdW  Elec       q    Type
REMARK                         _______ _______ _______ _____ _____    ______ ____
ROOT
ATOM      1  C   UNL     1       0.026  -0.639   2.400  0.00  0.00    +0.052 A 
ATOM      2  C   UNL     1      -1.315  -0.336   2.477  0.00  0.00    +0.027 A 
ATOM      3  C   UNL     1      -2.013  -0.478   3.672  0.00  0.00    +0.025 A 
ATOM      4  C   UNL     1      -1.377  -0.927   4.810  0.00  0.00    +0.034 A 
ATOM      5  C   UNL     1      -0.004  -1.245   4.761  0.00  0.00    +0.021 A 
ATOM      6  C   UNL     1       0.706  -1.106   3.544  0.00  0.00    +0.069 A 
ATOM      7  N   UNL     1       2.006  -1.412   3.494  0.00  0.00    -0.359 N 
ATOM      8  C   UNL     1       2.646  -1.847   4.553  0.00  0.00    +0.083 A 
ATOM      9  C   UNL     1       2.005  -2.012   5.778  0.00  0.00    +0.018 A 
ATOM     10  C   UNL     1       0.679  -1.706   5.901  0.00  0.00    +0.013 A 
ATOM     11  H   UNL     1       2.487  -1.310   2.657  0.00  0.00    +0.165 HD
ENDROOT
BRANCH   4  12
ATOM     12  N   UNL     1      -2.088  -1.065   6.004  0.00  0.00    -0.357 N 
ATOM     13  H   UNL     1      -3.032  -0.845   6.034  0.00  0.00    +0.142 HD
ATOM     14  H   UNL     1      -1.637  -1.381   6.803  0.00  0.00    +0.142 HD
ENDBRANCH   4  12
BRANCH   1  15
ATOM     15  N   UNL     1       0.711  -0.489   1.189  0.00  0.00    -0.332 N 
ATOM     16  H   UNL     1       1.654  -0.707   1.135  0.00  0.00    +0.147 HD
BRANCH  15  18
ATOM     17  C   UNL     1      -0.019   1.526   0.010  0.00  0.00    +0.038 C 
ATOM     18  C   UNL     1       0.002  -0.004   0.002  0.00  0.00    +0.154 C 
BRANCH  18  19
ATOM     19  C   UNL     1       0.707  -0.490  -1.238  0.00  0.00    +0.233 C 
ATOM     20  O   UNL     1       1.704  -1.174  -1.140  0.00  0.00    -0.274 OA
ATOM     21  N   UNL     1       0.231  -0.164  -2.456  0.00  0.00    -0.317 N 
ATOM     22  C   UNL     1       0.917  -0.637  -3.661  0.00  0.00    +0.128 C 
ATOM     23  H   UNL     1      -0.566   0.383  -2.534  0.00  0.00    +0.148 HD
ENDBRANCH  18  19
ENDBRANCH  15  18
ENDBRANCH   1  15
TORSDOF 4
