REMARK  Name = ZINC14984463
REMARK  10 active torsions:
REMARK  status: ('A' for Active; 'I' for Inactive)
REMARK    1  A    between atoms: C_1  and  C_2
REMARK    2  A    between atoms: C_2  and  C_3
REMARK    3  A    between atoms: C_5  and  O_26
REMARK    4  A    between atoms: C_8  and  O_9
REMARK    5  A    between atoms: O_9  and  C_10
REMARK    6  A    between atoms: C_12  and  O_25
REMARK    7  A    between atoms: C_14  and  O_24
REMARK    8  A    between atoms: C_16  and  O_23
REMARK    9  A    between atoms: C_18  and  C_21
REMARK   10  A    between atoms: C_21  and  O_22
REMARK                            x       y       z     vdW  Elec       q    Type
REMARK                         _______ _______ _______ _____ _____    ______ ____
ROOT
ATOM      1  C   UNL     1       3.547   2.343  -0.019  0.00  0.00    +0.339 C 
ATOM      2  C   UNL     1       4.760   1.447  -0.285  0.00  0.00    +0.214 C 
ATOM      3  C   UNL     1       6.034   2.295  -0.231  0.00  0.00    +0.180 C 
ATOM      4  C   UNL     1       6.113   2.992   1.131  0.00  0.00    +0.177 C 
ATOM      5  C   UNL     1       4.849   3.829   1.342  0.00  0.00    +0.179 C 
ATOM      6  O   UNL     1       3.700   2.984   1.249  0.00  0.00    -0.331 OA
ENDROOT
BRANCH   4   7
ATOM      7  O   UNL     1       6.214   2.010   2.164  0.00  0.00    -0.386 OA
ATOM      8  H   UNL     1       6.994   1.443   2.093  0.00  0.00    +0.210 HD
ENDBRANCH   4   7
BRANCH   3   9
ATOM      9  O   UNL     1       7.177   1.456  -0.406  0.00  0.00    -0.386 OA
ATOM     10  H   UNL     1       7.192   0.983  -1.249  0.00  0.00    +0.210 HD
ENDBRANCH   3   9
BRANCH   2  11
ATOM     11  O   UNL     1       4.638   0.850  -1.577  0.00  0.00    -0.383 OA
ATOM     12  H   UNL     1       3.849   0.301  -1.684  0.00  0.00    +0.210 HD
ENDBRANCH   2  11
BRANCH   1  13
ATOM     13  O   UNL     1       2.360   1.549  -0.012  0.00  0.00    -0.461 OA
BRANCH  13  19
ATOM     14  C   UNL     1      -0.018   1.503   0.010  0.00  0.00    -0.002 A 
ATOM     15  C   UNL     1      -1.224   2.177   0.020  0.00  0.00    +0.052 A 
ATOM     16  C   UNL     1      -1.243   3.564   0.033  0.00  0.00    +0.117 A 
ATOM     17  C   UNL     1      -0.051   4.274   0.026  0.00  0.00    +0.049 A 
ATOM     18  C   UNL     1       1.154   3.599   0.010  0.00  0.00    +0.049 A 
ATOM     19  C   UNL     1       1.173   2.212   0.003  0.00  0.00    +0.127 A 
BRANCH  14  21
ATOM     20  C   UNL     1       0.148  -0.520   1.435  0.00  0.00    +0.009 C 
ATOM     21  C   UNL     1       0.002  -0.004   0.002  0.00  0.00    +0.035 C 
ENDBRANCH  14  21
BRANCH  16  22
ATOM     22  O   UNL     1      -2.429   4.228   0.048  0.00  0.00    -0.507 OA
ATOM     23  H   UNL     1      -2.781   4.424  -0.831  0.00  0.00    +0.292 HD
ENDBRANCH  16  22
ENDBRANCH  13  19
ENDBRANCH   1  13
BRANCH   5  24
ATOM     24  C   UNL     1       4.893   4.480   2.726  0.00  0.00    +0.190 C 
BRANCH  24  25
ATOM     25  O   UNL     1       3.770   5.351   2.878  0.00  0.00    -0.392 OA
ATOM     26  H   UNL     1       3.734   5.800   3.734  0.00  0.00    +0.210 HD
ENDBRANCH  24  25
ENDBRANCH   5  24
TORSDOF 9
