REMARK  Name = ZINC04531855
REMARK  3 active torsions:
REMARK  status: ('A' for Active; 'I' for Inactive)
REMARK    1  A    between atoms: N_11  and  N_12
REMARK    2  A    between atoms: C_13  and  C_14
REMARK    3  A    between atoms: C_19  and  O_20
REMARK                            x       y       z     vdW  Elec       q    Type
REMARK                         _______ _______ _______ _____ _____    ______ ____
ROOT
ATOM      1  C   UNL     1      -0.017   1.375   0.010  0.00  0.00    +0.002 A 
ATOM      2  C   UNL     1       1.170   2.094   0.002  0.00  0.00    +0.002 A 
ATOM      3  C   UNL     1       2.382   1.442  -0.013  0.00  0.00    +0.030 A 
ATOM      4  C   UNL     1       2.418   0.045  -0.021  0.00  0.00    +0.091 A 
ATOM      5  C   UNL     1       1.214  -0.678  -0.013  0.00  0.00    +0.067 A 
ATOM      6  C   UNL     1       0.002  -0.004   0.002  0.00  0.00    +0.028 A 
ATOM      7  N   UNL     1       1.568  -2.017  -0.024  0.00  0.00    -0.325 N 
ATOM      8  H   UNL     1       0.960  -2.773  -0.022  0.00  0.00    +0.169 HD
ATOM      9  C   UNL     1       2.933  -2.074  -0.037  0.00  0.00    +0.214 A 
ATOM     10  N   UNL     1       3.429  -0.862  -0.035  0.00  0.00    -0.213 NA
ATOM     11  N   UNL     1       3.677  -3.235  -0.051  0.00  0.00    -0.207 N 
ATOM     12  H   UNL     1       3.232  -4.097  -0.051  0.00  0.00    +0.177 HD
ENDROOT
BRANCH  11  13
ATOM     13  N   UNL     1       5.077  -3.170  -0.064  0.00  0.00    -0.187 NA
ATOM     14  C   UNL     1       5.777  -4.263  -0.076  0.00  0.00    +0.142 C 
BRANCH  14  15
ATOM     15  C   UNL     1       7.249  -4.195  -0.090  0.00  0.00    +0.038 A 
ATOM     16  C   UNL     1       8.007  -5.369  -0.109  0.00  0.00    +0.028 A 
ATOM     17  C   UNL     1       9.385  -5.298  -0.122  0.00  0.00    +0.020 A 
ATOM     18  C   UNL     1      10.021  -4.067  -0.116  0.00  0.00    +0.034 A 
ATOM     19  C   UNL     1       9.281  -2.899  -0.096  0.00  0.00    +0.061 A 
ATOM     20  C   UNL     1       7.897  -2.952  -0.089  0.00  0.00    +0.139 A 
ATOM     21 BR   UNL     1      10.162  -1.225  -0.087  0.00  0.00    -0.046 Br
ATOM     22 BR   UNL     1      10.409  -6.887  -0.147  0.00  0.00    -0.050 Br
BRANCH  20  23
ATOM     23  O   UNL     1       7.170  -1.804  -0.077  0.00  0.00    -0.505 OA
ATOM     24  H   UNL     1       6.967  -1.477   0.810  0.00  0.00    +0.292 HD
ENDBRANCH  20  23
ENDBRANCH  14  15
ENDBRANCH  11  13
TORSDOF 3
