REMARK  Name = ZINC02502842
REMARK  5 active torsions:
REMARK  status: ('A' for Active; 'I' for Inactive)
REMARK    1  A    between atoms: N_7  and  C_8
REMARK    2  A    between atoms: C_8  and  C_10
REMARK    3  A    between atoms: C_8  and  C_18
REMARK    4  A    between atoms: C_14  and  O_17
REMARK    5  A    between atoms: C_27  and  O_28
REMARK                            x       y       z     vdW  Elec       q    Type
REMARK                         _______ _______ _______ _____ _____    ______ ____
ROOT
ATOM      1  C   UNL     1       0.018  -2.819  -0.015  0.00  0.00    +0.137 C 
ENDROOT
BRANCH   1   2
ATOM      2  C   UNL     1       0.199  -4.176   0.615  0.00  0.00    +0.021 A 
ATOM      3  C   UNL     1       0.246  -5.307  -0.195  0.00  0.00    +0.010 A 
ATOM      4  C   UNL     1       0.409  -6.548   0.343  0.00  0.00    +0.010 A 
ATOM      5  C   UNL     1       0.532  -6.692   1.734  0.00  0.00    +0.004 A 
ATOM      6  C   UNL     1       0.702  -7.958   2.327  0.00  0.00    +0.011 A 
ATOM      7  C   UNL     1       0.815  -8.023   3.687  0.00  0.00    +0.020 A 
ATOM      8  C   UNL     1       0.760  -6.855   4.445  0.00  0.00    +0.111 A 
ATOM      9  N   UNL     1       0.602  -5.679   3.889  0.00  0.00    -0.251 NA
ATOM     10  C   UNL     1       0.485  -5.546   2.565  0.00  0.00    +0.113 A 
ATOM     11  C   UNL     1       0.321  -4.277   1.972  0.00  0.00    +0.148 A 
BRANCH  11  12
ATOM     12  O   UNL     1       0.278  -3.161   2.746  0.00  0.00    -0.504 OA
ATOM     13  H   UNL     1      -0.617  -2.880   2.981  0.00  0.00    +0.292 HD
ENDBRANCH  11  12
ENDBRANCH   1   2
BRANCH   1  20
ATOM     14  C   UNL     1       0.185   1.370  -0.174  0.00  0.00    +0.005 A 
ATOM     15  C   UNL     1       1.427   1.993  -0.193  0.00  0.00    +0.018 A 
ATOM     16  C   UNL     1       2.571   1.221  -0.158  0.00  0.00    +0.084 A 
ATOM     17  N   UNL     1       2.497  -0.096  -0.108  0.00  0.00    -0.350 N 
ATOM     18  C   UNL     1       1.333  -0.726  -0.089  0.00  0.00    +0.097 A 
ATOM     19  C   UNL     1       0.140  -0.011  -0.121  0.00  0.00    +0.041 A 
ATOM     20  N   UNL     1       1.302  -2.115  -0.036  0.00  0.00    -0.320 N 
ATOM     21  H   UNL     1       2.132  -2.618  -0.013  0.00  0.00    +0.148 HD
ATOM     22  H   UNL     1       3.317  -0.615  -0.085  0.00  0.00    +0.166 HD
ENDBRANCH   1  20
BRANCH   1  23
ATOM     23  C   UNL     1      -0.488  -2.983  -1.425  0.00  0.00    -0.001 A 
ATOM     24  C   UNL     1       0.403  -2.998  -2.482  0.00  0.00    +0.007 A 
ATOM     25  C   UNL     1      -0.058  -3.148  -3.776  0.00  0.00    +0.004 A 
ATOM     26  C   UNL     1      -1.412  -3.285  -4.018  0.00  0.00    +0.047 A 
ATOM     27  C   UNL     1      -2.308  -3.271  -2.960  0.00  0.00    +0.135 A 
ATOM     28  C   UNL     1      -1.843  -3.125  -1.660  0.00  0.00    +0.088 A 
ATOM     29 CL   UNL     1      -2.961  -3.115  -0.332  0.00  0.00    -0.079 Cl
BRANCH  27  30
ATOM     30  O   UNL     1      -3.641  -3.405  -3.195  0.00  0.00    -0.505 OA
ATOM     31  H   UNL     1      -3.951  -4.321  -3.188  0.00  0.00    +0.292 HD
ENDBRANCH  27  30
ENDBRANCH   1  23
TORSDOF 5
