REMARK  Name = ZINC44781577
REMARK  8 active torsions:
REMARK  status: ('A' for Active; 'I' for Inactive)
REMARK    1  A    between atoms: C_1  and  C_2
REMARK    2  A    between atoms: C_2  and  C_3
REMARK    3  A    between atoms: C_2  and  N_4
REMARK    4  A    between atoms: N_4  and  C_5
REMARK    5  A    between atoms: C_5  and  C_6
REMARK    6  A    between atoms: C_9  and  C_11
REMARK    7  A    between atoms: C_11  and  C_18
REMARK    8  A    between atoms: C_18  and  N_20
REMARK                            x       y       z     vdW  Elec       q    Type
REMARK                         _______ _______ _______ _____ _____    ______ ____
ROOT
ATOM      1  N   UNL     1      -2.945  -0.881   1.923  0.00  0.00    -0.289 N 
ATOM      2  C   UNL     1      -3.093  -0.044   2.969  0.00  0.00    +0.228 C 
ATOM      3  O   UNL     1      -4.027  -0.185   3.730  0.00  0.00    -0.275 OA
ENDROOT
BRANCH   2   4
ATOM      4  C   UNL     1      -2.099   1.066   3.192  0.00  0.00    +0.091 C 
ATOM      5  C   UNL     1      -1.992   1.907   1.903  0.00  0.00    +0.023 C 
ATOM      6  C   UNL     1      -3.372   2.080   1.329  0.00  0.00    +0.001 C 
ATOM      7  C   UNL     1      -4.041   3.390   1.787  0.00  0.00    +0.000 C 
ATOM      8  C   UNL     1      -3.805   3.691   3.280  0.00  0.00    +0.000 C 
ATOM      9  C   UNL     1      -3.930   2.464   4.141  0.00  0.00    +0.001 C 
ATOM     10  C   UNL     1      -2.526   1.857   4.337  0.00  0.00    +0.023 C 
BRANCH   4  11
ATOM     11  C   UNL     1      -0.752   0.462   3.491  0.00  0.00    +0.061 C 
ATOM     12  S   UNL     1      -0.581  -0.537   4.728  0.00  0.00    -0.040 S 
BRANCH  11  13
ATOM     13  N   UNL     1       0.309   0.762   2.716  0.00  0.00    -0.355 N 
ATOM     14  H   UNL     1       0.218   1.409   1.999  0.00  0.00    +0.143 HD
ATOM     15  H   UNL     1       1.163   0.332   2.876  0.00  0.00    +0.143 HD
ENDBRANCH  11  13
ENDBRANCH   4  11
ENDBRANCH   2   4
BRANCH   1  17
ATOM     16  C   UNL     1      -3.992  -2.887   2.851  0.00  0.00    +0.028 C 
ATOM     17  C   UNL     1      -3.947  -1.919   1.667  0.00  0.00    +0.070 C 
ATOM     18  C   UNL     1      -5.320  -1.269   1.487  0.00  0.00    +0.028 C 
ENDBRANCH   1  17
BRANCH   1  19
ATOM     19  C   UNL     1      -1.782  -0.753   1.041  0.00  0.00    +0.203 C 
BRANCH  19  20
ATOM     20  C   UNL     1      -2.206  -0.129  -0.263  0.00  0.00    +0.228 C 
ATOM     21  O   UNL     1      -3.382   0.061  -0.490  0.00  0.00    -0.274 OA
ATOM     22  N   UNL     1      -1.278   0.220  -1.176  0.00  0.00    -0.328 N 
ATOM     23  H   UNL     1      -0.337   0.069  -0.994  0.00  0.00    +0.145 HD
ATOM     24  H   UNL     1      -1.551   0.622  -2.015  0.00  0.00    +0.145 HD
ENDBRANCH  19  20
ENDBRANCH   1  19
TORSDOF 6
