REMARK  Name = ZINC39504780
REMARK  5 active torsions:
REMARK  status: ('A' for Active; 'I' for Inactive)
REMARK    1  A    between atoms: C_4  and  C_7
REMARK    2  A    between atoms: C_7  and  C_8
REMARK    3  A    between atoms: C_15  and  C_20
REMARK    4  A    between atoms: N_18  and  O_19
REMARK    5  A    between atoms: C_25  and  O_26
REMARK                            x       y       z     vdW  Elec       q    Type
REMARK                         _______ _______ _______ _____ _____    ______ ____
ROOT
ATOM      1  C   UNL     1       4.171  -0.963   1.399  0.00  0.00    -0.005 C 
ATOM      2  C   UNL     1       4.569   0.364   2.093  0.00  0.00    +0.006 C 
ATOM      3  C   UNL     1       5.546  -0.069   3.207  0.00  0.00    +0.025 C 
ATOM      4  C   UNL     1       6.129  -1.419   2.771  0.00  0.00    +0.048 C 
ATOM      5  C   UNL     1       5.492  -1.774   1.416  0.00  0.00    +0.028 C 
ATOM      6  C   UNL     1       5.795  -2.505   3.808  0.00  0.00    +0.034 C 
ATOM      7  C   UNL     1       7.077  -3.380   3.816  0.00  0.00    +0.041 C 
ATOM      8  C   UNL     1       8.185  -2.319   3.595  0.00  0.00    +0.123 C 
ATOM      9  N   UNL     1       7.591  -1.343   2.654  0.00  0.00    -0.184 NA
ENDROOT
BRANCH   7  10
ATOM     10  C   UNL     1       7.250  -4.073   5.143  0.00  0.00    -0.002 A 
ATOM     11  C   UNL     1       7.369  -3.329   6.301  0.00  0.00    +0.007 A 
ATOM     12  C   UNL     1       7.528  -3.963   7.519  0.00  0.00    +0.001 A 
ATOM     13  C   UNL     1       7.567  -5.344   7.582  0.00  0.00    +0.004 A 
ATOM     14  C   UNL     1       7.447  -6.093   6.427  0.00  0.00    +0.046 A 
ATOM     15  C   UNL     1       7.283  -5.458   5.204  0.00  0.00    +0.120 A 
BRANCH  15  16
ATOM     16  O   UNL     1       7.159  -6.193   4.067  0.00  0.00    -0.506 OA
ATOM     17  H   UNL     1       8.001  -6.389   3.633  0.00  0.00    +0.292 HD
ENDBRANCH  15  16
ENDBRANCH   7  10
BRANCH   9  18
ATOM     18  O   UNL     1       8.070   0.011   2.932  0.00  0.00    -0.312 OA
ATOM     19  H   UNL     1       9.030   0.110   2.866  0.00  0.00    +0.237 HD
ENDBRANCH   9  18
BRANCH   1  20
ATOM     20  C   UNL     1       3.711  -0.707  -0.038  0.00  0.00    +0.038 C 
BRANCH  20  24
ATOM     21  C   UNL     1      -0.017   1.378   0.010  0.00  0.00    +0.000 A 
ATOM     22  C   UNL     1       1.171   2.086   0.002  0.00  0.00    +0.000 A 
ATOM     23  C   UNL     1       2.377   1.411  -0.013  0.00  0.00    +0.003 A 
ATOM     24  C   UNL     1       2.396   0.029  -0.020  0.00  0.00    -0.047 A 
ATOM     25  C   UNL     1       1.208  -0.679  -0.012  0.00  0.00    +0.003 A 
ATOM     26  C   UNL     1       0.002  -0.004   0.002  0.00  0.00    +0.000 A 
ENDBRANCH  20  24
ENDBRANCH   1  20
TORSDOF 5
