REMARK  Name = ZINC13687796
REMARK  4 active torsions:
REMARK  status: ('A' for Active; 'I' for Inactive)
REMARK    1  A    between atoms: C_10  and  C_13
REMARK    2  A    between atoms: N_14  and  N_15
REMARK    3  A    between atoms: N_15  and  C_16
REMARK    4  A    between atoms: C_16  and  N_17
REMARK                            x       y       z     vdW  Elec       q    Type
REMARK                         _______ _______ _______ _____ _____    ______ ____
ROOT
ATOM      1  C   UNL     1      -0.017   1.384   0.010  0.00  0.00    +0.019 A 
ATOM      2  C   UNL     1       1.157   2.105   0.002  0.00  0.00    +0.048 A 
ATOM      3  C   UNL     1       2.381   1.444  -0.012  0.00  0.00    +0.138 A 
ATOM      4  C   UNL     1       2.396   0.039  -0.013  0.00  0.00    +0.066 A 
ATOM      5  C   UNL     1       1.204  -0.681  -0.009  0.00  0.00    +0.030 A 
ATOM      6  C   UNL     1       0.002  -0.004   0.002  0.00  0.00    +0.019 A 
ATOM      7 BR   UNL     1      -1.624  -0.969   0.008  0.00  0.00    -0.050 Br
ATOM      8  C   UNL     1       3.707  -0.642  -0.010  0.00  0.00    +0.201 A 
ATOM      9  O   UNL     1       3.817  -1.835  -0.233  0.00  0.00    -0.286 OA
ATOM     10  C   UNL     1       4.877   0.212   0.280  0.00  0.00    +0.077 A 
ATOM     11  C   UNL     1       4.705   1.565   0.257  0.00  0.00    +0.209 A 
ATOM     12  O   UNL     1       3.535   2.138  -0.029  0.00  0.00    -0.462 OA
ENDROOT
BRANCH  10  13
ATOM     13  C   UNL     1       6.191  -0.380   0.585  0.00  0.00    +0.145 C 
ATOM     14  N   UNL     1       7.207   0.388   0.837  0.00  0.00    -0.188 NA
BRANCH  14  15
ATOM     15  N   UNL     1       8.457  -0.175   1.127  0.00  0.00    -0.219 N 
ATOM     16  H   UNL     1       8.563  -1.139   1.139  0.00  0.00    +0.176 HD
BRANCH  15  17
ATOM     17  C   UNL     1       9.511   0.623   1.388  0.00  0.00    +0.147 C 
ATOM     18  S   UNL     1      11.038  -0.065   1.743  0.00  0.00    -0.017 S 
BRANCH  17  19
ATOM     19  N   UNL     1       9.363   1.962   1.371  0.00  0.00    -0.339 N 
ATOM     20  H   UNL     1       8.498   2.352   1.170  0.00  0.00    +0.144 HD
ATOM     21  H   UNL     1      10.122   2.537   1.559  0.00  0.00    +0.144 HD
ENDBRANCH  17  19
ENDBRANCH  15  17
ENDBRANCH  14  15
ENDBRANCH  10  13
TORSDOF 4
