REMARK  Name = ZINC44777735
REMARK  4 active torsions:
REMARK  status: ('A' for Active; 'I' for Inactive)
REMARK    1  A    between atoms: C_1  and  C_2
REMARK    2  A    between atoms: C_8  and  C_10
REMARK    3  A    between atoms: C_10  and  C_15
REMARK    4  A    between atoms: C_15  and  N_17
REMARK                            x       y       z     vdW  Elec       q    Type
REMARK                         _______ _______ _______ _____ _____    ______ ____
ROOT
ATOM      1  C   UNL     1      -0.058  -4.234   2.117  0.00  0.00    +0.091 C 
ATOM      2  C   UNL     1      -1.431  -4.064   2.789  0.00  0.00    +0.023 C 
ATOM      3  C   UNL     1      -1.448  -5.013   4.005  0.00  0.00    +0.001 C 
ATOM      4  C   UNL     1       0.049  -5.219   4.346  0.00  0.00    +0.001 C 
ATOM      5  C   UNL     1       0.712  -5.281   2.948  0.00  0.00    +0.023 C 
ENDROOT
BRANCH   1  12
ATOM      6  C   UNL     1       4.977  -1.040   0.450  0.00  0.00    +0.009 C 
ATOM      7  C   UNL     1       4.140  -2.072   1.207  0.00  0.00    +0.005 C 
ATOM      8  C   UNL     1       3.955  -3.363   0.366  0.00  0.00    +0.024 C 
ATOM      9  C   UNL     1       2.628  -3.939   0.904  0.00  0.00    +0.108 C 
ATOM     10  N   UNL     1       1.887  -2.828   1.519  0.00  0.00    -0.300 N 
ATOM     11  C   UNL     1       2.676  -1.591   1.367  0.00  0.00    +0.111 C 
ATOM     12  C   UNL     1       0.686  -2.923   2.122  0.00  0.00    +0.228 C 
ATOM     13  O   UNL     1       0.203  -1.954   2.668  0.00  0.00    -0.275 OA
ENDBRANCH   1  12
BRANCH   1  14
ATOM     14  C   UNL     1      -0.231  -4.724   0.703  0.00  0.00    +0.061 C 
ATOM     15  S   UNL     1       0.261  -6.191   0.298  0.00  0.00    -0.040 S 
BRANCH  14  16
ATOM     16  N   UNL     1      -0.801  -3.925  -0.222  0.00  0.00    -0.355 N 
ATOM     17  H   UNL     1      -1.165  -3.065   0.039  0.00  0.00    +0.143 HD
ATOM     18  H   UNL     1      -0.847  -4.212  -1.147  0.00  0.00    +0.143 HD
ENDBRANCH  14  16
ENDBRANCH   1  14
TORSDOF 3
