REMARK  Name = ZINC49185032
REMARK  4 active torsions:
REMARK  status: ('A' for Active; 'I' for Inactive)
REMARK    1  A    between atoms: C_1  and  C_2
REMARK    2  A    between atoms: C_2  and  C_4
REMARK    3  A    between atoms: C_2  and  N_10
REMARK    4  A    between atoms: C_4  and  C_5
REMARK                            x       y       z     vdW  Elec       q    Type
REMARK                         _______ _______ _______ _____ _____    ______ ____
ROOT
ATOM      1  N   UNL     1       0.711  -0.489   1.189  0.00  0.00    -0.309 N 
ATOM      2  C   UNL     1       0.190  -1.306   2.180  0.00  0.00    +0.070 A 
ATOM      3  C   UNL     1      -1.047  -1.895   2.389  0.00  0.00    +0.029 A 
ATOM      4  C   UNL     1      -1.257  -2.676   3.506  0.00  0.00    +0.017 A 
ATOM      5  C   UNL     1      -0.236  -2.877   4.425  0.00  0.00    +0.020 A 
ATOM      6  C   UNL     1       1.000  -2.299   4.233  0.00  0.00    +0.045 A 
ATOM      7  C   UNL     1       1.228  -1.506   3.106  0.00  0.00    +0.092 A 
ATOM      8  N   UNL     1       2.308  -0.819   2.650  0.00  0.00    -0.215 NA
ATOM      9  C   UNL     1       2.008  -0.226   1.522  0.00  0.00    +0.194 A 
ATOM     10  N   UNL     1       2.873   0.553   0.782  0.00  0.00    -0.329 N 
ATOM     11 BR   UNL     1      -0.543  -3.950   5.951  0.00  0.00    -0.050 Br
ATOM     12  H   UNL     1       2.572   0.961  -0.045  0.00  0.00    +0.145 HD
ATOM     13  H   UNL     1       3.783   0.692   1.088  0.00  0.00    +0.145 HD
ENDROOT
BRANCH   1  15
ATOM     14  C   UNL     1      -0.019   1.526   0.010  0.00  0.00    +0.031 C 
ATOM     15  C   UNL     1       0.002  -0.004   0.002  0.00  0.00    +0.092 C 
BRANCH  15  16
ATOM     16  C   UNL     1       0.718  -0.497  -1.257  0.00  0.00    +0.060 C 
BRANCH  16  17
ATOM     17  C   UNL     1      -0.077  -0.103  -2.474  0.00  0.00    -0.038 A 
ATOM     18  C   UNL     1      -1.052  -0.943  -2.978  0.00  0.00    +0.011 A 
ATOM     19  C   UNL     1      -1.749  -0.558  -4.075  0.00  0.00    +0.045 A 
ATOM     20  S   UNL     1      -1.029   1.036  -4.430  0.00  0.00    -0.105 S 
ATOM     21  C   UNL     1       0.149   1.084  -3.089  0.00  0.00    +0.049 A 
ENDBRANCH  16  17
ENDBRANCH  15  16
ENDBRANCH   1  15
TORSDOF 3
