REMARK  Name = ZINC39918562
REMARK  8 active torsions:
REMARK  status: ('A' for Active; 'I' for Inactive)
REMARK    1  A    between atoms: C_1  and  C_2
REMARK    2  A    between atoms: C_2  and  N_3
REMARK    3  A    between atoms: C_16  and  C_23
REMARK    4  A    between atoms: N_17  and  C_20
REMARK    5  A    between atoms: C_25  and  N_31
REMARK    6  A    between atoms: C_26  and  C_27
REMARK    7  A    between atoms: C_27  and  O_29
REMARK    8  A    between atoms: O_29  and  C_30
REMARK                            x       y       z     vdW  Elec       q    Type
REMARK                         _______ _______ _______ _____ _____    ______ ____
ROOT
ATOM      1  N   UNL     1      -0.203  -0.584   1.375  0.00  0.00    -0.270 N 
ATOM      2  C   UNL     1       1.147  -0.759   1.124  0.00  0.00    +0.041 A 
ATOM      3  C   UNL     1       1.858  -0.582  -0.064  0.00  0.00    +0.024 A 
ATOM      4  C   UNL     1       3.221  -0.832  -0.030  0.00  0.00    +0.002 A 
ATOM      5  C   UNL     1       3.861  -1.240   1.122  0.00  0.00    +0.000 A 
ATOM      6  C   UNL     1       3.164  -1.420   2.312  0.00  0.00    +0.007 A 
ATOM      7  C   UNL     1       1.809  -1.171   2.286  0.00  0.00    -0.002 A 
ATOM      8  C   UNL     1       0.765  -1.255   3.357  0.00  0.00    +0.144 C 
ATOM      9  C   UNL     1      -0.517  -0.848   2.660  0.00  0.00    +0.240 C 
ATOM     10  O   UNL     1      -1.619  -0.775   3.162  0.00  0.00    -0.274 OA
ATOM     11  C   UNL     1       0.646  -2.657   3.882  0.00  0.00    +0.083 A 
ATOM     12  C   UNL     1       1.117  -2.977   5.139  0.00  0.00    +0.142 A 
ATOM     13  C   UNL     1       0.985  -4.303   5.601  0.00  0.00    +0.068 A 
ATOM     14  C   UNL     1       0.407  -5.234   4.811  0.00  0.00    +0.023 A 
ATOM     15  N   UNL     1      -0.051  -4.912   3.573  0.00  0.00    -0.309 N 
ATOM     16  C   UNL     1       0.054  -3.656   3.099  0.00  0.00    +0.260 A 
ATOM     17  O   UNL     1      -0.367  -3.388   1.985  0.00  0.00    -0.267 OA
ATOM     18  C   UNL     1       0.269  -6.649   5.309  0.00  0.00    +0.064 C 
ATOM     19  O   UNL     1       1.698  -2.045   5.924  0.00  0.00    -0.441 OA
ATOM     20  C   UNL     1       1.507  -0.739   5.677  0.00  0.00    +0.196 C 
ATOM     21  C   UNL     1       1.063  -0.295   4.472  0.00  0.00    +0.117 C 
ENDROOT
BRANCH  15  22
ATOM     22  C   UNL     1      -0.669  -5.947   2.741  0.00  0.00    +0.091 C 
ATOM     23  C   UNL     1      -1.983  -5.598   2.039  0.00  0.00    +0.027 C 
ATOM     24  C   UNL     1      -1.984  -6.556   3.232  0.00  0.00    +0.027 C 
ENDBRANCH  15  22
BRANCH  20  25
ATOM     25  N   UNL     1       1.766   0.170   6.667  0.00  0.00    -0.329 N 
ATOM     26  H   UNL     1       2.152  -0.124   7.507  0.00  0.00    +0.145 HD
ATOM     27  H   UNL     1       1.562   1.109   6.529  0.00  0.00    +0.145 HD
ENDBRANCH  20  25
BRANCH   1  29
ATOM     28  C   UNL     1      -1.265   1.370   0.358  0.00  0.00    +0.025 C 
ATOM     29  C   UNL     1      -1.174  -0.157   0.365  0.00  0.00    +0.110 C 
ENDBRANCH   1  29
BRANCH  21  30
ATOM     30  C   UNL     1       0.882   1.081   4.266  0.00  0.00    +0.341 C 
ATOM     31  O   UNL     1       1.721   1.722   3.659  0.00  0.00    -0.245 OA
BRANCH  30  32
ATOM     32  O   UNL     1      -0.223   1.695   4.742  0.00  0.00    -0.465 OA
ATOM     33  C   UNL     1      -0.343   3.098   4.496  0.00  0.00    +0.280 C 
ENDBRANCH  30  32
ENDBRANCH  21  30
TORSDOF 5
