REMARK  Name = ZINC66136202
REMARK  8 active torsions:
REMARK  status: ('A' for Active; 'I' for Inactive)
REMARK    1  A    between atoms: C_1  and  C_2
REMARK    2  A    between atoms: C_2  and  N_3
REMARK    3  A    between atoms: C_4  and  C_6
REMARK    4  A    between atoms: C_7  and  C_25
REMARK    5  A    between atoms: C_11  and  C_12
REMARK    6  A    between atoms: C_12  and  C_14
REMARK    7  A    between atoms: C_12  and  O_15
REMARK    8  A    between atoms: O_15  and  C_16
REMARK                            x       y       z     vdW  Elec       q    Type
REMARK                         _______ _______ _______ _____ _____    ______ ____
ROOT
ATOM      1  C   UNL     1      -3.270  -1.990  -0.092  0.00  0.00    +0.083 A 
ATOM      2  C   UNL     1      -4.038  -2.246  -1.235  0.00  0.00    +0.056 A 
ATOM      3  N   UNL     1      -5.194  -2.869  -1.104  0.00  0.00    -0.219 NA
ATOM      4  C   UNL     1      -5.630  -3.251   0.090  0.00  0.00    +0.213 A 
ATOM      5  N   UNL     1      -4.932  -3.028   1.196  0.00  0.00    -0.215 NA
ATOM      6  C   UNL     1      -3.764  -2.416   1.148  0.00  0.00    +0.099 A 
ATOM      7  N   UNL     1      -6.843  -3.900   0.183  0.00  0.00    -0.327 N 
ATOM      8  C   UNL     1      -3.552  -1.816  -2.595  0.00  0.00    +0.066 C 
ATOM      9  H   UNL     1      -7.365  -4.070  -0.616  0.00  0.00    +0.145 HD
ATOM     10  H   UNL     1      -7.176  -4.185   1.049  0.00  0.00    +0.145 HD
ENDROOT
BRANCH   1  12
ATOM     11  N   UNL     1      -1.916   0.047  -0.100  0.00  0.00    -0.312 N 
ATOM     12  C   UNL     1      -1.971  -1.297  -0.192  0.00  0.00    +0.248 C 
ATOM     13  O   UNL     1      -0.951  -1.937  -0.357  0.00  0.00    -0.270 OA
ATOM     14  H   UNL     1      -2.730   0.558   0.033  0.00  0.00    +0.149 HD
BRANCH  11  16
ATOM     15  C   UNL     1      -0.843   2.244  -0.063  0.00  0.00    +0.024 C 
ATOM     16  C   UNL     1      -0.627   0.736  -0.199  0.00  0.00    +0.101 C 
ENDBRANCH  11  16
ENDBRANCH   1  12
BRANCH   6  17
ATOM     17  C   UNL     1      -2.976  -2.173   2.409  0.00  0.00    +0.220 C 
ATOM     18  C   UNL     1      -2.335  -3.483   2.871  0.00  0.00    +0.059 C 
BRANCH  17  19
ATOM     19  O   UNL     1      -3.849  -1.684   3.430  0.00  0.00    -0.482 OA
BRANCH  19  20
ATOM     20  C   UNL     1      -3.287  -0.938   4.417  0.00  0.00    +0.135 A 
ATOM     21  C   UNL     1      -1.910  -0.776   4.468  0.00  0.00    +0.048 A 
ATOM     22  C   UNL     1      -1.341  -0.016   5.472  0.00  0.00    +0.023 A 
ATOM     23  C   UNL     1      -2.143   0.583   6.427  0.00  0.00    +0.042 A 
ATOM     24  C   UNL     1      -3.516   0.423   6.379  0.00  0.00    +0.039 A 
ATOM     25  C   UNL     1      -4.090  -0.332   5.373  0.00  0.00    +0.061 A 
ATOM     26 BR   UNL     1      -5.968  -0.544   5.303  0.00  0.00    -0.046 Br
ATOM     27 CL   UNL     1      -1.425   1.535   7.688  0.00  0.00    -0.084 Cl
ENDBRANCH  19  20
ENDBRANCH  17  19
ENDBRANCH   6  17
TORSDOF 5
