REMARK  Name = ZINC04275834
REMARK  11 active torsions:
REMARK  status: ('A' for Active; 'I' for Inactive)
REMARK    1  A    between atoms: C_1  and  C_2
REMARK    2  A    between atoms: N_4  and  C_5
REMARK    3  A    between atoms: C_7  and  O_24
REMARK    4  A    between atoms: C_9  and  O_23
REMARK    5  A    between atoms: C_11  and  C_21
REMARK    6  A    between atoms: C_14  and  O_16
REMARK    7  A    between atoms: O_16  and  C_17
REMARK    8  A    between atoms: C_17  and  C_18
REMARK    9  A    between atoms: C_17  and  C_19
REMARK   10  A    between atoms: C_17  and  C_20
REMARK   11  A    between atoms: C_21  and  O_22
REMARK                            x       y       z     vdW  Elec       q    Type
REMARK                         _______ _______ _______ _____ _____    ______ ____
ROOT
ATOM      1  C   UNL     1      -0.667   3.047   3.750  0.00  0.00    +0.160 C 
ATOM      2  C   UNL     1      -0.748   1.518   3.797  0.00  0.00    +0.171 C 
ATOM      3  C   UNL     1      -0.056   0.943   2.558  0.00  0.00    +0.176 C 
ATOM      4  C   UNL     1      -0.713   1.521   1.302  0.00  0.00    +0.178 C 
ATOM      5  O   UNL     1      -0.630   2.947   1.336  0.00  0.00    -0.341 OA
ATOM      6  C   UNL     1      -1.300   3.544   2.448  0.00  0.00    +0.274 C 
ENDROOT
BRANCH   1  10
ATOM      7  C   UNL     1       2.777   4.104   5.047  0.00  0.00    +0.109 C 
ATOM      8  C   UNL     1       1.333   3.675   4.993  0.00  0.00    +0.210 C 
ATOM      9  O   UNL     1       0.708   3.517   6.021  0.00  0.00    -0.276 OA
ATOM     10  N   UNL     1       0.737   3.465   3.803  0.00  0.00    -0.305 N 
ATOM     11  H   UNL     1       1.236   3.591   2.981  0.00  0.00    +0.149 HD
ENDBRANCH   1  10
BRANCH   3  12
ATOM     12  O   UNL     1       1.329   1.295   2.577  0.00  0.00    -0.387 OA
ATOM     13  H   UNL     1       1.829   0.966   1.817  0.00  0.00    +0.210 HD
ENDBRANCH   3  12
BRANCH   2  14
ATOM     14  O   UNL     1      -0.094   1.041   4.975  0.00  0.00    -0.387 OA
ATOM     15  H   UNL     1      -0.107   0.079   5.069  0.00  0.00    +0.210 HD
ENDBRANCH   2  14
BRANCH   6  16
ATOM     16  O   UNL     1      -1.178   4.966   2.371  0.00  0.00    -0.344 OA
BRANCH  16  17
ATOM     17  C   UNL     1      -1.930   5.557   1.309  0.00  0.00    +0.064 C 
ATOM     18  C   UNL     1      -3.415   5.241   1.498  0.00  0.00    +0.041 C 
ATOM     19  C   UNL     1      -1.726   7.073   1.322  0.00  0.00    +0.041 C 
ATOM     20  C   UNL     1      -1.454   4.990  -0.030  0.00  0.00    +0.041 C 
ENDBRANCH  16  17
ENDBRANCH   6  16
BRANCH   4  21
ATOM     21  C   UNL     1       0.012   0.998   0.060  0.00  0.00    +0.190 C 
BRANCH  21  22
ATOM     22  O   UNL     1      -0.671   1.444  -1.113  0.00  0.00    -0.392 OA
ATOM     23  H   UNL     1      -0.266   1.149  -1.940  0.00  0.00    +0.210 HD
ENDBRANCH  21  22
ENDBRANCH   4  21
TORSDOF 7
