REMARK  Name = ZINC04305399
REMARK  9 active torsions:
REMARK  status: ('A' for Active; 'I' for Inactive)
REMARK    1  A    between atoms: C_1  and  C_2
REMARK    2  A    between atoms: C_4  and  C_32
REMARK    3  A    between atoms: C_5  and  N_9
REMARK    4  A    between atoms: C_6  and  C_8
REMARK    5  A    between atoms: C_10  and  C_12
REMARK    6  A    between atoms: N_14  and  C_15
REMARK    7  A    between atoms: C_15  and  C_16
REMARK    8  A    between atoms: C_16  and  C_18
REMARK    9  A    between atoms: C_16  and  N_23
REMARK                            x       y       z     vdW  Elec       q    Type
REMARK                         _______ _______ _______ _____ _____    ______ ____
ROOT
ATOM      1  C   UNL     1      -4.545   4.613  -0.620  0.00  0.00    +0.299 C 
ATOM      2  O   UNL     1      -4.329   5.802  -0.508  0.00  0.00    -0.265 OA
ATOM      3  N   UNL     1      -5.763   4.182  -1.002  0.00  0.00    -0.305 N 
ATOM      4  H   UNL     1      -5.936   3.232  -1.091  0.00  0.00    +0.149 HD
ENDROOT
BRANCH   1   6
ATOM      5  N   UNL     1      -2.241   4.058   0.048  0.00  0.00    -0.277 N 
ATOM      6  C   UNL     1      -3.460   3.627  -0.334  0.00  0.00    +0.303 C 
ATOM      7  O   UNL     1      -3.676   2.438  -0.446  0.00  0.00    -0.265 OA
ATOM      8  H   UNL     1      -2.086   5.003   0.197  0.00  0.00    +0.155 HD
BRANCH   5  13
ATOM      9  C   UNL     1       1.979   0.340   0.779  0.00  0.00    +0.044 C 
ATOM     10  C   UNL     1       0.858   1.328   0.585  0.00  0.00    -0.050 A 
ATOM     11  C   UNL     1       0.156   1.350  -0.607  0.00  0.00    +0.008 A 
ATOM     12  C   UNL     1      -0.868   2.257  -0.791  0.00  0.00    -0.029 A 
ATOM     13  C   UNL     1      -1.201   3.142   0.228  0.00  0.00    +0.040 A 
ATOM     14  C   UNL     1      -0.495   3.117   1.424  0.00  0.00    -0.029 A 
ATOM     15  C   UNL     1       0.531   2.210   1.599  0.00  0.00    +0.008 A 
ATOM     16  C   UNL     1      -0.849   4.078   2.529  0.00  0.00    +0.045 C 
ATOM     17  C   UNL     1      -1.627   2.285  -2.092  0.00  0.00    +0.045 C 
ENDBRANCH   5  13
ENDBRANCH   1   6
BRANCH   3  18
ATOM     18  C   UNL     1      -6.827   5.150  -1.282  0.00  0.00    +0.135 C 
BRANCH  18  19
ATOM     19  C   UNL     1      -8.061   4.413  -1.808  0.00  0.00    +0.156 C 
BRANCH  19  20
ATOM     20  N   UNL     1      -9.070   5.391  -2.236  0.00  0.00    -0.318 N 
ATOM     21  C   UNL     1      -9.404   6.323  -1.137  0.00  0.00    +0.110 C 
ATOM     22  C   UNL     1      -9.759   7.624  -1.893  0.00  0.00    +0.056 C 
ATOM     23  C   UNL     1      -8.986   7.481  -3.189  0.00  0.00    -0.025 A 
ATOM     24  C   UNL     1      -8.606   6.150  -3.317  0.00  0.00    +0.034 A 
ATOM     25  C   UNL     1      -7.863   5.761  -4.430  0.00  0.00    +0.023 A 
ATOM     26  C   UNL     1      -7.517   6.688  -5.391  0.00  0.00    +0.002 A 
ATOM     27  C   UNL     1      -7.904   8.008  -5.258  0.00  0.00    +0.000 A 
ATOM     28  C   UNL     1      -8.639   8.403  -4.154  0.00  0.00    +0.005 A 
ENDBRANCH  19  20
BRANCH  19  29
ATOM     29  C   UNL     1      -8.633   3.547  -0.715  0.00  0.00    +0.127 A 
ATOM     30  C   UNL     1      -8.449   2.220  -0.585  0.00  0.00    +0.046 A 
ATOM     31  C   UNL     1      -9.157   1.820   0.572  0.00  0.00    +0.041 A 
ATOM     32  C   UNL     1      -9.738   2.924   1.075  0.00  0.00    +0.195 A 
ATOM     33  O   UNL     1      -9.417   3.967   0.291  0.00  0.00    -0.466 OA
ENDBRANCH  19  29
ENDBRANCH  18  19
ENDBRANCH   3  18
TORSDOF 6
