REMARK  Name = ZINC43736570
REMARK  10 active torsions:
REMARK  status: ('A' for Active; 'I' for Inactive)
REMARK    1  A    between atoms: C_1  and  C_2
REMARK    2  A    between atoms: C_2  and  C_3
REMARK    3  A    between atoms: C_3  and  C_4
REMARK    4  A    between atoms: C_4  and  N_5
REMARK    5  A    between atoms: C_6  and  C_7
REMARK    6  A    between atoms: C_10  and  O_38
REMARK    7  A    between atoms: C_13  and  O_37
REMARK    8  A    between atoms: C_22  and  C_36
REMARK    9  A    between atoms: C_23  and  O_35
REMARK   10  A    between atoms: C_26  and  C_28
REMARK                            x       y       z     vdW  Elec       q    Type
REMARK                         _______ _______ _______ _____ _____    ______ ____
ROOT
ATOM      1  C   UNL     1       3.322  -3.561  -3.732  0.00  0.00    +0.036 C 
ATOM      2  C   UNL     1       3.375  -5.096  -3.729  0.00  0.00    +0.018 C 
ATOM      3  C   UNL     1       1.980  -5.692  -3.887  0.00  0.00    +0.032 C 
ATOM      4  C   UNL     1       1.330  -5.194  -5.179  0.00  0.00    +0.117 C 
ATOM      5  C   UNL     1       1.266  -3.667  -5.175  0.00  0.00    +0.067 C 
ATOM      6  C   UNL     1       2.686  -3.099  -5.040  0.00  0.00    +0.079 C 
ATOM      7  C   UNL     1       2.615  -1.580  -5.121  0.00  0.00    +0.036 C 
ATOM      8  C   UNL     1       3.941  -0.932  -4.714  0.00  0.00    +0.009 C 
ATOM      9  C   UNL     1       5.044  -1.973  -4.667  0.00  0.00    +0.025 C 
ATOM     10  C   UNL     1       4.748  -3.029  -3.598  0.00  0.00    +0.009 C 
ATOM     11  C   UNL     1       5.055  -2.522  -2.198  0.00  0.00    +0.005 C 
ATOM     12  C   UNL     1       6.523  -2.061  -2.088  0.00  0.00    +0.010 C 
ATOM     13  C   UNL     1       6.725  -0.921  -3.061  0.00  0.00    +0.003 C 
ATOM     14  C   UNL     1       6.430  -1.429  -4.487  0.00  0.00    +0.075 C 
ATOM     15  C   UNL     1       6.861  -0.234  -5.344  0.00  0.00    +0.036 C 
ATOM     16  C   UNL     1       8.129   0.286  -4.615  0.00  0.00    +0.011 C 
ATOM     17  C   UNL     1       8.189  -0.463  -3.254  0.00  0.00    +0.043 C 
ATOM     18  C   UNL     1       5.908   0.305  -2.659  0.00  0.00    +0.014 C 
ENDROOT
BRANCH  17  19
ATOM     19  C   UNL     1       8.602   0.488  -2.128  0.00  0.00    +0.204 C 
ATOM     20  C   UNL     1      10.039   0.916  -2.312  0.00  0.00    +0.024 C 
ATOM     21  C   UNL     1      10.704   0.506  -1.234  0.00  0.00    +0.091 C 
ATOM     22  C   UNL     1       9.774  -0.181  -0.332  0.00  0.00    +0.332 C 
ATOM     23  O   UNL     1      10.074  -0.672   0.739  0.00  0.00    -0.246 OA
ATOM     24  O   UNL     1       8.538  -0.186  -0.867  0.00  0.00    -0.454 OA
ENDBRANCH  17  19
BRANCH   1  26
ATOM     25  N   UNL     1       2.102  -3.952  -1.683  0.00  0.00    -0.393 N 
ATOM     26  C   UNL     1       2.482  -3.106  -2.565  0.00  0.00    +0.060 C 
ATOM     27  H   UNL     1       2.424  -4.866  -1.717  0.00  0.00    +0.159 HD
BRANCH  25  28
ATOM     28  C   UNL     1       1.180  -3.539  -0.623  0.00  0.00    +0.112 C 
BRANCH  28  29
ATOM     29  C   UNL     1      -0.144  -4.289  -0.777  0.00  0.00    +0.021 C 
BRANCH  29  31
ATOM     30  C   UNL     1      -2.432  -4.609   0.176  0.00  0.00    +0.004 C 
ATOM     31  C   UNL     1      -1.108  -3.858   0.330  0.00  0.00    -0.002 C 
ENDBRANCH  29  31
ENDBRANCH  28  29
ENDBRANCH  25  28
ENDBRANCH   1  26
BRANCH  14  32
ATOM     32  O   UNL     1       7.359  -2.502  -4.781  0.00  0.00    -0.388 OA
ATOM     33  H   UNL     1       7.277  -2.859  -5.676  0.00  0.00    +0.210 HD
ENDBRANCH  14  32
BRANCH   6  34
ATOM     34  O   UNL     1       3.438  -3.614  -6.150  0.00  0.00    -0.388 OA
ATOM     35  H   UNL     1       3.088  -3.358  -7.014  0.00  0.00    +0.210 HD
ENDBRANCH   6  34
BRANCH   4  36
ATOM     36  O   UNL     1       0.004  -5.719  -5.272  0.00  0.00    -0.392 OA
ATOM     37  H   UNL     1      -0.037  -6.685  -5.284  0.00  0.00    +0.210 HD
ENDBRANCH   4  36
TORSDOF 8
