REMARK  Name = ZINC35703644
REMARK  9 active torsions:
REMARK  status: ('A' for Active; 'I' for Inactive)
REMARK    1  A    between atoms: C_1  and  C_2
REMARK    2  A    between atoms: C_2  and  C_4
REMARK    3  A    between atoms: C_2  and  N_10
REMARK    4  A    between atoms: C_11  and  C_13
REMARK    5  A    between atoms: C_15  and  N_33
REMARK    6  A    between atoms: C_18  and  N_19
REMARK    7  A    between atoms: N_22  and  C_25
REMARK    8  A    between atoms: C_30  and  O_31
REMARK    9  A    between atoms: O_31  and  C_32
REMARK                            x       y       z     vdW  Elec       q    Type
REMARK                         _______ _______ _______ _____ _____    ______ ____
ROOT
ATOM      1  C   UNL     1      -3.434  -1.153  -1.134  0.00  0.00    +0.059 A 
ATOM      2  C   UNL     1      -4.047  -1.496   0.074  0.00  0.00    +0.037 A 
ATOM      3  C   UNL     1      -5.346  -1.974   0.076  0.00  0.00    +0.025 A 
ATOM      4  C   UNL     1      -6.042  -2.114  -1.121  0.00  0.00    +0.024 A 
ATOM      5  C   UNL     1      -5.445  -1.778  -2.318  0.00  0.00    +0.025 A 
ATOM      6  C   UNL     1      -4.144  -1.291  -2.336  0.00  0.00    +0.042 A 
ENDROOT
BRANCH   6   7
ATOM      7  N   UNL     1      -3.544  -0.947  -3.544  0.00  0.00    -0.326 N 
ATOM      8  C   UNL     1      -2.792  -1.946  -4.317  0.00  0.00    +0.124 C 
ATOM      9  C   UNL     1      -3.376  -2.010  -5.734  0.00  0.00    +0.124 C 
ATOM     10  N   UNL     1      -3.484  -0.642  -6.260  0.00  0.00    -0.324 N 
ATOM     11  C   UNL     1      -4.236   0.357  -5.487  0.00  0.00    +0.124 C 
ATOM     12  C   UNL     1      -3.657   0.419  -4.072  0.00  0.00    +0.124 C 
BRANCH  10  13
ATOM     13  C   UNL     1      -2.881  -0.295  -7.474  0.00  0.00    +0.072 A 
ATOM     14  C   UNL     1      -3.587  -0.422  -8.662  0.00  0.00    +0.027 A 
ATOM     15  C   UNL     1      -2.990  -0.079  -9.860  0.00  0.00    +0.002 A 
ATOM     16  C   UNL     1      -1.689   0.390  -9.879  0.00  0.00    +0.004 A 
ATOM     17  C   UNL     1      -0.980   0.519  -8.699  0.00  0.00    +0.047 A 
ATOM     18  C   UNL     1      -1.573   0.182  -7.494  0.00  0.00    +0.141 A 
BRANCH  18  19
ATOM     19  O   UNL     1      -0.878   0.314  -6.332  0.00  0.00    -0.493 OA
ATOM     20  C   UNL     1       0.459   0.810  -6.428  0.00  0.00    +0.277 C 
ENDBRANCH  18  19
ENDBRANCH  10  13
ENDBRANCH   6   7
BRANCH   1  22
ATOM     21  N   UNL     1      -1.372  -0.511   0.012  0.00  0.00    -0.305 N 
ATOM     22  C   UNL     1      -2.051  -0.643  -1.145  0.00  0.00    +0.246 C 
ATOM     23  O   UNL     1      -1.522  -0.341  -2.197  0.00  0.00    -0.270 OA
ATOM     24  H   UNL     1      -1.794  -0.752   0.852  0.00  0.00    +0.150 HD
BRANCH  21  26
ATOM     25  C   UNL     1      -0.019   1.526   0.010  0.00  0.00    +0.033 C 
ATOM     26  C   UNL     1       0.002  -0.004   0.002  0.00  0.00    +0.100 C 
BRANCH  26  27
ATOM     27  C   UNL     1       0.731  -0.503   1.223  0.00  0.00    -0.027 A 
ATOM     28  C   UNL     1       0.081  -0.558   2.442  0.00  0.00    +0.005 A 
ATOM     29  C   UNL     1       0.749  -1.016   3.562  0.00  0.00    +0.000 A 
ATOM     30  C   UNL     1       2.068  -1.420   3.463  0.00  0.00    +0.000 A 
ATOM     31  C   UNL     1       2.718  -1.365   2.244  0.00  0.00    +0.000 A 
ATOM     32  C   UNL     1       2.048  -0.911   1.123  0.00  0.00    +0.005 A 
ENDBRANCH  26  27
ENDBRANCH  21  26
ENDBRANCH   1  22
BRANCH   3  33
ATOM     33  N   UNL     1      -5.961  -2.318   1.286  0.00  0.00    -0.358 N 
ATOM     34  H   UNL     1      -5.477  -2.221   2.121  0.00  0.00    +0.142 HD
ATOM     35  H   UNL     1      -6.871  -2.653   1.289  0.00  0.00    +0.142 HD
ENDBRANCH   3  33
TORSDOF 7
