REMARK  Name = ZINC04217197
REMARK  6 active torsions:
REMARK  status: ('A' for Active; 'I' for Inactive)
REMARK    1  A    between atoms: C_1  and  C_2
REMARK    2  A    between atoms: C_10  and  O_27
REMARK    3  A    between atoms: C_20  and  O_26
REMARK    4  A    between atoms: C_22  and  C_23
REMARK    5  A    between atoms: C_22  and  O_25
REMARK    6  A    between atoms: O_27  and  C_28
REMARK                            x       y       z     vdW  Elec       q    Type
REMARK                         _______ _______ _______ _____ _____    ______ ____
ROOT
ATOM      1  C   UNL     1      -0.002   1.062   0.006  0.00  0.00    +0.015 C 
ATOM      2  C   UNL     1      -0.724   1.566   1.258  0.00  0.00    +0.014 C 
ATOM      3  C   UNL     1      -0.605   3.074   1.340  0.00  0.00    +0.011 C 
ATOM      4  C   UNL     1       0.909   3.414   1.285  0.00  0.00    +0.009 C 
ATOM      5  C   UNL     1       1.655   2.714   2.411  0.00  0.00    +0.023 C 
ATOM      6  C   UNL     1       3.123   3.024   2.386  0.00  0.00    -0.041 A 
ATOM      7  C   UNL     1       3.521   4.292   1.982  0.00  0.00    +0.008 A 
ATOM      8  C   UNL     1       4.855   4.637   1.963  0.00  0.00    +0.046 A 
ATOM      9  C   UNL     1       5.810   3.707   2.348  0.00  0.00    +0.121 A 
ATOM     10  C   UNL     1       5.415   2.442   2.744  0.00  0.00    +0.049 A 
ATOM     11  C   UNL     1       4.070   2.094   2.762  0.00  0.00    -0.040 A 
ATOM     12  C   UNL     1       3.716   0.696   3.196  0.00  0.00    +0.036 C 
ATOM     13  C   UNL     1       2.228   0.578   3.524  0.00  0.00    +0.009 C 
ATOM     14  C   UNL     1       1.435   1.197   2.373  0.00  0.00    +0.001 C 
ATOM     15  C   UNL     1      -0.054   0.961   2.524  0.00  0.00    +0.005 C 
ATOM     16  C   UNL     1      -0.515  -0.498   2.447  0.00  0.00    +0.039 C 
ATOM     17  C   UNL     1      -2.003  -0.372   2.018  0.00  0.00    +0.159 C 
ATOM     18  C   UNL     1      -2.136   0.994   1.300  0.00  0.00    +0.157 C 
ENDROOT
BRANCH  18  19
ATOM     19  C   UNL     1      -3.025   1.886   2.061  0.00  0.00    -0.068 C 
ATOM     20  C   UNL     1      -3.735   2.598   2.668  0.00  0.00    +0.007 C 
ENDBRANCH  18  19
BRANCH  18  21
ATOM     21  O   UNL     1      -2.635   0.810  -0.027  0.00  0.00    -0.373 OA
ATOM     22  H   UNL     1      -3.530   0.448  -0.063  0.00  0.00    +0.212 HD
ENDBRANCH  18  21
BRANCH  17  23
ATOM     23  O   UNL     1      -2.850  -0.406   3.168  0.00  0.00    -0.388 OA
ATOM     24  H   UNL     1      -2.793  -1.227   3.675  0.00  0.00    +0.210 HD
ENDBRANCH  17  23
BRANCH   9  25
ATOM     25  O   UNL     1       7.128   4.038   2.337  0.00  0.00    -0.489 OA
BRANCH  25  26
ATOM     26  C   UNL     1       7.454   5.396   2.033  0.00  0.00    +0.173 C 
ATOM     27  C   UNL     1       7.571   5.582   0.506  0.00  0.00    +0.044 C 
ATOM     28  C   UNL     1       8.741   6.585   0.335  0.00  0.00    +0.004 C 
ATOM     29  C   UNL     1       9.732   6.146   1.441  0.00  0.00    +0.004 C 
ATOM     30  C   UNL     1       8.827   5.755   2.627  0.00  0.00    +0.044 C 
ENDBRANCH  25  26
ENDBRANCH   9  25
TORSDOF 5
