REMARK  Name = ZINC52006042
REMARK  2 active torsions:
REMARK  status: ('A' for Active; 'I' for Inactive)
REMARK    1  A    between atoms: N_7  and  C_8
REMARK    2  A    between atoms: C_14  and  O_16
REMARK                            x       y       z     vdW  Elec       q    Type
REMARK                         _______ _______ _______ _____ _____    ______ ____
ROOT
ATOM      1  C   UNL     1      -0.017   1.376   0.010  0.00  0.00    +0.021 A 
ATOM      2  C   UNL     1       1.185   2.073   0.002  0.00  0.00    +0.020 A 
ATOM      3  C   UNL     1       2.366   1.352  -0.013  0.00  0.00    +0.058 A 
ATOM      4  C   UNL     1       2.310  -0.039  -0.020  0.00  0.00    +0.133 A 
ATOM      5  N   UNL     1       1.144  -0.666  -0.013  0.00  0.00    -0.239 NA
ATOM      6  C   UNL     1       0.002  -0.004   0.002  0.00  0.00    +0.113 A 
ATOM      7  N   UNL     1       3.489  -0.776  -0.035  0.00  0.00    -0.323 N 
ATOM      8 BR   UNL     1       4.033   2.244  -0.025  0.00  0.00    -0.047 Br
ATOM      9  H   UNL     1       4.345  -0.321  -0.041  0.00  0.00    +0.148 HD
ENDROOT
BRANCH   7  10
ATOM     10  C   UNL     1       3.437  -2.240  -0.043  0.00  0.00    +0.100 C 
ATOM     11  C   UNL     1       3.307  -2.753   1.393  0.00  0.00    +0.025 C 
ATOM     12  C   UNL     1       4.514  -2.289   2.211  0.00  0.00    +0.002 C 
ATOM     13  C   UNL     1       5.796  -2.842   1.586  0.00  0.00    +0.003 C 
ATOM     14  C   UNL     1       5.926  -2.329   0.151  0.00  0.00    +0.033 C 
ATOM     15  C   UNL     1       4.720  -2.792  -0.668  0.00  0.00    +0.135 C 
BRANCH  15  16
ATOM     16  O   UNL     1       4.841  -2.313  -2.009  0.00  0.00    -0.390 OA
ATOM     17  H   UNL     1       5.633  -2.624  -2.467  0.00  0.00    +0.210 HD
ENDBRANCH  15  16
ENDBRANCH   7  10
TORSDOF 2
