REMARK  Name = ZINC20027494
REMARK  9 active torsions:
REMARK  status: ('A' for Active; 'I' for Inactive)
REMARK    1  A    between atoms: C_1  and  C_2
REMARK    2  A    between atoms: C_2  and  C_4
REMARK    3  A    between atoms: C_2  and  N_23
REMARK    4  A    between atoms: C_9  and  N_10
REMARK    5  A    between atoms: C_11  and  C_13
REMARK    6  A    between atoms: C_14  and  O_21
REMARK    7  A    between atoms: C_18  and  O_19
REMARK    8  A    between atoms: O_19  and  C_20
REMARK    9  A    between atoms: O_21  and  C_22
REMARK                            x       y       z     vdW  Elec       q    Type
REMARK                         _______ _______ _______ _____ _____    ______ ____
ROOT
ATOM      1  N   UNL     1      -0.069   5.241   0.030  0.00  0.00    -0.281 N 
ATOM      2  C   UNL     1      -1.242   5.899  -0.058  0.00  0.00    +0.255 C 
ATOM      3  O   UNL     1      -2.289   5.280  -0.051  0.00  0.00    -0.270 OA
ATOM      4  H   UNL     1       0.874   5.803   0.099  0.00  0.00    +0.155 HD
ENDROOT
BRANCH   1  10
ATOM      5  C   UNL     1       0.994   3.159  -0.575  0.00  0.00    -0.041 A 
ATOM      6  C   UNL     1       1.009   1.778  -0.570  0.00  0.00    +0.004 A 
ATOM      7  C   UNL     1      -0.015   1.076   0.040  0.00  0.00    +0.000 A 
ATOM      8  C   UNL     1      -1.059   1.754   0.641  0.00  0.00    +0.002 A 
ATOM      9  C   UNL     1      -1.078   3.134   0.644  0.00  0.00    +0.023 A 
ATOM     10  C   UNL     1      -0.051   3.842   0.033  0.00  0.00    +0.035 A 
BRANCH   5  12
ATOM     11  C   UNL     1       1.656   4.385  -2.626  0.00  0.00    -0.009 C 
ATOM     12  C   UNL     1       2.110   3.923  -1.240  0.00  0.00    -0.046 C 
BRANCH  12  13
ATOM     13  N   UNL     1       3.286   3.054  -1.374  0.00  0.00    +0.383 N 
ATOM     14  H   UNL     1       3.612   2.721  -0.378  0.00  0.00    -0.089 HD
ATOM     15  H   UNL     1       4.101   3.611  -1.860  0.00  0.00    -0.089 HD
ATOM     16  H   UNL     1       3.026   2.177  -1.986  0.00  0.00    -0.089 HD
ENDBRANCH  12  13
ENDBRANCH   5  12
ENDBRANCH   1  10
BRANCH   2  17
ATOM     17  C   UNL     1      -1.255   7.368  -0.160  0.00  0.00    +0.120 A 
ATOM     18  C   UNL     1      -1.213   7.988  -1.418  0.00  0.00    +0.136 A 
ATOM     19  C   UNL     1      -1.231   9.371  -1.503  0.00  0.00    +0.046 A 
ATOM     20  C   UNL     1      -1.280  10.139  -0.354  0.00  0.00    +0.007 A 
ATOM     21  C   UNL     1      -1.317   9.538   0.890  0.00  0.00    +0.046 A 
ATOM     22  C   UNL     1      -1.305   8.157   0.998  0.00  0.00    +0.136 A 
BRANCH  22  23
ATOM     23  O   UNL     1      -1.341   7.569   2.221  0.00  0.00    -0.494 OA
ATOM     24  C   UNL     1      -1.390   8.436   3.356  0.00  0.00    +0.277 C 
ENDBRANCH  22  23
BRANCH  18  25
ATOM     25  O   UNL     1      -1.160   7.237  -2.546  0.00  0.00    -0.494 OA
ATOM     26  C   UNL     1      -1.120   7.938  -3.791  0.00  0.00    +0.277 C 
ENDBRANCH  18  25
ENDBRANCH   2  17
TORSDOF 6
