REMARK  Name = ZINC44807067
REMARK  6 active torsions:
REMARK  status: ('A' for Active; 'I' for Inactive)
REMARK    1  A    between atoms: C_4  and  C_7
REMARK    2  A    between atoms: C_7  and  C_8
REMARK    3  A    between atoms: C_8  and  C_10
REMARK    4  A    between atoms: C_8  and  C_12
REMARK    5  A    between atoms: C_10  and  N_11
REMARK    6  A    between atoms: C_19  and  C_21
REMARK                            x       y       z     vdW  Elec       q    Type
REMARK                         _______ _______ _______ _____ _____    ______ ____
ROOT
ATOM      1  C   UNL     1       4.160  -0.651   1.216  0.00  0.00    +0.062 C 
ENDROOT
BRANCH   1   2
ATOM      2  C   UNL     1       5.375  -1.542   1.192  0.00  0.00    +0.218 C 
ATOM      3  O   UNL     1       5.671  -2.136   0.178  0.00  0.00    -0.275 OA
ATOM      4  N   UNL     1       6.132  -1.678   2.299  0.00  0.00    -0.290 N 
ATOM      5  C   UNL     1       5.726  -1.055   3.566  0.00  0.00    +0.108 C 
ATOM      6  C   UNL     1       6.884  -0.198   4.087  0.00  0.00    +0.019 C 
ATOM      7  C   UNL     1       8.146  -1.058   4.186  0.00  0.00    +0.004 C 
ATOM      8  C   UNL     1       8.519  -1.580   2.797  0.00  0.00    +0.032 C 
ATOM      9  C   UNL     1       7.377  -2.458   2.262  0.00  0.00    +0.162 C 
BRANCH   9  10
ATOM     10  C   UNL     1       7.675  -2.868   0.843  0.00  0.00    +0.231 C 
ATOM     11  O   UNL     1       7.884  -2.023  -0.002  0.00  0.00    -0.274 OA
ATOM     12  N   UNL     1       7.708  -4.174   0.512  0.00  0.00    -0.328 N 
ATOM     13  H   UNL     1       7.541  -4.850   1.188  0.00  0.00    +0.145 HD
ATOM     14  H   UNL     1       7.900  -4.439  -0.401  0.00  0.00    +0.145 HD
ENDBRANCH   9  10
ENDBRANCH   1   2
BRANCH   1  15
ATOM     15  C   UNL     1       3.432  -0.744  -0.127  0.00  0.00    +0.046 C 
BRANCH  15  19
ATOM     16  C   UNL     1      -0.252   1.407   0.095  0.00  0.00    +0.000 A 
ATOM     17  C   UNL     1       0.913   2.065  -0.256  0.00  0.00    +0.000 A 
ATOM     18  C   UNL     1       2.105   1.369  -0.327  0.00  0.00    +0.003 A 
ATOM     19  C   UNL     1       2.133   0.015  -0.048  0.00  0.00    -0.047 A 
ATOM     20  C   UNL     1       0.969  -0.642   0.303  0.00  0.00    +0.003 A 
ATOM     21  C   UNL     1      -0.224   0.054   0.373  0.00  0.00    +0.000 A 
ENDBRANCH  15  19
ENDBRANCH   1  15
BRANCH   1  22
ATOM     22  C   UNL     1       4.593   0.796   1.462  0.00  0.00    -0.073 C 
BRANCH  22  23
ATOM     23  N   UNL     1       5.453   1.244   0.359  0.00  0.00    +0.379 N 
ATOM     24  H   UNL     1       5.803   2.169   0.560  0.00  0.00    -0.090 HD
ATOM     25  H   UNL     1       6.229   0.607   0.258  0.00  0.00    -0.090 HD
ATOM     26  H   UNL     1       4.920   1.264  -0.497  0.00  0.00    -0.090 HD
ENDBRANCH  22  23
ENDBRANCH   1  22
TORSDOF 6
