REMARK  Name = ZINC40732137
REMARK  6 active torsions:
REMARK  status: ('A' for Active; 'I' for Inactive)
REMARK    1  A    between atoms: C_1  and  C_2
REMARK    2  A    between atoms: C_5  and  S_8
REMARK    3  A    between atoms: S_8  and  C_9
REMARK    4  A    between atoms: C_10  and  N_23
REMARK    5  A    between atoms: C_11  and  N_15
REMARK    6  A    between atoms: C_20  and  C_22
REMARK                            x       y       z     vdW  Elec       q    Type
REMARK                         _______ _______ _______ _____ _____    ______ ____
ROOT
ATOM      1  C   UNL     1       0.067  -5.068   1.563  0.00  0.00    +0.127 A 
ATOM      2  C   UNL     1       0.263  -6.383   1.988  0.00  0.00    +0.098 A 
ATOM      3  C   UNL     1       0.513  -6.608   3.343  0.00  0.00    +0.147 A 
ATOM      4  N   UNL     1       0.554  -5.567   4.173  0.00  0.00    -0.219 NA
ATOM      5  C   UNL     1       0.363  -4.341   3.730  0.00  0.00    +0.224 A 
ATOM      6  N   UNL     1       0.130  -4.085   2.459  0.00  0.00    -0.227 NA
ENDROOT
BRANCH   3   7
ATOM      7  N   UNL     1       0.716  -7.898   3.819  0.00  0.00    -0.311 N 
ATOM      8  C   UNL     1       2.063  -8.483   3.846  0.00  0.00    +0.107 C 
ATOM      9  C   UNL     1       2.356  -8.982   5.265  0.00  0.00    +0.019 C 
ATOM     10  C   UNL     1       1.245  -9.940   5.703  0.00  0.00    +0.003 C 
ATOM     11  C   UNL     1      -0.094  -9.199   5.718  0.00  0.00    +0.022 C 
ATOM     12  C   UNL     1      -0.413  -8.700   4.310  0.00  0.00    +0.072 C 
ATOM     13  C   UNL     1      -1.677  -7.839   4.348  0.00  0.00    +0.028 C 
ENDBRANCH   3   7
BRANCH   2  14
ATOM     14  N   UNL     1       0.211  -7.451   1.078  0.00  0.00    -0.353 N 
ATOM     15  H   UNL     1       0.123  -7.274   0.128  0.00  0.00    +0.142 HD
ATOM     16  H   UNL     1       0.262  -8.365   1.399  0.00  0.00    +0.142 HD
ENDBRANCH   2  14
BRANCH   1  17
ATOM     17  S   UNL     1      -0.253  -4.713  -0.133  0.00  0.00    -0.068 S 
BRANCH  17  22
ATOM     18  C   UNL     1      -0.798   1.296  -0.294  0.00  0.00    +0.044 C 
ATOM     19  C   UNL     1      -0.662  -0.204  -0.254  0.00  0.00    -0.050 A 
ATOM     20  C   UNL     1       0.590  -0.786  -0.344  0.00  0.00    +0.004 A 
ATOM     21  C   UNL     1       0.718  -2.161  -0.307  0.00  0.00    +0.015 A 
ATOM     22  C   UNL     1      -0.412  -2.959  -0.179  0.00  0.00    +0.014 A 
ATOM     23  C   UNL     1      -1.667  -2.371  -0.089  0.00  0.00    +0.015 A 
ATOM     24  C   UNL     1      -1.788  -0.996  -0.121  0.00  0.00    +0.004 A 
ENDBRANCH  17  22
ENDBRANCH   1  17
TORSDOF 4
