REMARK  Name = ZINC27744231
REMARK  6 active torsions:
REMARK  status: ('A' for Active; 'I' for Inactive)
REMARK    1  A    between atoms: C_1  and  C_2
REMARK    2  A    between atoms: C_5  and  C_8
REMARK    3  A    between atoms: C_8  and  C_10
REMARK    4  A    between atoms: C_8  and  N_24
REMARK    5  A    between atoms: C_10  and  N_11
REMARK    6  A    between atoms: C_12  and  C_14
REMARK                            x       y       z     vdW  Elec       q    Type
REMARK                         _______ _______ _______ _____ _____    ______ ____
ROOT
ATOM      1  C   UNL     1      -3.622   2.090   0.156  0.00  0.00    -0.020 C 
ENDROOT
BRANCH   1   2
ATOM      2  N   UNL     1      -3.454   3.164   1.143  0.00  0.00    +0.385 N 
ATOM      3  C   UNL     1      -4.731   3.460   1.830  0.00  0.00    -0.078 C 
ATOM      4  C   UNL     1      -4.678   4.722   2.646  0.00  0.00    -0.019 C 
ATOM      5  C   UNL     1      -5.196   5.888   1.778  0.00  0.00    -0.002 C 
ATOM      6  C   UNL     1      -4.190   6.361   0.833  0.00  0.00    -0.002 C 
ATOM      7  C   UNL     1      -3.759   5.260  -0.159  0.00  0.00    -0.019 C 
ATOM      8  C   UNL     1      -2.792   4.342   0.538  0.00  0.00    -0.078 C 
ATOM      9  H   UNL     1      -2.770   2.818   1.933  0.00  0.00    -0.081 HD
ENDBRANCH   1   2
BRANCH   1  14
ATOM     10  C   UNL     1      -8.620  -0.646   1.119  0.00  0.00    +0.044 C 
ATOM     11  C   UNL     1      -7.317   0.068   0.868  0.00  0.00    -0.050 A 
ATOM     12  C   UNL     1      -7.060   0.622  -0.372  0.00  0.00    +0.003 A 
ATOM     13  C   UNL     1      -5.865   1.277  -0.602  0.00  0.00    +0.002 A 
ATOM     14  C   UNL     1      -4.926   1.377   0.408  0.00  0.00    -0.059 A 
ATOM     15  C   UNL     1      -5.180   0.818   1.646  0.00  0.00    +0.002 A 
ATOM     16  C   UNL     1      -6.378   0.168   1.878  0.00  0.00    +0.003 A 
ENDBRANCH   1  14
BRANCH   1  17
ATOM     17  C   UNL     1      -2.465   1.097   0.281  0.00  0.00    +0.093 C 
BRANCH  17  18
ATOM     18  N   UNL     1      -1.193   1.805   0.119  0.00  0.00    -0.316 N 
ATOM     19  C   UNL     1      -0.030   1.157   0.324  0.00  0.00    +0.219 C 
ATOM     20  O   UNL     1      -0.035  -0.013   0.643  0.00  0.00    -0.275 OA
ATOM     21  H   UNL     1      -1.188   2.867  -0.170  0.00  0.00    +0.149 HD
BRANCH  19  22
ATOM     22  C   UNL     1       1.279   1.884   0.151  0.00  0.00    +0.048 C 
ATOM     23  C   UNL     1       1.387   2.405  -1.284  0.00  0.00    +0.019 C 
ATOM     24  C   UNL     1       2.716   3.143  -1.460  0.00  0.00    -0.009 C 
ATOM     25  C   UNL     1       3.874   2.184  -1.176  0.00  0.00    +0.007 C 
ATOM     26  C   UNL     1       3.765   1.664   0.259  0.00  0.00    -0.009 C 
ATOM     27  C   UNL     1       2.437   0.926   0.435  0.00  0.00    +0.019 C 
ATOM     28  C   UNL     1       3.827   2.841   1.234  0.00  0.00    +0.007 C 
ATOM     29  C   UNL     1       2.669   3.800   0.950  0.00  0.00    -0.009 C 
ATOM     30  C   UNL     1       2.777   4.320  -0.484  0.00  0.00    +0.007 C 
ATOM     31  C   UNL     1       1.341   3.062   1.126  0.00  0.00    +0.019 C 
ENDBRANCH  19  22
ENDBRANCH  17  18
ENDBRANCH   1  17
TORSDOF 5
