REMARK  Name = ZINC59247886
REMARK  5 active torsions:
REMARK  status: ('A' for Active; 'I' for Inactive)
REMARK    1  A    between atoms: C_1  and  C_2
REMARK    2  A    between atoms: C_4  and  C_18
REMARK    3  A    between atoms: C_5  and  C_17
REMARK    4  A    between atoms: N_6  and  C_7
REMARK    5  A    between atoms: C_10  and  C_14
REMARK                            x       y       z     vdW  Elec       q    Type
REMARK                         _______ _______ _______ _____ _____    ______ ____
ROOT
ATOM      1  C   UNL     1      -0.598   1.473  -0.030  0.00  0.00    +0.064 C 
ATOM      2  C   UNL     1      -0.311  -0.006  -0.035  0.00  0.00    +0.022 A 
ATOM      3  C   UNL     1      -0.383  -0.809  -1.110  0.00  0.00    +0.031 A 
ATOM      4  C   UNL     1      -0.023  -2.158  -0.651  0.00  0.00    -0.002 A 
ATOM      5  C   UNL     1       0.241  -2.042   0.702  0.00  0.00    +0.028 A 
ATOM      6  N   UNL     1       0.069  -0.744   1.053  0.00  0.00    -0.317 N 
ATOM      7  C   UNL     1       0.654  -3.161   1.622  0.00  0.00    +0.064 C 
ENDROOT
BRANCH   4   8
ATOM      8  C   UNL     1       0.041  -3.375  -1.460  0.00  0.00    +0.038 C 
ATOM      9  C   UNL     1       0.534  -3.324  -2.732  0.00  0.00    +0.100 C 
ATOM     10  C   UNL     1       1.161  -2.222  -3.362  0.00  0.00    +0.286 C 
ATOM     11  O   UNL     1       1.388  -1.008  -2.812  0.00  0.00    -0.267 OA
ATOM     12  N   UNL     1       1.486  -2.599  -4.588  0.00  0.00    -0.123 NA
ATOM     13  C   UNL     1       1.113  -3.862  -4.793  0.00  0.00    +0.331 C 
ATOM     14  O   UNL     1       1.280  -4.483  -5.830  0.00  0.00    -0.250 OA
ATOM     15  N   UNL     1       0.529  -4.352  -3.682  0.00  0.00    -0.263 N 
ATOM     16  H   UNL     1       0.172  -5.247  -3.564  0.00  0.00    +0.157 HD
ENDBRANCH   4   8
BRANCH   6  17
ATOM     17  C   UNL     1       0.251  -0.233   2.340  0.00  0.00    +0.048 A 
ATOM     18  C   UNL     1       1.519  -0.235   2.914  0.00  0.00    +0.027 A 
ATOM     19  C   UNL     1       1.704   0.267   4.182  0.00  0.00    +0.018 A 
ATOM     20  C   UNL     1       0.614   0.780   4.895  0.00  0.00    +0.082 A 
ATOM     21  C   UNL     1      -0.659   0.780   4.314  0.00  0.00    +0.057 A 
ATOM     22  C   UNL     1      -0.834   0.281   3.041  0.00  0.00    +0.047 A 
ATOM     23 CL   UNL     1      -2.016   1.415   5.193  0.00  0.00    -0.083 Cl
BRANCH  20  24
ATOM     24  C   UNL     1       0.807   1.317   6.252  0.00  0.00    +0.388 C 
ATOM     25  O   UNL     1       1.921   1.315   6.758  0.00  0.00    -0.241 OA
ATOM     26  O   UNL     1      -0.146   1.766   6.874  0.00  0.00    -0.241 OA
ENDBRANCH  20  24
ENDBRANCH   6  17
TORSDOF 3
