REMARK  Name = ZINC09117010
REMARK  6 active torsions:
REMARK  status: ('A' for Active; 'I' for Inactive)
REMARK    1  A    between atoms: C_1  and  C_2
REMARK    2  A    between atoms: C_7  and  S_17
REMARK    3  A    between atoms: C_12  and  C_14
REMARK    4  A    between atoms: S_17  and  N_20
REMARK    5  A    between atoms: C_23  and  C_26
REMARK    6  A    between atoms: C_23  and  N_67
REMARK                            x       y       z     vdW  Elec       q    Type
REMARK                         _______ _______ _______ _____ _____    ______ ____
ROOT
ATOM      1  S   UNL     1       0.147   7.692  -2.783  0.00  0.00    +0.061 S 
ATOM      2  O   UNL     1      -0.058   7.072  -4.045  0.00  0.00    -0.153 OA
ATOM      3  O   UNL     1      -0.630   8.796  -2.340  0.00  0.00    -0.153 OA
ENDROOT
BRANCH   1   9
ATOM      4  C   UNL     1      -2.259   3.987   3.136  0.00  0.00    +0.029 C 
ATOM      5  C   UNL     1      -0.872   4.393   2.633  0.00  0.00    +0.083 C 
ATOM      6  C   UNL     1      -0.883   5.852   2.150  0.00  0.00    +0.059 C 
ATOM      7  C   UNL     1      -0.519   5.771   0.684  0.00  0.00    -0.022 A 
ATOM      8  C   UNL     1      -0.379   6.760  -0.270  0.00  0.00    +0.034 A 
ATOM      9  C   UNL     1      -0.033   6.429  -1.567  0.00  0.00    +0.106 A 
ATOM     10  C   UNL     1       0.172   5.104  -1.908  0.00  0.00    +0.030 A 
ATOM     11  C   UNL     1       0.033   4.114  -0.959  0.00  0.00    +0.026 A 
ATOM     12  C   UNL     1      -0.316   4.441   0.353  0.00  0.00    +0.040 A 
ATOM     13  N   UNL     1      -0.507   3.601   1.455  0.00  0.00    -0.268 N 
ATOM     14  C   UNL     1      -0.380   2.259   1.435  0.00  0.00    +0.223 C 
ATOM     15  O   UNL     1      -0.007   1.701   0.425  0.00  0.00    -0.275 OA
BRANCH  14  16
ATOM     16  C   UNL     1      -0.699   1.454   2.667  0.00  0.00    +0.076 C 
ATOM     17  C   UNL     1      -1.971   0.604   2.646  0.00  0.00    +0.013 C 
ATOM     18  C   UNL     1      -0.600  -0.070   2.561  0.00  0.00    +0.013 C 
ENDBRANCH  14  16
ENDBRANCH   1   9
BRANCH   1  19
ATOM     19  N   UNL     1       1.728   8.183  -2.748  0.00  0.00    -0.177 NA
ATOM     20  C   UNL     1       2.151   9.284  -1.872  0.00  0.00    +0.108 C 
ATOM     21  C   UNL     1       3.323   8.796  -1.006  0.00  0.00    +0.014 C 
ATOM     22  C   UNL     1       4.430   8.255  -1.913  0.00  0.00    +0.015 C 
ATOM     23  C   UNL     1       3.898   7.066  -2.717  0.00  0.00    +0.014 C 
ATOM     24  C   UNL     1       2.734   7.530  -3.598  0.00  0.00    +0.108 C 
BRANCH  22  30
ATOM     25  C   UNL     1       5.166   6.763  -0.154  0.00  0.00    -0.077 C 
ATOM     26  C   UNL     1       6.401   6.235   0.580  0.00  0.00    -0.019 C 
ATOM     27  C   UNL     1       7.071   7.387   1.335  0.00  0.00    -0.004 C 
ATOM     28  C   UNL     1       7.435   8.495   0.343  0.00  0.00    -0.019 C 
ATOM     29  C   UNL     1       6.170   8.957  -0.384  0.00  0.00    -0.077 C 
ATOM     30  N   UNL     1       5.588   7.809  -1.111  0.00  0.00    +0.389 N 
ATOM     31  H   UNL     1       6.299   7.418  -1.740  0.00  0.00    -0.080 HD
ENDBRANCH  22  30
BRANCH  22  32
ATOM     32  C   UNL     1       4.879   9.339  -2.859  0.00  0.00    +0.200 C 
ATOM     33  O   UNL     1       4.156  10.287  -3.082  0.00  0.00    -0.278 OA
ATOM     34  N   UNL     1       6.084   9.255  -3.457  0.00  0.00    -0.330 N 
ATOM     35  H   UNL     1       6.631   8.464  -3.337  0.00  0.00    +0.145 HD
ATOM     36  H   UNL     1       6.404   9.987  -4.007  0.00  0.00    +0.145 HD
ENDBRANCH  22  32
ENDBRANCH   1  19
TORSDOF 5
