REMARK  Name = ZINC42439056
REMARK  6 active torsions:
REMARK  status: ('A' for Active; 'I' for Inactive)
REMARK    1  A    between atoms: C_1  and  C_2
REMARK    2  A    between atoms: C_6  and  C_21
REMARK    3  A    between atoms: N_9  and  S_10
REMARK    4  A    between atoms: S_10  and  C_13
REMARK    5  A    between atoms: C_13  and  C_14
REMARK    6  A    between atoms: C_14  and  C_15
REMARK                            x       y       z     vdW  Elec       q    Type
REMARK                         _______ _______ _______ _____ _____    ______ ____
ROOT
ATOM      1  S   UNL     1       1.415   0.561   2.252  0.00  0.00    +0.032 S 
ATOM      2  O   UNL     1       2.641  -0.019   2.678  0.00  0.00    -0.158 OA
ATOM      3  O   UNL     1       1.397   1.829   1.612  0.00  0.00    -0.158 OA
ENDROOT
BRANCH   1  10
ATOM      4  C   UNL     1      -0.580   1.397   0.426  0.00  0.00    +0.026 C 
ATOM      5  C   UNL     1      -0.276  -0.089   0.228  0.00  0.00    +0.076 C 
ATOM      6  C   UNL     1       0.152  -0.337  -1.222  0.00  0.00    +0.021 C 
ATOM      7  C   UNL     1       0.588  -1.796  -1.380  0.00  0.00    +0.015 C 
ATOM      8  C   UNL     1       1.786  -2.073  -0.469  0.00  0.00    +0.090 C 
ATOM      9  C   UNL     1       1.377  -1.845   0.990  0.00  0.00    +0.122 C 
ATOM     10  N   UNL     1       0.819  -0.492   1.122  0.00  0.00    -0.178 NA
BRANCH   8  11
ATOM     11  C   UNL     1       2.235  -3.500  -0.649  0.00  0.00    +0.215 C 
ATOM     12  O   UNL     1       2.232  -4.260   0.296  0.00  0.00    -0.276 OA
ATOM     13  N   UNL     1       2.640  -3.931  -1.860  0.00  0.00    -0.329 N 
ATOM     14  H   UNL     1       2.643  -3.323  -2.615  0.00  0.00    +0.145 HD
ATOM     15  H   UNL     1       2.930  -4.850  -1.976  0.00  0.00    +0.145 HD
ENDBRANCH   8  11
ENDBRANCH   1  10
BRANCH   1  16
ATOM     16  C   UNL     1       0.206   0.527   3.604  0.00  0.00    +0.185 C 
BRANCH  16  17
ATOM     17  C   UNL     1       0.659   1.473   4.718  0.00  0.00    +0.027 C 
BRANCH  17  18
ATOM     18  C   UNL     1      -0.361   1.444   5.858  0.00  0.00    -0.013 C 
ATOM     19  C   UNL     1      -1.694   2.019   5.368  0.00  0.00    -0.016 C 
ATOM     20  C   UNL     1      -2.684   2.061   6.533  0.00  0.00    -0.082 C 
ATOM     21  N   UNL     1      -2.149   2.909   7.605  0.00  0.00    +0.379 N 
ATOM     22  C   UNL     1      -0.908   2.325   8.129  0.00  0.00    -0.082 C 
ATOM     23  C   UNL     1       0.151   2.294   7.025  0.00  0.00    -0.016 C 
ATOM     24  H   UNL     1      -1.958   3.830   7.240  0.00  0.00    -0.086 HD
ATOM     25  H   UNL     1      -2.828   2.977   8.349  0.00  0.00    -0.086 HD
ENDBRANCH  17  18
ENDBRANCH  16  17
ENDBRANCH   1  16
TORSDOF 5
