REMARK  Name = ZINC14792734
REMARK  7 active torsions:
REMARK  status: ('A' for Active; 'I' for Inactive)
REMARK    1  A    between atoms: C_1  and  C_2
REMARK    2  A    between atoms: C_2  and  C_4
REMARK    3  A    between atoms: C_2  and  N_10
REMARK    4  A    between atoms: C_11  and  C_13
REMARK    5  A    between atoms: C_18  and  N_19
REMARK    6  A    between atoms: C_20  and  C_22
REMARK    7  A    between atoms: C_28  and  C_30
REMARK                            x       y       z     vdW  Elec       q    Type
REMARK                         _______ _______ _______ _____ _____    ______ ____
ROOT
ATOM      1  C   UNL     1       2.398   1.384  -0.019  0.00  0.00    +0.058 A 
ATOM      2  C   UNL     1       2.407  -0.013  -0.036  0.00  0.00    +0.015 A 
ATOM      3  C   UNL     1       1.216  -0.707  -0.039  0.00  0.00    +0.001 A 
ATOM      4  C   UNL     1       0.009  -0.027  -0.026  0.00  0.00    +0.002 A 
ATOM      5  C   UNL     1      -0.015   1.353  -0.010  0.00  0.00    +0.024 A 
ATOM      6  C   UNL     1       1.175   2.070  -0.007  0.00  0.00    +0.046 A 
ENDROOT
BRANCH   1   8
ATOM      7  N   UNL     1       4.840   1.473   0.074  0.00  0.00    -0.305 N 
ATOM      8  C   UNL     1       3.669   2.133  -0.015  0.00  0.00    +0.246 C 
ATOM      9  O   UNL     1       3.659   3.347  -0.092  0.00  0.00    -0.270 OA
ATOM     10  H   UNL     1       4.848   0.505   0.136  0.00  0.00    +0.150 HD
BRANCH   7  12
ATOM     11  C   UNL     1       6.536   2.494  -1.362  0.00  0.00    +0.033 C 
ATOM     12  C   UNL     1       6.102   2.217   0.079  0.00  0.00    +0.100 C 
BRANCH  12  13
ATOM     13  C   UNL     1       7.163   1.405   0.775  0.00  0.00    -0.027 A 
ATOM     14  C   UNL     1       7.229   0.038   0.575  0.00  0.00    +0.005 A 
ATOM     15  C   UNL     1       8.205  -0.707   1.211  0.00  0.00    +0.000 A 
ATOM     16  C   UNL     1       9.108  -0.087   2.054  0.00  0.00    +0.000 A 
ATOM     17  C   UNL     1       9.039   1.278   2.258  0.00  0.00    +0.000 A 
ATOM     18  C   UNL     1       8.066   2.024   1.619  0.00  0.00    +0.005 A 
ENDBRANCH  12  13
ENDBRANCH   7  12
ENDBRANCH   1   8
BRANCH   6  19
ATOM     19  N   UNL     1       1.153   3.462   0.009  0.00  0.00    -0.285 N 
ATOM     20  C   UNL     1       0.188   4.113   0.688  0.00  0.00    +0.220 C 
ATOM     21  O   UNL     1      -0.604   3.491   1.363  0.00  0.00    -0.275 OA
ATOM     22  H   UNL     1       1.832   3.963  -0.469  0.00  0.00    +0.155 HD
BRANCH  20  23
ATOM     23  C   UNL     1       0.093   5.615   0.608  0.00  0.00    +0.078 C 
ATOM     24  C   UNL     1       1.393   6.236   1.124  0.00  0.00    +0.032 C 
ATOM     25  C   UNL     1       1.307   7.761   1.009  0.00  0.00    +0.108 C 
ATOM     26  N   UNL     1       0.100   8.221   1.709  0.00  0.00    -0.301 N 
ATOM     27  C   UNL     1      -1.194   7.622   1.354  0.00  0.00    +0.108 C 
ATOM     28  C   UNL     1      -1.079   6.098   1.465  0.00  0.00    +0.032 C 
ATOM     29  C   UNL     1       0.178   9.173   2.660  0.00  0.00    +0.219 C 
ATOM     30  O   UNL     1      -0.826   9.543   3.231  0.00  0.00    -0.275 OA
BRANCH  29  31
ATOM     31  C   UNL     1       1.512   9.777   3.014  0.00  0.00    +0.075 C 
ATOM     32  C   UNL     1       2.089   9.457   4.394  0.00  0.00    +0.013 C 
ATOM     33  C   UNL     1       1.535  10.853   4.101  0.00  0.00    +0.013 C 
ENDBRANCH  29  31
ENDBRANCH  20  23
ENDBRANCH   6  19
TORSDOF 6
