REMARK  Name = ZINC44212842
REMARK  6 active torsions:
REMARK  status: ('A' for Active; 'I' for Inactive)
REMARK    1  A    between atoms: C_1  and  C_2
REMARK    2  A    between atoms: C_5  and  C_31
REMARK    3  A    between atoms: C_10  and  C_12
REMARK    4  A    between atoms: C_17  and  N_18
REMARK    5  A    between atoms: N_21  and  C_22
REMARK    6  A    between atoms: C_22  and  C_23
REMARK                            x       y       z     vdW  Elec       q    Type
REMARK                         _______ _______ _______ _____ _____    ______ ____
ROOT
ATOM      1  C   UNL     1       3.140  -2.188   1.349  0.00  0.00    +0.058 A 
ATOM      2  C   UNL     1       3.362  -0.809   1.327  0.00  0.00    +0.015 A 
ATOM      3  C   UNL     1       4.648  -0.319   1.384  0.00  0.00    +0.001 A 
ATOM      4  C   UNL     1       5.725  -1.187   1.462  0.00  0.00    +0.002 A 
ATOM      5  C   UNL     1       5.522  -2.552   1.485  0.00  0.00    +0.024 A 
ATOM      6  C   UNL     1       4.232  -3.064   1.433  0.00  0.00    +0.047 A 
ENDROOT
BRANCH   1  14
ATOM      7  C   UNL     1       1.473  -0.815  -3.128  0.00  0.00    +0.009 C 
ATOM      8  C   UNL     1       1.165  -1.897  -2.091  0.00  0.00    +0.004 C 
ATOM      9  C   UNL     1      -0.285  -2.361  -2.253  0.00  0.00    +0.009 C 
ATOM     10  C   UNL     1      -0.585  -3.466  -1.238  0.00  0.00    +0.004 C 
ATOM     11  C   UNL     1      -0.408  -2.914   0.180  0.00  0.00    +0.111 C 
ATOM     12  N   UNL     1       0.937  -2.335   0.298  0.00  0.00    -0.297 N 
ATOM     13  C   UNL     1       1.361  -1.327  -0.683  0.00  0.00    +0.111 C 
ATOM     14  C   UNL     1       1.766  -2.720   1.288  0.00  0.00    +0.248 C 
ATOM     15  O   UNL     1       1.381  -3.507   2.132  0.00  0.00    -0.270 OA
ATOM     16  C   UNL     1       0.380  -4.634  -1.455  0.00  0.00    +0.009 C 
ENDBRANCH   1  14
BRANCH   6  17
ATOM     17  N   UNL     1       4.025  -4.441   1.461  0.00  0.00    -0.269 N 
ATOM     18  C   UNL     1       4.866  -5.236   2.152  0.00  0.00    +0.304 C 
ATOM     19  O   UNL     1       5.845  -4.760   2.694  0.00  0.00    -0.252 OA
ATOM     20  N   UNL     1       4.621  -6.558   2.244  0.00  0.00    -0.292 N 
ATOM     21  H   UNL     1       3.275  -4.829   0.983  0.00  0.00    +0.156 HD
ATOM     22  H   UNL     1       3.840  -6.938   1.812  0.00  0.00    +0.151 HD
BRANCH  20  23
ATOM     23  C   UNL     1       5.535  -7.422   2.996  0.00  0.00    +0.182 C 
BRANCH  23  24
ATOM     24  C   UNL     1       5.039  -8.844   2.944  0.00  0.00    +0.151 A 
ATOM     25  N   UNL     1       4.218  -9.408   3.787  0.00  0.00    -0.133 NA
ATOM     26  N   UNL     1       4.013 -10.629   3.440  0.00  0.00    -0.134 NA
ATOM     27  C   UNL     1       4.696 -10.899   2.359  0.00  0.00    +0.134 A 
ATOM     28  N   UNL     1       5.359  -9.773   2.010  0.00  0.00    -0.313 N 
ATOM     29  C   UNL     1       6.148  -9.981   0.790  0.00  0.00    +0.125 C 
ATOM     30  C   UNL     1       6.256 -11.512   0.622  0.00  0.00    +0.029 C 
ATOM     31  C   UNL     1       5.002 -12.005   1.373  0.00  0.00    +0.078 C 
ENDBRANCH  23  24
ENDBRANCH  20  23
ENDBRANCH   6  17
TORSDOF 4
