REMARK  Name = ZINC39669367
REMARK  7 active torsions:
REMARK  status: ('A' for Active; 'I' for Inactive)
REMARK    1  A    between atoms: C_1  and  C_2
REMARK    2  A    between atoms: C_2  and  C_3
REMARK    3  A    between atoms: C_3  and  C_5
REMARK    4  A    between atoms: C_3  and  C_6
REMARK    5  A    between atoms: C_10  and  C_19
REMARK    6  A    between atoms: N_21  and  C_22
REMARK    7  A    between atoms: C_22  and  C_23
REMARK                            x       y       z     vdW  Elec       q    Type
REMARK                         _______ _______ _______ _____ _____    ______ ____
ROOT
ATOM      1  C   UNL     1       0.786  -1.744  -1.382  0.00  0.00    +0.218 C 
ATOM      2  O   UNL     1       0.289  -2.275  -0.411  0.00  0.00    -0.275 OA
ATOM      3  N   UNL     1       1.403  -2.492  -2.317  0.00  0.00    -0.300 N 
ATOM      4  C   UNL     1       2.069  -2.029  -3.557  0.00  0.00    +0.121 C 
ATOM      5  C   UNL     1       3.329  -2.915  -3.678  0.00  0.00    +0.100 C 
ATOM      6  C   UNL     1       2.994  -4.185  -2.878  0.00  0.00    -0.004 C 
ATOM      7  C   UNL     1       1.575  -3.965  -2.335  0.00  0.00    +0.115 C 
ATOM      8  C   UNL     1       3.974  -4.355  -1.721  0.00  0.00    -0.010 C 
ATOM      9  C   UNL     1       3.656  -5.654  -0.975  0.00  0.00    -0.082 C 
ATOM     10  N   UNL     1       3.757  -6.789  -1.900  0.00  0.00    +0.379 N 
ATOM     11  C   UNL     1       2.748  -6.665  -2.959  0.00  0.00    -0.082 C 
ATOM     12  C   UNL     1       3.028  -5.409  -3.789  0.00  0.00    -0.010 C 
ATOM     13  H   UNL     1       4.677  -6.802  -2.314  0.00  0.00    -0.086 HD
ATOM     14  H   UNL     1       3.607  -7.649  -1.393  0.00  0.00    -0.086 HD
ENDROOT
BRANCH   5  15
ATOM     15  C   UNL     1       4.522  -2.216  -3.081  0.00  0.00    +0.218 C 
ATOM     16  O   UNL     1       4.372  -1.437  -2.163  0.00  0.00    -0.275 OA
ATOM     17  N   UNL     1       5.757  -2.455  -3.566  0.00  0.00    -0.315 N 
ATOM     18  H   UNL     1       5.877  -3.078  -4.300  0.00  0.00    +0.149 HD
BRANCH  17  19
ATOM     19  C   UNL     1       6.917  -1.775  -2.986  0.00  0.00    +0.109 C 
BRANCH  19  20
ATOM     20  C   UNL     1       8.187  -2.220  -3.713  0.00  0.00    +0.024 C 
ATOM     21  C   UNL     1       9.410  -1.606  -3.029  0.00  0.00    +0.008 C 
ATOM     22  C   UNL     1      10.683  -2.078  -3.737  0.00  0.00    +0.019 C 
ATOM     23  C   UNL     1      10.657  -1.607  -5.194  0.00  0.00    +0.108 C 
ATOM     24  N   UNL     1       9.411  -2.072  -5.819  0.00  0.00    -0.299 N 
ATOM     25  C   UNL     1       8.132  -1.752  -5.171  0.00  0.00    +0.113 C 
ATOM     26  C   UNL     1       9.442  -2.799  -6.997  0.00  0.00    +0.218 A 
ATOM     27  N   UNL     1       8.301  -3.200  -7.539  0.00  0.00    -0.223 NA
ATOM     28  C   UNL     1       8.295  -3.896  -8.664  0.00  0.00    +0.116 A 
ATOM     29  C   UNL     1       9.501  -4.204  -9.275  0.00  0.00    +0.039 A 
ATOM     30  C   UNL     1      10.675  -3.769  -8.681  0.00  0.00    +0.116 A 
ATOM     31  N   UNL     1      10.610  -3.072  -7.558  0.00  0.00    -0.223 NA
ENDBRANCH  19  20
ENDBRANCH  17  19
ENDBRANCH   5  15
BRANCH   1  32
ATOM     32  C   UNL     1       0.714  -0.247  -1.542  0.00  0.00    +0.072 C 
ATOM     33  C   UNL     1      -0.029   0.092  -2.835  0.00  0.00    +0.017 C 
BRANCH  32  35
ATOM     34  C   UNL     1       0.001   1.884  -0.449  0.00  0.00    +0.004 C 
ATOM     35  C   UNL     1      -0.033   0.358  -0.351  0.00  0.00    +0.009 C 
ENDBRANCH  32  35
ENDBRANCH   1  32
TORSDOF 5
