REMARK  Name = ZINC41153261
REMARK  3 active torsions:
REMARK  status: ('A' for Active; 'I' for Inactive)
REMARK    1  A    between atoms: C_3  and  C_8
REMARK    2  A    between atoms: C_10  and  C_13
REMARK    3  A    between atoms: C_13  and  N_19
REMARK                            x       y       z     vdW  Elec       q    Type
REMARK                         _______ _______ _______ _____ _____    ______ ____
ROOT
ATOM      1  C   UNL     1       3.657   2.161  -0.022  0.00  0.00    +0.258 A 
ATOM      2  N   UNL     1       4.863   1.640  -0.041  0.00  0.00    -0.193 NA
ATOM      3  C   UNL     1       5.779   2.611  -0.044  0.00  0.00    +0.161 A 
ATOM      4  N   UNL     1       5.176   3.766  -0.027  0.00  0.00    -0.062 NA
ATOM      5  O   UNL     1       3.782   3.500  -0.017  0.00  0.00    -0.333 OA
ENDROOT
BRANCH   1   8
ATOM      6  C   UNL     1      -0.017   1.379   0.010  0.00  0.00    +0.002 A 
ATOM      7  C   UNL     1       1.167   2.088   0.002  0.00  0.00    +0.013 A 
ATOM      8  C   UNL     1       2.385   1.407  -0.013  0.00  0.00    +0.040 A 
ATOM      9  C   UNL     1       2.397   0.012  -0.021  0.00  0.00    +0.027 A 
ATOM     10  C   UNL     1       1.207  -0.686  -0.013  0.00  0.00    +0.014 A 
ATOM     11  C   UNL     1       0.002  -0.004   0.002  0.00  0.00    +0.014 A 
ATOM     12  I   UNL     1       1.222  -2.781  -0.025  0.00  0.00    -0.044 I 
ENDBRANCH   1   8
BRANCH   3  13
ATOM     13  C   UNL     1       7.271   2.405  -0.065  0.00  0.00    -0.006 C 
ATOM     14  C   UNL     1       7.693   1.609   1.172  0.00  0.00    -0.005 C 
ATOM     15  C   UNL     1       9.209   1.399   1.151  0.00  0.00    -0.001 C 
ATOM     16  C   UNL     1       9.912   2.758   1.154  0.00  0.00    -0.000 C 
ATOM     17  C   UNL     1       9.490   3.554  -0.083  0.00  0.00    -0.001 C 
ATOM     18  C   UNL     1       7.975   3.763  -0.062  0.00  0.00    -0.005 C 
BRANCH  13  19
ATOM     19  N   UNL     1       7.646   1.662  -1.276  0.00  0.00    +0.387 N 
ATOM     20  H   UNL     1       7.368   2.187  -2.092  0.00  0.00    -0.089 HD
ATOM     21  H   UNL     1       8.646   1.524  -1.290  0.00  0.00    -0.089 HD
ATOM     22  H   UNL     1       7.183   0.766  -1.278  0.00  0.00    -0.089 HD
ENDBRANCH  13  19
ENDBRANCH   3  13
TORSDOF 3
