REMARK  Name = ZINC14244624
REMARK  9 active torsions:
REMARK  status: ('A' for Active; 'I' for Inactive)
REMARK    1  A    between atoms: C_1  and  C_2
REMARK    2  A    between atoms: C_3  and  C_26
REMARK    3  A    between atoms: C_4  and  C_23
REMARK    4  A    between atoms: C_5  and  S_9
REMARK    5  A    between atoms: C_7  and  C_8
REMARK    6  A    between atoms: S_9  and  C_10
REMARK    7  A    between atoms: C_10  and  C_11
REMARK    8  A    between atoms: N_13  and  C_14
REMARK    9  A    between atoms: C_17  and  C_21
REMARK                            x       y       z     vdW  Elec       q    Type
REMARK                         _______ _______ _______ _____ _____    ______ ____
ROOT
ATOM      1  S   UNL     1       0.347   2.104   5.040  0.00  0.00    -0.096 S 
ENDROOT
BRANCH   1   6
ATOM      2  C   UNL     1      -2.940   1.340   0.077  0.00  0.00    +0.046 C 
ATOM      3  C   UNL     1      -2.156   1.536   1.349  0.00  0.00    -0.026 A 
ATOM      4  C   UNL     1      -2.812   1.786   2.541  0.00  0.00    -0.031 A 
ATOM      5  C   UNL     1      -2.046   1.967   3.698  0.00  0.00    +0.071 A 
ATOM      6  C   UNL     1      -0.645   1.882   3.602  0.00  0.00    +0.110 A 
ATOM      7  N   UNL     1      -0.069   1.634   2.435  0.00  0.00    -0.245 NA
ATOM      8  C   UNL     1      -0.774   1.461   1.335  0.00  0.00    +0.043 A 
ATOM      9  C   UNL     1      -0.062   1.183   0.036  0.00  0.00    +0.066 C 
ATOM     10  C   UNL     1      -4.316   1.868   2.592  0.00  0.00    +0.045 C 
BRANCH   5  11
ATOM     11  C   UNL     1      -2.694   2.242   4.993  0.00  0.00    +0.244 C 
ATOM     12  O   UNL     1      -2.911   3.389   5.332  0.00  0.00    -0.270 OA
ATOM     13  N   UNL     1      -3.045   1.222   5.801  0.00  0.00    -0.325 N 
ATOM     14  H   UNL     1      -2.871   0.307   5.530  0.00  0.00    +0.145 HD
ATOM     15  H   UNL     1      -3.472   1.403   6.653  0.00  0.00    +0.145 HD
ENDBRANCH   5  11
ENDBRANCH   1   6
BRANCH   1  16
ATOM     16  C   UNL     1       1.995   1.889   4.322  0.00  0.00    +0.171 C 
BRANCH  16  17
ATOM     17  C   UNL     1       3.037   2.042   5.400  0.00  0.00    +0.227 C 
ATOM     18  O   UNL     1       2.699   2.273   6.542  0.00  0.00    -0.275 OA
ATOM     19  N   UNL     1       4.344   1.921   5.096  0.00  0.00    -0.285 N 
ATOM     20  H   UNL     1       4.612   1.661   4.200  0.00  0.00    +0.155 HD
BRANCH  19  21
ATOM     21  C   UNL     1       5.313   2.171   6.068  0.00  0.00    +0.035 A 
ATOM     22  C   UNL     1       5.090   3.146   7.036  0.00  0.00    +0.024 A 
ATOM     23  C   UNL     1       6.040   3.392   8.001  0.00  0.00    +0.022 A 
ATOM     24  C   UNL     1       7.237   2.668   8.002  0.00  0.00    +0.070 A 
ATOM     25  C   UNL     1       7.461   1.693   7.024  0.00  0.00    +0.060 A 
ATOM     26  C   UNL     1       6.501   1.449   6.065  0.00  0.00    +0.044 A 
ATOM     27 CL   UNL     1       8.944   0.792   7.019  0.00  0.00    -0.082 Cl
BRANCH  24  28
ATOM     28  C   UNL     1       8.231   2.926   9.000  0.00  0.00    +0.101 C 
ATOM     29  N   UNL     1       9.019   3.130   9.791  0.00  0.00    -0.191 NA
ENDBRANCH  24  28
ENDBRANCH  19  21
ENDBRANCH  16  17
ENDBRANCH   1  16
TORSDOF 6
