REMARK  Name = ZINC12358834
REMARK  9 active torsions:
REMARK  status: ('A' for Active; 'I' for Inactive)
REMARK    1  A    between atoms: C_1  and  C_2
REMARK    2  A    between atoms: C_2  and  O_17
REMARK    3  A    between atoms: C_3  and  C_15
REMARK    4  A    between atoms: C_6  and  O_14
REMARK    5  A    between atoms: C_8  and  C_12
REMARK    6  A    between atoms: C_8  and  O_13
REMARK    7  A    between atoms: C_9  and  C_10
REMARK    8  A    between atoms: C_9  and  O_11
REMARK    9  A    between atoms: C_15  and  O_16
REMARK                            x       y       z     vdW  Elec       q    Type
REMARK                         _______ _______ _______ _____ _____    ______ ____
ROOT
ATOM      1  C   UNL     1       2.490   3.657  -2.564  0.00  0.00    +0.047 C 
ATOM      2  C   UNL     1       3.256   3.210  -1.317  0.00  0.00    +0.123 C 
ATOM      3  C   UNL     1       3.202   1.684  -1.203  0.00  0.00    +0.181 C 
ATOM      4  O   UNL     1       1.844   1.268  -1.048  0.00  0.00    -0.340 OA
ATOM      5  C   UNL     1       1.207   1.779   0.125  0.00  0.00    +0.282 C 
ATOM      6  C   UNL     1       1.181   3.308   0.064  0.00  0.00    +0.144 C 
ATOM      7  C   UNL     1       2.615   3.831  -0.072  0.00  0.00    +0.127 C 
ATOM      8  C   UNL     1       3.422   3.442   1.167  0.00  0.00    +0.047 C 
ATOM      9  C   UNL     1       0.555   3.861   1.346  0.00  0.00    +0.050 C 
ENDROOT
BRANCH   7  10
ATOM     10  O   UNL     1       2.595   5.253  -0.204  0.00  0.00    -0.383 OA
ATOM     11  H   UNL     1       2.201   5.713   0.551  0.00  0.00    +0.210 HD
ENDBRANCH   7  10
BRANCH   6  12
ATOM     12  O   UNL     1       0.410   3.728  -1.064  0.00  0.00    -0.381 OA
ATOM     13  H   UNL     1      -0.509   3.428  -1.046  0.00  0.00    +0.210 HD
ENDBRANCH   6  12
BRANCH   5  14
ATOM     14  O   UNL     1      -0.131   1.282   0.196  0.00  0.00    -0.365 OA
ATOM     15  H   UNL     1      -0.191   0.318   0.236  0.00  0.00    +0.213 HD
ENDBRANCH   5  14
BRANCH   2  16
ATOM     16  O   UNL     1       4.617   3.634  -1.416  0.00  0.00    -0.383 OA
ATOM     17  H   UNL     1       5.087   3.274  -2.181  0.00  0.00    +0.210 HD
ENDBRANCH   2  16
BRANCH   3  18
ATOM     18  C   UNL     1       3.787   1.057  -2.470  0.00  0.00    +0.190 C 
BRANCH  18  19
ATOM     19  O   UNL     1       3.842  -0.363  -2.316  0.00  0.00    -0.392 OA
ATOM     20  H   UNL     1       4.204  -0.828  -3.083  0.00  0.00    +0.210 HD
ENDBRANCH  18  19
ENDBRANCH   3  18
TORSDOF 6
