REMARK  Name = ZINC12449758
REMARK  7 active torsions:
REMARK  status: ('A' for Active; 'I' for Inactive)
REMARK    1  A    between atoms: C_1  and  C_2
REMARK    2  A    between atoms: C_5  and  C_7
REMARK    3  A    between atoms: C_7  and  N_8
REMARK    4  A    between atoms: C_11  and  C_34
REMARK    5  A    between atoms: C_12  and  C_18
REMARK    6  A    between atoms: N_20  and  C_21
REMARK    7  A    between atoms: C_30  and  O_33
REMARK                            x       y       z     vdW  Elec       q    Type
REMARK                         _______ _______ _______ _____ _____    ______ ____
ROOT
ATOM      1  N   UNL     1      -2.892   0.913   1.392  0.00  0.00    -0.321 N 
ATOM      2  C   UNL     1      -4.186   0.510   1.649  0.00  0.00    +0.131 A 
ATOM      3  C   UNL     1      -4.654   0.392   2.993  0.00  0.00    +0.051 A 
ATOM      4  C   UNL     1      -3.976   0.646   4.192  0.00  0.00    -0.019 A 
ATOM      5  C   UNL     1      -4.617   0.476   5.381  0.00  0.00    +0.079 A 
ATOM      6  S   UNL     1      -6.246  -0.055   4.883  0.00  0.00    -0.064 S 
ATOM      7  C   UNL     1      -6.001  -0.025   3.126  0.00  0.00    +0.114 A 
ATOM      8  N   UNL     1      -6.747  -0.291   2.074  0.00  0.00    -0.228 NA
ATOM      9  C   UNL     1      -6.254  -0.167   0.856  0.00  0.00    +0.224 A 
ATOM     10  N   UNL     1      -5.008   0.222   0.653  0.00  0.00    -0.220 NA
ATOM     11  C   UNL     1      -2.540   1.101   4.167  0.00  0.00    +0.046 C 
ATOM     12  H   UNL     1      -2.265   1.025   2.124  0.00  0.00    +0.148 HD
ENDROOT
BRANCH   5  13
ATOM     13  C   UNL     1      -4.095   0.678   6.739  0.00  0.00    +0.251 C 
ATOM     14  O   UNL     1      -2.947   1.047   6.901  0.00  0.00    -0.270 OA
ATOM     15  N   UNL     1      -4.889   0.456   7.805  0.00  0.00    -0.308 N 
ATOM     16  H   UNL     1      -5.804   0.162   7.676  0.00  0.00    +0.149 HD
BRANCH  15  17
ATOM     17  C   UNL     1      -4.369   0.658   9.160  0.00  0.00    +0.080 C 
ATOM     18  C   UNL     1      -5.528   0.956  10.113  0.00  0.00    +0.013 C 
ATOM     19  C   UNL     1      -6.505  -0.222  10.111  0.00  0.00    +0.009 C 
ATOM     20  C   UNL     1      -5.778  -1.488  10.572  0.00  0.00    -0.008 C 
ATOM     21  C   UNL     1      -4.618  -1.786   9.620  0.00  0.00    +0.009 C 
ATOM     22  C   UNL     1      -3.642  -0.608   9.621  0.00  0.00    +0.013 C 
ATOM     23  C   UNL     1      -3.099  -0.397  11.036  0.00  0.00    +0.040 C 
ATOM     24  C   UNL     1      -4.258  -0.099  11.988  0.00  0.00    +0.067 C 
ATOM     25  C   UNL     1      -5.235  -1.277  11.987  0.00  0.00    +0.038 C 
ATOM     26  C   UNL     1      -4.985   1.166  11.527  0.00  0.00    +0.040 C 
BRANCH  24  27
ATOM     27  O   UNL     1      -3.751   0.098  13.310  0.00  0.00    -0.389 OA
ATOM     28  H   UNL     1      -4.432   0.292  13.968  0.00  0.00    +0.210 HD
ENDBRANCH  24  27
ENDBRANCH  15  17
ENDBRANCH   5  13
BRANCH   1  29
ATOM     29  C   UNL     1      -2.465   1.173   0.015  0.00  0.00    +0.177 C 
BRANCH  29  34
ATOM     30  C   UNL     1       1.656   4.079   0.141  0.00  0.00    +0.086 C 
ATOM     31  C   UNL     1       0.773   2.860   0.064  0.00  0.00    +0.102 A 
ATOM     32  C   UNL     1       1.196   1.589  -0.064  0.00  0.00    +0.045 A 
ATOM     33  C   UNL     1       0.041   0.774  -0.096  0.00  0.00    +0.046 A 
ATOM     34  C   UNL     1      -1.019   1.596   0.009  0.00  0.00    +0.122 A 
ATOM     35  O   UNL     1      -0.569   2.857   0.111  0.00  0.00    -0.463 OA
ENDBRANCH  29  34
ENDBRANCH   1  29
TORSDOF 5
