REMARK  Name = ZINC33759284
REMARK  6 active torsions:
REMARK  status: ('A' for Active; 'I' for Inactive)
REMARK    1  A    between atoms: C_1  and  C_2
REMARK    2  A    between atoms: C_5  and  N_8
REMARK    3  A    between atoms: C_18  and  C_22
REMARK    4  A    between atoms: N_24  and  C_25
REMARK    5  A    between atoms: C_25  and  C_26
REMARK    6  A    between atoms: C_26  and  C_27
REMARK                            x       y       z     vdW  Elec       q    Type
REMARK                         _______ _______ _______ _____ _____    ______ ____
ROOT
ATOM      1  N   UNL     1      -8.770   3.857  -0.710  0.00  0.00    -0.269 N 
ATOM      2  C   UNL     1      -8.060   2.924  -1.375  0.00  0.00    +0.306 C 
ATOM      3  O   UNL     1      -8.521   2.407  -2.374  0.00  0.00    -0.252 OA
ATOM      4  N   UNL     1      -6.840   2.563  -0.931  0.00  0.00    -0.285 N 
ATOM      5  C   UNL     1      -6.102   1.470  -1.580  0.00  0.00    +0.109 C 
ATOM      6  C   UNL     1      -5.715   0.438  -0.514  0.00  0.00    +0.017 C 
ATOM      7  C   UNL     1      -4.982   1.133   0.623  0.00  0.00    -0.016 C 
ATOM      8  C   UNL     1      -5.837   2.215   1.266  0.00  0.00    +0.017 C 
ATOM      9  C   UNL     1      -6.223   3.256   0.209  0.00  0.00    +0.109 C 
ATOM     10  N   UNL     1      -3.689   1.682   0.167  0.00  0.00    +0.397 N 
ATOM     11  C   UNL     1      -2.597   0.695   0.286  0.00  0.00    +0.028 C 
ATOM     12  C   UNL     1      -2.654   0.057   1.706  0.00  0.00    +0.061 C 
ATOM     13  S   UNL     1      -4.485  -0.101   1.889  0.00  0.00    -0.174 S 
ATOM     14  H   UNL     1      -8.323   4.379   0.149  0.00  0.00    +0.156 HD
ATOM     15  H   UNL     1      -3.769   1.980  -0.888  0.00  0.00    -0.083 HD
ATOM     16  H   UNL     1      -3.428   2.559   0.777  0.00  0.00    -0.083 HD
ENDROOT
BRANCH   1  21
ATOM     17  C   UNL     1     -14.059   5.096  -2.344  0.00  0.00    +0.044 C 
ATOM     18  C   UNL     1     -12.654   4.767  -1.910  0.00  0.00    -0.050 A 
ATOM     19  C   UNL     1     -12.327   4.779  -0.567  0.00  0.00    +0.005 A 
ATOM     20  C   UNL     1     -11.040   4.478  -0.166  0.00  0.00    +0.023 A 
ATOM     21  C   UNL     1     -10.075   4.163  -1.113  0.00  0.00    +0.035 A 
ATOM     22  C   UNL     1     -10.405   4.158  -2.462  0.00  0.00    +0.023 A 
ATOM     23  C   UNL     1     -11.695   4.455  -2.856  0.00  0.00    +0.005 A 
ENDBRANCH   1  21
BRANCH  11  24
ATOM     24  C   UNL     1      -1.270   1.383   0.093  0.00  0.00    +0.200 C 
ATOM     25  O   UNL     1      -1.231   2.577  -0.117  0.00  0.00    -0.278 OA
ATOM     26  N   UNL     1      -0.127   0.671   0.153  0.00  0.00    -0.316 N 
ATOM     27  H   UNL     1      -0.162  -0.411   0.348  0.00  0.00    +0.149 HD
BRANCH  26  28
ATOM     28  C   UNL     1       1.163   1.339  -0.040  0.00  0.00    +0.109 C 
BRANCH  28  29
ATOM     29  C   UNL     1       2.291   0.311   0.070  0.00  0.00    +0.055 C 
BRANCH  29  30
ATOM     30  C   UNL     1       3.617   0.998  -0.129  0.00  0.00    -0.027 A 
ATOM     31  C   UNL     1       4.393   1.333   0.965  0.00  0.00    +0.006 A 
ATOM     32  C   UNL     1       5.610   1.962   0.783  0.00  0.00    +0.020 A 
ATOM     33  C   UNL     1       6.052   2.257  -0.494  0.00  0.00    +0.042 A 
ATOM     34  C   UNL     1       5.277   1.923  -1.589  0.00  0.00    +0.040 A 
ATOM     35  C   UNL     1       4.061   1.288  -1.407  0.00  0.00    +0.046 A 
ATOM     36 CL   UNL     1       3.089   0.861  -2.780  0.00  0.00    -0.083 Cl
ATOM     37 CL   UNL     1       7.581   3.049  -0.722  0.00  0.00    -0.083 Cl
ENDBRANCH  29  30
ENDBRANCH  28  29
ENDBRANCH  26  28
ENDBRANCH  11  24
TORSDOF 5
