REMARK  Name = ZINC31157217
REMARK  12 active torsions:
REMARK  status: ('A' for Active; 'I' for Inactive)
REMARK    1  A    between atoms: C_4  and  O_19
REMARK    2  A    between atoms: C_5  and  C_7
REMARK    3  A    between atoms: C_7  and  O_8
REMARK    4  A    between atoms: O_8  and  C_9
REMARK    5  A    between atoms: C_9  and  C_11
REMARK    6  A    between atoms: C_11  and  O_18
REMARK    7  A    between atoms: O_19  and  C_20
REMARK    8  A    between atoms: C_22  and  O_35
REMARK    9  A    between atoms: C_24  and  O_34
REMARK   10  A    between atoms: C_26  and  O_33
REMARK   11  A    between atoms: C_28  and  C_31
REMARK   12  A    between atoms: C_31  and  O_32
REMARK                            x       y       z     vdW  Elec       q    Type
REMARK                         _______ _______ _______ _____ _____    ______ ____
ROOT
ATOM      1  C   UNL     1      -4.376   3.939  -3.044  0.00  0.00    +0.001 A 
ATOM      2  C   UNL     1      -3.838   3.439  -1.872  0.00  0.00    +0.004 A 
ATOM      3  C   UNL     1      -3.721   2.075  -1.691  0.00  0.00    +0.046 A 
ATOM      4  C   UNL     1      -4.134   1.206  -2.691  0.00  0.00    +0.130 A 
ATOM      5  C   UNL     1      -4.674   1.710  -3.865  0.00  0.00    +0.031 A 
ATOM      6  C   UNL     1      -4.794   3.075  -4.039  0.00  0.00    +0.010 A 
ENDROOT
BRANCH   5   7
ATOM      7  C   UNL     1      -5.129   0.768  -4.950  0.00  0.00    +0.271 C 
BRANCH   7   8
ATOM      8  O   UNL     1      -5.652   1.534  -6.068  0.00  0.00    -0.457 OA
BRANCH   8   9
ATOM      9  C   UNL     1      -6.102   0.841  -7.125  0.00  0.00    +0.351 C 
ATOM     10  O   UNL     1      -6.062  -0.367  -7.117  0.00  0.00    -0.247 OA
BRANCH   9  11
ATOM     11  C   UNL     1      -6.659   1.568  -8.322  0.00  0.00    +0.239 C 
ATOM     12  C   UNL     1      -8.111   1.879  -8.091  0.00  0.00    +0.022 C 
ATOM     13  C   UNL     1      -9.052   1.619  -8.936  0.00  0.00    -0.027 C 
ATOM     14  C   UNL     1      -8.876   0.952 -10.265  0.00  0.00    +0.034 C 
ATOM     15  C   UNL     1      -7.421   1.043 -10.731  0.00  0.00    +0.082 C 
ATOM     16  C   UNL     1      -6.536   0.691  -9.550  0.00  0.00    +0.180 C 
ATOM     17  O   UNL     1      -5.771  -0.242  -9.588  0.00  0.00    -0.293 OA
BRANCH  11  18
ATOM     18  O   UNL     1      -5.934   2.783  -8.523  0.00  0.00    -0.368 OA
ATOM     19  H   UNL     1      -6.201   3.450  -9.356  0.00  0.00    +0.212 HD
ENDBRANCH  11  18
ENDBRANCH   9  11
ENDBRANCH   8   9
ENDBRANCH   7   8
ENDBRANCH   5   7
BRANCH   4  20
ATOM     20  O   UNL     1      -4.015  -0.137  -2.517  0.00  0.00    -0.460 OA
BRANCH  20  21
ATOM     21  C   UNL     1      -3.451  -0.584  -1.283  0.00  0.00    +0.339 C 
ATOM     22  C   UNL     1      -3.512  -2.112  -1.218  0.00  0.00    +0.214 C 
ATOM     23  C   UNL     1      -2.851  -2.587   0.080  0.00  0.00    +0.180 C 
ATOM     24  C   UNL     1      -1.413  -2.060   0.130  0.00  0.00    +0.177 C 
ATOM     25  C   UNL     1      -1.433  -0.534   0.013  0.00  0.00    +0.179 C 
ATOM     26  O   UNL     1      -2.089  -0.159  -1.200  0.00  0.00    -0.331 OA
BRANCH  24  27
ATOM     27  O   UNL     1      -0.810  -2.436   1.370  0.00  0.00    -0.386 OA
ATOM     28  H   UNL     1       0.228  -2.144   1.587  0.00  0.00    +0.210 HD
ENDBRANCH  24  27
BRANCH  23  29
ATOM     29  O   UNL     1      -2.838  -4.015   0.115  0.00  0.00    -0.386 OA
ATOM     30  H   UNL     1      -2.400  -4.540   0.977  0.00  0.00    +0.210 HD
ENDBRANCH  23  29
BRANCH  22  31
ATOM     31  O   UNL     1      -4.876  -2.538  -1.243  0.00  0.00    -0.383 OA
ATOM     32  H   UNL     1      -5.118  -3.610  -1.203  0.00  0.00    +0.210 HD
ENDBRANCH  22  31
BRANCH  25  33
ATOM     33  C   UNL     1       0.002  -0.004   0.002  0.00  0.00    +0.190 C 
BRANCH  33  34
ATOM     34  O   UNL     1      -0.017   1.425   0.010  0.00  0.00    -0.392 OA
ATOM     35  H   UNL     1       0.928   1.988   0.004  0.00  0.00    +0.210 HD
ENDBRANCH  33  34
ENDBRANCH  25  33
ENDBRANCH  20  21
ENDBRANCH   4  20
TORSDOF 12
