REMARK  Name = ZINC51667667
REMARK  6 active torsions:
REMARK  status: ('A' for Active; 'I' for Inactive)
REMARK    1  A    between atoms: C_3  and  C_10
REMARK    2  A    between atoms: C_5  and  C_7
REMARK    3  A    between atoms: C_7  and  N_9
REMARK    4  A    between atoms: C_10  and  N_11
REMARK    5  A    between atoms: N_11  and  S_12
REMARK    6  A    between atoms: S_12  and  C_15
REMARK                            x       y       z     vdW  Elec       q    Type
REMARK                         _______ _______ _______ _____ _____    ______ ____
ROOT
ATOM      1  C   UNL     1       3.671   2.204  -0.021  0.00  0.00    +0.141 C 
ENDROOT
BRANCH   1   4
ATOM      2  C   UNL     1      -0.017   1.375   0.010  0.00  0.00    +0.001 A 
ATOM      3  C   UNL     1       1.170   2.086   0.002  0.00  0.00    +0.005 A 
ATOM      4  C   UNL     1       2.383   1.421  -0.013  0.00  0.00    -0.031 A 
ATOM      5  C   UNL     1       2.417   0.042  -0.021  0.00  0.00    +0.015 A 
ATOM      6  C   UNL     1       1.223  -0.683  -0.014  0.00  0.00    +0.003 A 
ATOM      7  C   UNL     1       0.002  -0.004   0.002  0.00  0.00    +0.010 A 
BRANCH   6   8
ATOM      8  C   UNL     1       1.251  -2.159  -0.023  0.00  0.00    +0.077 C 
ATOM      9  S   UNL     1       2.490  -2.996   0.810  0.00  0.00    -0.035 S 
BRANCH   8  10
ATOM     10  N   UNL     1       0.301  -2.846  -0.687  0.00  0.00    -0.352 N 
ATOM     11  H   UNL     1      -0.401  -2.372  -1.159  0.00  0.00    +0.143 HD
ATOM     12  H   UNL     1       0.319  -3.816  -0.693  0.00  0.00    +0.143 HD
ENDBRANCH   8  10
ENDBRANCH   6   8
ENDBRANCH   1   4
BRANCH   1  13
ATOM     13  N   UNL     1       4.101   2.450   1.357  0.00  0.00    -0.186 NA
ATOM     14  H   UNL     1       3.479   2.319   2.090  0.00  0.00    +0.148 HD
BRANCH  13  15
ATOM     15  S   UNL     1       5.648   2.954   1.664  0.00  0.00    +0.061 S 
ATOM     16  O   UNL     1       5.747   3.129   3.071  0.00  0.00    -0.153 OA
ATOM     17  O   UNL     1       6.509   2.084   0.942  0.00  0.00    -0.153 OA
BRANCH  15  18
ATOM     18  C   UNL     1       5.829   4.552   0.944  0.00  0.00    +0.132 A 
ATOM     19  C   UNL     1       6.052   5.660   1.742  0.00  0.00    +0.057 A 
ATOM     20  C   UNL     1       6.186   6.875   1.155  0.00  0.00    +0.081 A 
ATOM     21  S   UNL     1       5.997   6.474  -0.575  0.00  0.00    -0.063 S 
ATOM     22  C   UNL     1       5.756   4.714  -0.400  0.00  0.00    +0.106 A 
ATOM     23 CL   UNL     1       5.495   3.519  -1.632  0.00  0.00    -0.074 Cl
ATOM     24 CL   UNL     1       6.469   8.421   1.893  0.00  0.00    -0.076 Cl
ENDBRANCH  15  18
ENDBRANCH  13  15
ENDBRANCH   1  13
TORSDOF 6
