REMARK  Name = ZINC13981971
REMARK  10 active torsions:
REMARK  status: ('A' for Active; 'I' for Inactive)
REMARK    1  A    between atoms: C_1  and  C_2
REMARK    2  A    between atoms: C_2  and  C_3
REMARK    3  A    between atoms: C_2  and  C_4
REMARK    4  A    between atoms: C_2  and  N_5
REMARK    5  A    between atoms: N_5  and  S_6
REMARK    6  A    between atoms: S_6  and  C_9
REMARK    7  A    between atoms: C_12  and  N_15
REMARK    8  A    between atoms: N_15  and  C_16
REMARK    9  A    between atoms: C_16  and  N_18
REMARK   10  A    between atoms: C_19  and  C_21
REMARK                            x       y       z     vdW  Elec       q    Type
REMARK                         _______ _______ _______ _____ _____    ______ ____
ROOT
ATOM      1  C   UNL     1      -1.382   2.099   1.865  0.00  0.00    +0.105 A 
ATOM      2  C   UNL     1      -1.167   3.429   2.178  0.00  0.00    +0.030 A 
ATOM      3  C   UNL     1      -1.815   4.000   3.255  0.00  0.00    +0.025 A 
ATOM      4  C   UNL     1      -2.676   3.235   4.031  0.00  0.00    +0.033 A 
ATOM      5  C   UNL     1      -2.886   1.898   3.717  0.00  0.00    +0.025 A 
ATOM      6  C   UNL     1      -2.239   1.335   2.635  0.00  0.00    +0.030 A 
ENDROOT
BRANCH   1   7
ATOM      7  S   UNL     1      -0.557   1.376   0.486  0.00  0.00    +0.059 S 
ATOM      8  O   UNL     1      -0.081   0.108   0.917  0.00  0.00    -0.153 OA
ATOM      9  O   UNL     1       0.306   2.375  -0.040  0.00  0.00    -0.153 OA
BRANCH   7  10
ATOM     10  N   UNL     1      -1.704   1.083  -0.672  0.00  0.00    -0.185 NA
ATOM     11  H   UNL     1      -1.951   0.171  -0.890  0.00  0.00    +0.149 HD
BRANCH  10  13
ATOM     12  C   UNL     1      -1.309   2.930  -2.226  0.00  0.00    +0.029 C 
ATOM     13  C   UNL     1      -2.345   2.202  -1.367  0.00  0.00    +0.032 C 
ATOM     14  C   UNL     1      -3.467   1.671  -2.262  0.00  0.00    +0.029 C 
ATOM     15  C   UNL     1      -2.929   3.174  -0.340  0.00  0.00    +0.029 C 
ENDBRANCH  10  13
ENDBRANCH   7  10
ENDBRANCH   1   7
BRANCH   4  16
ATOM     16  N   UNL     1      -3.331   3.809   5.125  0.00  0.00    -0.297 N 
ATOM     17  H   UNL     1      -3.714   4.697   5.050  0.00  0.00    +0.154 HD
BRANCH  16  18
ATOM     18  C   UNL     1      -3.431   3.128   6.284  0.00  0.00    +0.141 C 
ATOM     19  S   UNL     1      -2.636   1.623   6.463  0.00  0.00    -0.018 S 
BRANCH  18  20
ATOM     20  N   UNL     1      -4.157   3.632   7.302  0.00  0.00    -0.264 N 
ATOM     21  C   UNL     1      -4.257   2.951   8.460  0.00  0.00    +0.251 C 
ATOM     22  O   UNL     1      -3.692   1.883   8.588  0.00  0.00    -0.270 OA
ATOM     23  H   UNL     1      -4.608   4.485   7.200  0.00  0.00    +0.157 HD
BRANCH  21  24
ATOM     24  C   UNL     1      -5.052   3.503   9.575  0.00  0.00    +0.055 A 
ATOM     25  C   UNL     1      -5.698   4.734   9.435  0.00  0.00    +0.014 A 
ATOM     26  C   UNL     1      -6.443   5.242  10.478  0.00  0.00    +0.001 A 
ATOM     27  C   UNL     1      -6.544   4.540  11.667  0.00  0.00    +0.001 A 
ATOM     28  C   UNL     1      -5.904   3.324  11.817  0.00  0.00    +0.021 A 
ATOM     29  C   UNL     1      -5.158   2.800  10.778  0.00  0.00    +0.053 A 
ATOM     30 CL   UNL     1      -4.354   1.273  10.967  0.00  0.00    -0.083 Cl
ENDBRANCH  21  24
ENDBRANCH  18  20
ENDBRANCH  16  18
ENDBRANCH   4  16
TORSDOF 7
