REMARK  Name = ZINC04416923
REMARK  4 active torsions:
REMARK  status: ('A' for Active; 'I' for Inactive)
REMARK    1  A    between atoms: C_2  and  C_17
REMARK    2  A    between atoms: C_5  and  O_16
REMARK    3  A    between atoms: C_6  and  O_15
REMARK    4  A    between atoms: C_8  and  C_11
REMARK                            x       y       z     vdW  Elec       q    Type
REMARK                         _______ _______ _______ _____ _____    ______ ____
ROOT
ATOM      1  C   UNL     1      -3.118   3.173   3.009  0.00  0.00    +0.106 C 
ATOM      2  C   UNL     1      -2.482   3.555   4.370  0.00  0.00    +0.178 C 
ATOM      3  O   UNL     1      -1.120   3.064   4.265  0.00  0.00    -0.337 OA
ATOM      4  C   UNL     1      -1.185   1.798   3.587  0.00  0.00    +0.226 C 
ATOM      5  C   UNL     1      -2.473   1.798   2.725  0.00  0.00    +0.226 C 
ATOM      6  O   UNL     1      -2.069   1.739   1.348  0.00  0.00    -0.337 OA
ATOM      7  C   UNL     1      -0.739   2.292   1.271  0.00  0.00    +0.178 C 
ATOM      8  C   UNL     1      -0.042   1.748   2.543  0.00  0.00    +0.106 C 
ENDROOT
BRANCH   7   9
ATOM      9  C   UNL     1      -0.022   1.799   0.012  0.00  0.00    +0.217 C 
ATOM     10 CL   UNL     1       0.002  -0.004   0.002  0.00  0.00    -0.081 Cl
ATOM     11 CL   UNL     1       1.669   2.423  -0.001  0.00  0.00    -0.081 Cl
ATOM     12 CL   UNL     1      -0.894   2.396  -1.449  0.00  0.00    -0.081 Cl
ENDBRANCH   7   9
BRANCH   2  13
ATOM     13  C   UNL     1      -2.495   5.073   4.563  0.00  0.00    +0.217 C 
ATOM     14 CL   UNL     1      -4.197   5.669   4.526  0.00  0.00    -0.081 Cl
ATOM     15 CL   UNL     1      -1.750   5.483   6.153  0.00  0.00    -0.081 Cl
ATOM     16 CL   UNL     1      -1.556   5.856   3.239  0.00  0.00    -0.081 Cl
ENDBRANCH   2  13
BRANCH   5  17
ATOM     17  O   UNL     1      -3.346   0.723   3.080  0.00  0.00    -0.361 OA
ATOM     18  H   UNL     1      -4.162   0.692   2.561  0.00  0.00    +0.213 HD
ENDBRANCH   5  17
BRANCH   4  19
ATOM     19  O   UNL     1      -1.139   0.696   4.495  0.00  0.00    -0.361 OA
ATOM     20  H   UNL     1      -0.328   0.652   5.020  0.00  0.00    +0.213 HD
ENDBRANCH   4  19
TORSDOF 4
