REMARK  Name = ZINC24563025
REMARK  5 active torsions:
REMARK  status: ('A' for Active; 'I' for Inactive)
REMARK    1  A    between atoms: C_1  and  C_2
REMARK    2  A    between atoms: C_3  and  C_20
REMARK    3  A    between atoms: C_5  and  N_9
REMARK    4  A    between atoms: C_6  and  C_7
REMARK    5  A    between atoms: C_16  and  O_19
REMARK                            x       y       z     vdW  Elec       q    Type
REMARK                         _______ _______ _______ _____ _____    ______ ____
ROOT
ATOM      1  N   UNL     1       3.897   0.306   2.394  0.00  0.00    -0.263 N 
ATOM      2  C   UNL     1       3.255   0.567   1.238  0.00  0.00    +0.307 C 
ATOM      3  O   UNL     1       3.736   0.205   0.181  0.00  0.00    -0.252 OA
ATOM      4  N   UNL     1       2.082   1.230   1.253  0.00  0.00    -0.283 N 
ATOM      5  C   UNL     1       1.432   1.573   2.525  0.00  0.00    +0.109 C 
ATOM      6  C   UNL     1      -0.005   1.043   2.503  0.00  0.00    +0.022 C 
ATOM      7  C   UNL     1      -0.725   1.582   1.265  0.00  0.00    +0.034 C 
ATOM      8  C   UNL     1      -0.010   1.092   0.004  0.00  0.00    +0.132 C 
ATOM      9  C   UNL     1       1.427   1.622  -0.003  0.00  0.00    +0.140 C 
ATOM     10  H   UNL     1       3.424   0.560   3.354  0.00  0.00    +0.157 HD
ENDROOT
BRANCH   1  15
ATOM     11  C   UNL     1       8.199  -1.641   4.220  0.00  0.00    +0.046 C 
ATOM     12  C   UNL     1       7.237  -1.229   3.135  0.00  0.00    -0.021 A 
ATOM     13  C   UNL     1       7.528  -1.408   1.834  0.00  0.00    -0.007 A 
ATOM     14  S   UNL     1       6.092  -0.766   1.000  0.00  0.00    -0.077 S 
ATOM     15  C   UNL     1       5.154  -0.282   2.373  0.00  0.00    +0.091 A 
ATOM     16  C   UNL     1       5.967  -0.619   3.448  0.00  0.00    +0.083 A 
ATOM     17  C   UNL     1       8.771  -2.008   1.228  0.00  0.00    +0.052 C 
BRANCH  16  18
ATOM     18  C   UNL     1       5.562  -0.378   4.800  0.00  0.00    +0.102 C 
ATOM     19  N   UNL     1       5.241  -0.186   5.873  0.00  0.00    -0.191 NA
ENDBRANCH  16  18
ENDBRANCH   1  15
BRANCH   8  20
ATOM     20  O   UNL     1      -0.700   1.570  -1.153  0.00  0.00    -0.390 OA
ATOM     21  H   UNL     1      -0.331   1.317  -2.158  0.00  0.00    +0.210 HD
ENDBRANCH   8  20
TORSDOF 3
