REMARK  Name = ZINC40378075
REMARK  4 active torsions:
REMARK  status: ('A' for Active; 'I' for Inactive)
REMARK    1  A    between atoms: C_4  and  S_18
REMARK    2  A    between atoms: C_5  and  N_7
REMARK    3  A    between atoms: C_8  and  C_10
REMARK    4  A    between atoms: S_18  and  N_21
REMARK                            x       y       z     vdW  Elec       q    Type
REMARK                         _______ _______ _______ _____ _____    ______ ____
ROOT
ATOM      1  C   UNL     1      -0.028   1.372   0.037  0.00  0.00    +0.002 A 
ATOM      2  C   UNL     1       1.157   2.085   0.032  0.00  0.00    +0.002 A 
ATOM      3  C   UNL     1       2.368   1.419   0.009  0.00  0.00    +0.030 A 
ATOM      4  C   UNL     1       2.399   0.038  -0.008  0.00  0.00    +0.126 A 
ATOM      5  C   UNL     1       1.211  -0.681  -0.003  0.00  0.00    +0.060 A 
ATOM      6  C   UNL     1      -0.005  -0.008   0.020  0.00  0.00    +0.025 A 
ENDROOT
BRANCH   5   7
ATOM      7  N   UNL     1       1.238  -2.079  -0.021  0.00  0.00    -0.280 N 
ATOM      8  C   UNL     1       0.186  -2.767  -0.509  0.00  0.00    +0.251 C 
ATOM      9  O   UNL     1      -0.742  -2.174  -1.024  0.00  0.00    -0.270 OA
ATOM     10  H   UNL     1       2.013  -2.554   0.317  0.00  0.00    +0.155 HD
BRANCH   8  11
ATOM     11  C   UNL     1       0.162  -4.240  -0.417  0.00  0.00    +0.072 A 
ATOM     12  C   UNL     1       1.224  -4.924   0.180  0.00  0.00    +0.017 A 
ATOM     13  C   UNL     1       1.195  -6.299   0.263  0.00  0.00    +0.016 A 
ATOM     14  C   UNL     1       0.116  -7.006  -0.244  0.00  0.00    +0.021 A 
ATOM     15  C   UNL     1      -0.940  -6.338  -0.837  0.00  0.00    +0.054 A 
ATOM     16  C   UNL     1      -0.928  -4.957  -0.922  0.00  0.00    +0.137 A 
ATOM     17  F   UNL     1      -1.962  -4.304  -1.495  0.00  0.00    -0.205 F 
ATOM     18 BR   UNL     1       0.087  -8.893  -0.126  0.00  0.00    -0.050 Br
ENDBRANCH   8  11
ENDBRANCH   5   7
BRANCH   4  19
ATOM     19  S   UNL     1       3.943  -0.810  -0.037  0.00  0.00    +0.058 S 
ATOM     20  O   UNL     1       3.855  -1.778  -1.074  0.00  0.00    -0.153 OA
ATOM     21  O   UNL     1       4.955   0.188  -0.010  0.00  0.00    -0.153 OA
BRANCH  19  22
ATOM     22  N   UNL     1       4.067  -1.649   1.385  0.00  0.00    -0.203 NA
ATOM     23  H   UNL     1       4.569  -2.479   1.415  0.00  0.00    +0.144 HD
ATOM     24  H   UNL     1       3.639  -1.311   2.186  0.00  0.00    +0.144 HD
ENDBRANCH  19  22
ENDBRANCH   4  19
TORSDOF 4
