REMARK  Name = ZINC02764070
REMARK  5 active torsions:
REMARK  status: ('A' for Active; 'I' for Inactive)
REMARK    1  A    between atoms: C_1  and  C_2
REMARK    2  A    between atoms: C_5  and  C_8
REMARK    3  A    between atoms: C_10  and  C_28
REMARK    4  A    between atoms: C_11  and  N_27
REMARK    5  A    between atoms: N_12  and  C_20
REMARK                            x       y       z     vdW  Elec       q    Type
REMARK                         _______ _______ _______ _____ _____    ______ ____
ROOT
ATOM      1  C   UNL     1      -2.866   2.551   5.053  0.00  0.00    +0.097 C 
ATOM      2  C   UNL     1      -4.091   2.210   5.849  0.00  0.00    +0.077 C 
ATOM      3  C   UNL     1      -5.328   2.577   5.426  0.00  0.00    +0.107 C 
ATOM      4  N   UNL     1      -5.476   3.281   4.253  0.00  0.00    -0.260 N 
ATOM      5  C   UNL     1      -4.416   3.962   3.713  0.00  0.00    +0.024 C 
ATOM      6  C   UNL     1      -3.150   3.652   4.062  0.00  0.00    +0.025 C 
ATOM      7  C   UNL     1      -2.056   4.345   3.513  0.00  0.00    +0.162 C 
ATOM      8  O   UNL     1      -0.929   4.051   3.860  0.00  0.00    -0.292 OA
ATOM      9  C   UNL     1      -2.256   5.442   2.504  0.00  0.00    +0.080 C 
ATOM     10  C   UNL     1      -3.549   5.175   1.726  0.00  0.00    +0.014 C 
ATOM     11  C   UNL     1      -4.702   5.067   2.725  0.00  0.00    +0.052 C 
ENDROOT
BRANCH   1  16
ATOM     12  C   UNL     1      -1.090  -2.151   2.201  0.00  0.00    +0.044 C 
ATOM     13  C   UNL     1      -1.553  -0.924   2.945  0.00  0.00    -0.050 A 
ATOM     14  C   UNL     1      -2.815  -0.410   2.711  0.00  0.00    +0.003 A 
ATOM     15  C   UNL     1      -3.241   0.712   3.397  0.00  0.00    +0.005 A 
ATOM     16  C   UNL     1      -2.403   1.325   4.309  0.00  0.00    -0.035 A 
ATOM     17  C   UNL     1      -1.140   0.813   4.539  0.00  0.00    +0.005 A 
ATOM     18  C   UNL     1      -0.715  -0.311   3.857  0.00  0.00    +0.003 A 
ENDBRANCH   1  16
BRANCH   4  19
ATOM     19  C   UNL     1      -6.718   3.303   3.606  0.00  0.00    +0.040 A 
ATOM     20  C   UNL     1      -7.648   4.286   3.920  0.00  0.00    +0.026 A 
ATOM     21  C   UNL     1      -8.870   4.308   3.277  0.00  0.00    +0.040 A 
ATOM     22  C   UNL     1      -9.173   3.345   2.330  0.00  0.00    +0.124 A 
ATOM     23  C   UNL     1      -8.249   2.361   2.020  0.00  0.00    +0.040 A 
ATOM     24  C   UNL     1      -7.024   2.338   2.656  0.00  0.00    +0.026 A 
ATOM     25  F   UNL     1     -10.372   3.365   1.706  0.00  0.00    -0.205 F 
ENDBRANCH   4  19
BRANCH   3  26
ATOM     26  N   UNL     1      -6.435   2.244   6.170  0.00  0.00    -0.345 N 
ATOM     27  H   UNL     1      -6.341   1.673   6.949  0.00  0.00    +0.144 HD
ATOM     28  H   UNL     1      -7.309   2.580   5.917  0.00  0.00    +0.144 HD
ENDBRANCH   3  26
BRANCH   2  29
ATOM     29  C   UNL     1      -3.953   1.485   7.077  0.00  0.00    +0.099 C 
ATOM     30  N   UNL     1      -3.843   0.910   8.050  0.00  0.00    -0.191 NA
ENDBRANCH   2  29
TORSDOF 4
