REMARK  Name = ZINC49558033
REMARK  6 active torsions:
REMARK  status: ('A' for Active; 'I' for Inactive)
REMARK    1  A    between atoms: C_1  and  C_2
REMARK    2  A    between atoms: C_2  and  C_3
REMARK    3  A    between atoms: C_2  and  C_4
REMARK    4  A    between atoms: C_4  and  C_6
REMARK    5  A    between atoms: C_4  and  N_11
REMARK    6  A    between atoms: C_17  and  N_22
REMARK                            x       y       z     vdW  Elec       q    Type
REMARK                         _______ _______ _______ _____ _____    ______ ____
ROOT
ATOM      1  N   UNL     1      -1.413  -1.998   0.005  0.00  0.00    -0.226 N 
ATOM      2  C   UNL     1      -0.853  -2.747  -0.962  0.00  0.00    +0.254 C 
ATOM      3  O   UNL     1      -0.291  -2.320  -1.952  0.00  0.00    -0.270 OA
ATOM      4  C   UNL     1      -1.032  -4.170  -0.622  0.00  0.00    +0.050 A 
ATOM      5  C   UNL     1      -0.672  -5.364  -1.232  0.00  0.00    +0.015 A 
ATOM      6  C   UNL     1      -1.000  -6.567  -0.637  0.00  0.00    +0.023 A 
ATOM      7  C   UNL     1      -1.690  -6.590   0.570  0.00  0.00    +0.025 A 
ATOM      8  C   UNL     1      -2.058  -5.397   1.192  0.00  0.00    +0.036 A 
ATOM      9  C   UNL     1      -1.733  -4.189   0.603  0.00  0.00    +0.051 A 
ATOM     10  C   UNL     1      -1.949  -2.772   0.967  0.00  0.00    +0.254 C 
ATOM     11  O   UNL     1      -2.516  -2.374   1.964  0.00  0.00    -0.270 OA
ENDROOT
BRANCH   7  12
ATOM     12  N   UNL     1      -2.015  -7.807   1.159  0.00  0.00    -0.358 N 
ATOM     13  H   UNL     1      -1.760  -8.638   0.727  0.00  0.00    +0.142 HD
ATOM     14  H   UNL     1      -2.497  -7.825   2.000  0.00  0.00    +0.142 HD
ENDBRANCH   7  12
BRANCH   1  15
ATOM     15  C   UNL     1      -1.433  -0.534   0.013  0.00  0.00    +0.124 C 
BRANCH  15  16
ATOM     16  C   UNL     1      -2.162  -0.034  -1.208  0.00  0.00    +0.011 A 
ATOM     17  C   UNL     1      -3.027   1.003  -1.321  0.00  0.00    +0.013 A 
ATOM     18  C   UNL     1      -3.582   1.282  -2.556  0.00  0.00    +0.008 A 
ATOM     19  C   UNL     1      -3.244   0.510  -3.618  0.00  0.00    +0.045 A 
ATOM     20  S   UNL     1      -2.104  -0.651  -2.882  0.00  0.00    -0.100 S 
ENDBRANCH  15  16
BRANCH  15  22
ATOM     21  C   UNL     1      -0.019   1.526   0.010  0.00  0.00    +0.009 C 
ATOM     22  C   UNL     1       0.002  -0.004   0.002  0.00  0.00    +0.009 C 
ATOM     23  C   UNL     1       0.742  -0.511   1.242  0.00  0.00    +0.009 C 
ENDBRANCH  15  22
ENDBRANCH   1  15
TORSDOF 4
