REMARK  Name = ZINC09737244
REMARK  5 active torsions:
REMARK  status: ('A' for Active; 'I' for Inactive)
REMARK    1  A    between atoms: C_1  and  C_2
REMARK    2  A    between atoms: C_2  and  C_3
REMARK    3  A    between atoms: C_3  and  C_21
REMARK    4  A    between atoms: N_6  and  C_10
REMARK    5  A    between atoms: C_10  and  C_11
REMARK                            x       y       z     vdW  Elec       q    Type
REMARK                         _______ _______ _______ _____ _____    ______ ____
ROOT
ATOM      1  C   UNL     1       5.359   1.911   3.385  0.00  0.00    +0.138 C 
ATOM      2  C   UNL     1       5.240   1.629   1.900  0.00  0.00    +0.251 C 
ATOM      3  O   UNL     1       5.891   0.841   1.250  0.00  0.00    -0.272 OA
ATOM      4  N   UNL     1       4.260   2.439   1.454  0.00  0.00    -0.220 N 
ATOM      5  C   UNL     1       3.751   3.189   2.439  0.00  0.00    +0.310 C 
ATOM      6  O   UNL     1       2.859   3.998   2.280  0.00  0.00    -0.252 OA
ATOM      7  N   UNL     1       4.336   2.943   3.625  0.00  0.00    -0.281 N 
ATOM      8  H   UNL     1       4.127   3.365   4.473  0.00  0.00    +0.152 HD
ENDROOT
BRANCH   1   9
ATOM      9  C   UNL     1       6.731   2.437   3.717  0.00  0.00    -0.015 A 
ATOM     10  C   UNL     1       7.741   1.561   4.069  0.00  0.00    +0.006 A 
ATOM     11  C   UNL     1       9.001   2.044   4.369  0.00  0.00    +0.000 A 
ATOM     12  C   UNL     1       9.249   3.403   4.326  0.00  0.00    +0.000 A 
ATOM     13  C   UNL     1       8.238   4.279   3.978  0.00  0.00    +0.000 A 
ATOM     14  C   UNL     1       6.979   3.796   3.674  0.00  0.00    +0.006 A 
ENDBRANCH   1   9
BRANCH   1  16
ATOM     15  C   UNL     1       3.608   0.222   3.955  0.00  0.00    +0.007 C 
ATOM     16  C   UNL     1       5.057   0.650   4.197  0.00  0.00    +0.037 C 
ENDBRANCH   1  16
BRANCH   4  17
ATOM     17  C   UNL     1       3.810   2.497   0.060  0.00  0.00    +0.154 C 
BRANCH  17  18
ATOM     18  C   UNL     1       2.645   1.560  -0.130  0.00  0.00    -0.012 A 
ATOM     19  C   UNL     1       2.091   0.917   0.961  0.00  0.00    +0.055 A 
ATOM     20  C   UNL     1       1.019   0.056   0.788  0.00  0.00    +0.167 A 
ATOM     21  C   UNL     1       0.502  -0.160  -0.487  0.00  0.00    +0.167 A 
ATOM     22  C   UNL     1       1.062   0.487  -1.576  0.00  0.00    +0.065 A 
ATOM     23  C   UNL     1       2.132   1.345  -1.397  0.00  0.00    +0.026 A 
ATOM     24 BR   UNL     1       2.894   2.228  -2.885  0.00  0.00    -0.050 Br
ATOM     25  O   UNL     1      -0.538  -1.039  -0.393  0.00  0.00    -0.453 OA
ATOM     26  C   UNL     1      -0.913  -1.043   0.997  0.00  0.00    +0.466 C 
ATOM     27  O   UNL     1       0.299  -0.683   1.682  0.00  0.00    -0.453 OA
ENDBRANCH  17  18
ENDBRANCH   4  17
TORSDOF 4
