REMARK  Name = ZINC16130965
REMARK  7 active torsions:
REMARK  status: ('A' for Active; 'I' for Inactive)
REMARK    1  A    between atoms: C_3  and  N_8
REMARK    2  A    between atoms: N_8  and  S_9
REMARK    3  A    between atoms: S_9  and  C_12
REMARK    4  A    between atoms: C_15  and  O_30
REMARK    5  A    between atoms: C_16  and  N_18
REMARK    6  A    between atoms: N_18  and  S_19
REMARK    7  A    between atoms: S_19  and  C_22
REMARK                            x       y       z     vdW  Elec       q    Type
REMARK                         _______ _______ _______ _____ _____    ______ ____
ROOT
ATOM      1  C   UNL     1       1.828   0.821  -0.579  0.00  0.00    +0.111 A 
ATOM      2  C   UNL     1       2.349  -0.399  -0.970  0.00  0.00    +0.032 A 
ATOM      3  C   UNL     1       1.517  -1.491  -1.130  0.00  0.00    +0.049 A 
ATOM      4  C   UNL     1       0.157  -1.366  -0.899  0.00  0.00    +0.139 A 
ATOM      5  C   UNL     1      -0.369  -0.138  -0.505  0.00  0.00    +0.091 A 
ATOM      6  C   UNL     1       0.472   0.954  -0.346  0.00  0.00    +0.057 A 
ENDROOT
BRANCH   1   7
ATOM      7  S   UNL     1       2.895   2.208  -0.376  0.00  0.00    +0.072 S 
ATOM      8  O   UNL     1       4.089   1.909  -1.087  0.00  0.00    -0.150 OA
ATOM      9  O   UNL     1       2.115   3.364  -0.649  0.00  0.00    -0.150 OA
BRANCH   7  10
ATOM     10  N   UNL     1       3.304   2.281   1.227  0.00  0.00    -0.216 N 
ATOM     11  H   UNL     1       2.987   3.015   1.776  0.00  0.00    +0.174 HD
BRANCH  10  14
ATOM     12  C   UNL     1       6.125   0.628   2.905  0.00  0.00    +0.003 A 
ATOM     13  C   UNL     1       5.334   1.615   2.350  0.00  0.00    +0.024 A 
ATOM     14  C   UNL     1       4.107   1.285   1.789  0.00  0.00    +0.049 A 
ATOM     15  C   UNL     1       3.676  -0.035   1.794  0.00  0.00    +0.044 A 
ATOM     16  C   UNL     1       4.475  -1.019   2.346  0.00  0.00    +0.043 A 
ATOM     17  C   UNL     1       5.697  -0.687   2.903  0.00  0.00    +0.020 A 
ATOM     18 CL   UNL     1       3.942  -2.671   2.346  0.00  0.00    -0.083 Cl
ENDBRANCH  10  14
ENDBRANCH   7  10
ENDBRANCH   1   7
BRANCH   5  19
ATOM     19  N   UNL     1      -1.743  -0.004  -0.276  0.00  0.00    -0.213 N 
ATOM     20  H   UNL     1      -2.174  -0.534   0.413  0.00  0.00    +0.174 HD
BRANCH  19  21
ATOM     21  S   UNL     1      -2.634   1.060  -1.180  0.00  0.00    +0.075 S 
ATOM     22  O   UNL     1      -3.972   0.970  -0.711  0.00  0.00    -0.150 OA
ATOM     23  O   UNL     1      -1.913   2.284  -1.194  0.00  0.00    -0.150 OA
BRANCH  21  24
ATOM     24  C   UNL     1      -2.638   0.460  -2.836  0.00  0.00    +0.144 A 
ATOM     25  C   UNL     1      -3.814   0.001  -3.402  0.00  0.00    +0.034 A 
ATOM     26  C   UNL     1      -3.819  -0.469  -4.701  0.00  0.00    +0.040 A 
ATOM     27  C   UNL     1      -2.646  -0.483  -5.438  0.00  0.00    +0.126 A 
ATOM     28  C   UNL     1      -1.469  -0.024  -4.872  0.00  0.00    +0.078 A 
ATOM     29  C   UNL     1      -1.466   0.452  -3.573  0.00  0.00    +0.153 A 
ATOM     30  F   UNL     1      -0.319   0.905  -3.021  0.00  0.00    -0.203 F 
ATOM     31  F   UNL     1      -2.652  -0.943  -6.708  0.00  0.00    -0.205 F 
ENDBRANCH  21  24
ENDBRANCH  19  21
ENDBRANCH   5  19
BRANCH   4  32
ATOM     32  O   UNL     1      -0.663  -2.440  -1.056  0.00  0.00    -0.505 OA
ATOM     33  H   UNL     1      -1.024  -2.532  -1.948  0.00  0.00    +0.292 HD
ENDBRANCH   4  32
TORSDOF 7
