REMARK  Name = ZINC39638711
REMARK  7 active torsions:
REMARK  status: ('A' for Active; 'I' for Inactive)
REMARK    1  A    between atoms: C_1  and  C_2
REMARK    2  A    between atoms: C_2  and  O_3
REMARK    3  A    between atoms: O_3  and  C_4
REMARK    4  A    between atoms: C_9  and  C_10
REMARK    5  A    between atoms: C_10  and  N_11
REMARK    6  A    between atoms: C_12  and  C_14
REMARK    7  A    between atoms: C_25  and  C_27
REMARK                            x       y       z     vdW  Elec       q    Type
REMARK                         _______ _______ _______ _____ _____    ______ ____
ROOT
ATOM      1  C   UNL     1      -5.537   0.343  -3.024  0.00  0.00    +0.100 C 
ATOM      2  C   UNL     1      -5.761  -0.864  -3.962  0.00  0.00    +0.121 C 
ATOM      3  N   UNL     1      -7.232  -1.041  -3.999  0.00  0.00    -0.297 N 
ATOM      4  C   UNL     1      -7.769   0.340  -4.030  0.00  0.00    +0.115 C 
ATOM      5  C   UNL     1      -6.855   1.133  -3.074  0.00  0.00    -0.004 C 
ATOM      6  C   UNL     1      -6.610   2.536  -3.620  0.00  0.00    -0.010 C 
ATOM      7  C   UNL     1      -7.925   3.321  -3.605  0.00  0.00    -0.082 C 
ATOM      8  N   UNL     1      -8.440   3.392  -2.232  0.00  0.00    +0.379 N 
ATOM      9  C   UNL     1      -8.761   2.043  -1.749  0.00  0.00    -0.082 C 
ATOM     10  C   UNL     1      -7.482   1.204  -1.685  0.00  0.00    -0.010 C 
ATOM     11  C   UNL     1      -7.924  -2.197  -4.003  0.00  0.00    +0.260 C 
ATOM     12  O   UNL     1      -7.342  -3.253  -3.877  0.00  0.00    -0.271 OA
ATOM     13  H   UNL     1      -7.742   3.805  -1.633  0.00  0.00    -0.086 HD
ATOM     14  H   UNL     1      -9.274   3.960  -2.216  0.00  0.00    -0.086 HD
ENDROOT
BRANCH  11  15
ATOM     15  C   UNL     1      -9.422  -2.177  -4.166  0.00  0.00    +0.296 C 
ATOM     16  C   UNL     1      -9.783  -1.734  -5.591  0.00  0.00    +0.283 C 
ATOM     17  O   UNL     1     -11.209  -1.739  -5.715  0.00  0.00    -0.484 OA
ATOM     18  C   UNL     1     -11.860  -2.835  -5.237  0.00  0.00    +0.162 A 
ATOM     19  C   UNL     1     -13.165  -3.079  -5.637  0.00  0.00    +0.049 A 
ATOM     20  C   UNL     1     -13.841  -4.186  -5.158  0.00  0.00    +0.004 A 
ATOM     21  C   UNL     1     -13.217  -5.053  -4.280  0.00  0.00    +0.004 A 
ATOM     22  C   UNL     1     -11.916  -4.816  -3.879  0.00  0.00    +0.049 A 
ATOM     23  C   UNL     1     -11.232  -3.708  -4.357  0.00  0.00    +0.163 A 
ATOM     24  O   UNL     1      -9.948  -3.493  -3.959  0.00  0.00    -0.473 OA
ENDBRANCH  11  15
BRANCH   1  26
ATOM     25  N   UNL     1      -4.477   0.606  -0.804  0.00  0.00    -0.311 N 
ATOM     26  C   UNL     1      -5.261  -0.128  -1.619  0.00  0.00    +0.218 C 
ATOM     27  O   UNL     1      -5.743  -1.168  -1.223  0.00  0.00    -0.275 OA
ATOM     28  H   UNL     1      -4.092   1.437  -1.121  0.00  0.00    +0.149 HD
BRANCH  25  29
ATOM     29  C   UNL     1      -4.209   0.147   0.561  0.00  0.00    +0.143 C 
BRANCH  29  35
ATOM     30  C   UNL     1      -3.850   2.303   1.791  0.00  0.00    +0.125 A 
ATOM     31  C   UNL     1      -3.024   3.212   2.436  0.00  0.00    +0.046 A 
ATOM     32  C   UNL     1      -1.670   2.960   2.541  0.00  0.00    +0.004 A 
ATOM     33  C   UNL     1      -1.138   1.802   2.004  0.00  0.00    +0.001 A 
ATOM     34  C   UNL     1      -1.958   0.895   1.361  0.00  0.00    +0.009 A 
ATOM     35  C   UNL     1      -3.314   1.140   1.258  0.00  0.00    +0.011 A 
BRANCH  30  36
ATOM     36  O   UNL     1      -5.183   2.549   1.686  0.00  0.00    -0.492 OA
BRANCH  36  38
ATOM     37  C   UNL     1      -7.176   3.867   2.044  0.00  0.00    +0.048 C 
ATOM     38  C   UNL     1      -5.665   3.766   2.259  0.00  0.00    +0.225 C 
ENDBRANCH  36  38
ENDBRANCH  30  36
ENDBRANCH  29  35
ENDBRANCH  25  29
ENDBRANCH   1  26
TORSDOF 6
