REMARK  Name = ZINC13330065
REMARK  5 active torsions:
REMARK  status: ('A' for Active; 'I' for Inactive)
REMARK    1  A    between atoms: C_1  and  C_2
REMARK    2  A    between atoms: C_7  and  N_8
REMARK    3  A    between atoms: N_11  and  C_12
REMARK    4  A    between atoms: C_12  and  C_14
REMARK    5  A    between atoms: C_12  and  C_15
REMARK                            x       y       z     vdW  Elec       q    Type
REMARK                         _______ _______ _______ _____ _____    ______ ____
ROOT
ATOM      1  N   UNL     1      -1.209   2.076   0.053  0.00  0.00    -0.269 N 
ATOM      2  C   UNL     1      -1.239   3.420   0.145  0.00  0.00    +0.304 C 
ATOM      3  O   UNL     1      -0.201   4.053   0.126  0.00  0.00    -0.252 OA
ATOM      4  N   UNL     1      -2.418   4.062   0.257  0.00  0.00    -0.293 N 
ATOM      5  H   UNL     1      -2.039   1.574   0.007  0.00  0.00    +0.156 HD
ATOM      6  H   UNL     1      -3.246   3.557   0.272  0.00  0.00    +0.151 HD
ENDROOT
BRANCH   1  13
ATOM      7  C   UNL     1      -1.046  -0.477   1.300  0.00  0.00    +0.045 C 
ATOM      8  C   UNL     1       0.140   0.154   0.617  0.00  0.00    -0.029 A 
ATOM      9  C   UNL     1       1.351  -0.510   0.581  0.00  0.00    +0.005 A 
ATOM     10  C   UNL     1       2.440   0.068  -0.045  0.00  0.00    +0.000 A 
ATOM     11  C   UNL     1       2.321   1.312  -0.638  0.00  0.00    +0.002 A 
ATOM     12  C   UNL     1       1.113   1.981  -0.605  0.00  0.00    +0.023 A 
ATOM     13  C   UNL     1       0.017   1.403   0.023  0.00  0.00    +0.038 A 
ENDBRANCH   1  13
BRANCH   4  14
ATOM     14  C   UNL     1      -2.450   5.523   0.357  0.00  0.00    +0.103 C 
ATOM     15  C   UNL     1      -2.540   6.129  -1.045  0.00  0.00    +0.033 C 
BRANCH  14  16
ATOM     16  C   UNL     1      -3.651   5.945   1.165  0.00  0.00    -0.009 A 
ATOM     17  C   UNL     1      -4.766   5.130   1.223  0.00  0.00    +0.008 A 
ATOM     18  C   UNL     1      -5.865   5.514   1.967  0.00  0.00    +0.020 A 
ATOM     19  C   UNL     1      -5.855   6.720   2.646  0.00  0.00    +0.042 A 
ATOM     20  C   UNL     1      -4.742   7.539   2.583  0.00  0.00    +0.040 A 
ATOM     21  C   UNL     1      -3.639   7.151   1.842  0.00  0.00    +0.047 A 
ATOM     22 CL   UNL     1      -2.242   8.179   1.763  0.00  0.00    -0.083 Cl
ATOM     23 CL   UNL     1      -7.238   7.205   3.576  0.00  0.00    -0.083 Cl
ENDBRANCH  14  16
ENDBRANCH   4  14
TORSDOF 3
