REMARK  Name = ZINC05915357
REMARK  6 active torsions:
REMARK  status: ('A' for Active; 'I' for Inactive)
REMARK    1  A    between atoms: C_1  and  O_2
REMARK    2  A    between atoms: O_2  and  C_3
REMARK    3  A    between atoms: C_5  and  O_19
REMARK    4  A    between atoms: C_6  and  C_10
REMARK    5  A    between atoms: C_10  and  C_13
REMARK    6  A    between atoms: N_11  and  O_12
REMARK                            x       y       z     vdW  Elec       q    Type
REMARK                         _______ _______ _______ _____ _____    ______ ____
ROOT
ATOM      1  C   UNL     1      -0.688  -0.835  -2.084  0.00  0.00    +0.137 A 
ATOM      2  C   UNL     1       0.121  -0.005  -2.846  0.00  0.00    +0.092 A 
ATOM      3  C   UNL     1       1.158  -0.542  -3.590  0.00  0.00    +0.130 A 
ATOM      4  C   UNL     1       1.387  -1.924  -3.569  0.00  0.00    +0.047 A 
ATOM      5  C   UNL     1       0.568  -2.751  -2.799  0.00  0.00    +0.032 A 
ATOM      6  C   UNL     1      -0.459  -2.206  -2.058  0.00  0.00    +0.060 A 
ATOM      7 BR   UNL     1      -1.563  -3.327  -1.009  0.00  0.00    -0.046 Br
ENDROOT
BRANCH   1   9
ATOM      8  C   UNL     1      -1.885   1.111  -1.427  0.00  0.00    +0.277 C 
ATOM      9  O   UNL     1      -1.705  -0.305  -1.355  0.00  0.00    -0.494 OA
ENDBRANCH   1   9
BRANCH   4  10
ATOM     10  C   UNL     1       2.493  -2.505  -4.361  0.00  0.00    +0.120 C 
ATOM     11  N   UNL     1       3.326  -1.723  -4.988  0.00  0.00    -0.086 NA
BRANCH  10  12
ATOM     12  C   UNL     1       2.653  -3.976  -4.442  0.00  0.00    +0.004 A 
ATOM     13  C   UNL     1       1.530  -4.799  -4.520  0.00  0.00    +0.010 A 
ATOM     14  C   UNL     1       1.686  -6.168  -4.596  0.00  0.00    +0.001 A 
ATOM     15  C   UNL     1       2.953  -6.724  -4.595  0.00  0.00    +0.000 A 
ATOM     16  C   UNL     1       4.071  -5.912  -4.518  0.00  0.00    +0.001 A 
ATOM     17  C   UNL     1       3.928  -4.541  -4.447  0.00  0.00    +0.010 A 
ENDBRANCH  10  12
BRANCH  11  18
ATOM     18  O   UNL     1       4.338  -2.278  -5.808  0.00  0.00    -0.409 OA
ATOM     19  H   UNL     1       4.907  -1.621  -6.231  0.00  0.00    +0.328 HD
ENDBRANCH  11  18
ENDBRANCH   4  10
BRANCH   3  20
ATOM     20  O   UNL     1       1.950   0.268  -4.338  0.00  0.00    -0.506 OA
ATOM     21  H   UNL     1       2.725   0.604  -3.867  0.00  0.00    +0.292 HD
ENDBRANCH   3  20
TORSDOF 5
