REMARK  Name = ZINC55311815
REMARK  5 active torsions:
REMARK  status: ('A' for Active; 'I' for Inactive)
REMARK    1  A    between atoms: C_1  and  C_2
REMARK    2  A    between atoms: C_3  and  S_10
REMARK    3  A    between atoms: C_5  and  C_7
REMARK    4  A    between atoms: S_10  and  N_13
REMARK    5  A    between atoms: N_13  and  C_14
REMARK                            x       y       z     vdW  Elec       q    Type
REMARK                         _______ _______ _______ _____ _____    ______ ____
ROOT
ATOM      1  S   UNL     1      -2.770  -0.279   0.014  0.00  0.00    +0.095 S 
ATOM      2  O   UNL     1      -2.896   0.703  -1.005  0.00  0.00    -0.148 OA
ATOM      3  O   UNL     1      -3.563  -1.458   0.038  0.00  0.00    -0.148 OA
ENDROOT
BRANCH   1   6
ATOM      4  C   UNL     1      -0.018   1.503   0.010  0.00  0.00    +0.088 C 
ATOM      5  C   UNL     1       0.002  -0.004   0.002  0.00  0.00    +0.130 A 
ATOM      6  C   UNL     1      -1.088  -0.804   0.003  0.00  0.00    +0.152 A 
ATOM      7  C   UNL     1      -0.630  -2.129  -0.007  0.00  0.00    +0.086 A 
ATOM      8  C   UNL     1       0.746  -2.068  -0.013  0.00  0.00    +0.218 A 
ATOM      9  O   UNL     1       1.102  -0.766  -0.013  0.00  0.00    -0.451 OA
BRANCH   8  10
ATOM     10  C   UNL     1       1.659  -3.210  -0.023  0.00  0.00    +0.421 C 
ATOM     11  O   UNL     1       1.212  -4.351  -0.027  0.00  0.00    -0.237 OA
ATOM     12  O   UNL     1       2.870  -3.026  -0.028  0.00  0.00    -0.237 OA
ENDBRANCH   8  10
ENDBRANCH   1   6
BRANCH   1  13
ATOM     13  N   UNL     1      -3.031   0.497   1.453  0.00  0.00    -0.097 NA
BRANCH  13  14
ATOM     14  C   UNL     1      -4.292   1.026   1.743  0.00  0.00    +0.088 A 
ATOM     15  C   UNL     1      -5.328   0.898   0.828  0.00  0.00    +0.029 A 
ATOM     16  C   UNL     1      -6.573   1.421   1.117  0.00  0.00    +0.017 A 
ATOM     17  C   UNL     1      -6.789   2.075   2.317  0.00  0.00    +0.019 A 
ATOM     18  C   UNL     1      -5.759   2.205   3.232  0.00  0.00    +0.032 A 
ATOM     19  C   UNL     1      -4.513   1.678   2.951  0.00  0.00    +0.043 A 
ATOM     20 BR   UNL     1      -3.108   1.849   4.205  0.00  0.00    -0.048 Br
ATOM     21 BR   UNL     1      -8.494   2.791   2.708  0.00  0.00    -0.050 Br
ENDBRANCH  13  14
ENDBRANCH   1  13
TORSDOF 4
