REMARK  Name = ZINC39662795
REMARK  5 active torsions:
REMARK  status: ('A' for Active; 'I' for Inactive)
REMARK    1  A    between atoms: C_4  and  C_8
REMARK    2  A    between atoms: C_12  and  C_21
REMARK    3  A    between atoms: N_23  and  C_24
REMARK    4  A    between atoms: C_24  and  C_25
REMARK    5  A    between atoms: C_28  and  C_31
REMARK                            x       y       z     vdW  Elec       q    Type
REMARK                         _______ _______ _______ _____ _____    ______ ____
ROOT
ATOM      1  C   UNL     1       3.986  -0.736  -0.140  0.00  0.00    +0.249 C 
ATOM      2  O   UNL     1       5.073  -0.206  -0.263  0.00  0.00    -0.270 OA
ATOM      3  N   UNL     1       3.900  -2.075  -0.009  0.00  0.00    -0.296 N 
ATOM      4  C   UNL     1       2.674  -2.905   0.044  0.00  0.00    +0.121 C 
ATOM      5  C   UNL     1       3.023  -4.169  -0.774  0.00  0.00    +0.100 C 
ATOM      6  C   UNL     1       4.558  -4.258  -0.722  0.00  0.00    -0.004 C 
ATOM      7  C   UNL     1       5.011  -3.049   0.109  0.00  0.00    +0.115 C 
ATOM      8  C   UNL     1       5.141  -4.172  -2.129  0.00  0.00    -0.010 C 
ATOM      9  C   UNL     1       6.663  -4.321  -2.056  0.00  0.00    -0.082 C 
ATOM     10  N   UNL     1       7.002  -5.611  -1.442  0.00  0.00    +0.379 N 
ATOM     11  C   UNL     1       6.518  -5.649  -0.057  0.00  0.00    -0.082 C 
ATOM     12  C   UNL     1       4.989  -5.556  -0.045  0.00  0.00    -0.010 C 
ATOM     13  H   UNL     1       6.570  -6.356  -1.969  0.00  0.00    -0.086 HD
ATOM     14  H   UNL     1       8.003  -5.733  -1.451  0.00  0.00    -0.086 HD
ENDROOT
BRANCH   1  18
ATOM     15  C   UNL     1       0.458   1.631  -0.125  0.00  0.00    +0.023 A 
ATOM     16  C   UNL     1       1.534   2.009  -0.905  0.00  0.00    +0.040 A 
ATOM     17  C   UNL     1       2.686   1.244  -0.916  0.00  0.00    +0.136 A 
ATOM     18  C   UNL     1       2.760   0.087  -0.134  0.00  0.00    +0.073 A 
ATOM     19  C   UNL     1       1.667  -0.287   0.651  0.00  0.00    +0.036 A 
ATOM     20  C   UNL     1       0.524   0.485   0.651  0.00  0.00    +0.042 A 
ATOM     21 CL   UNL     1      -0.835   0.021   1.627  0.00  0.00    -0.084 Cl
ATOM     22  F   UNL     1       3.738   1.614  -1.679  0.00  0.00    -0.205 F 
ENDBRANCH   1  18
BRANCH   5  23
ATOM     23  C   UNL     1       2.553  -4.019  -2.198  0.00  0.00    +0.218 C 
ATOM     24  O   UNL     1       2.500  -2.920  -2.707  0.00  0.00    -0.275 OA
ATOM     25  N   UNL     1       2.190  -5.108  -2.905  0.00  0.00    -0.315 N 
ATOM     26  H   UNL     1       2.232  -5.987  -2.498  0.00  0.00    +0.149 HD
BRANCH  25  27
ATOM     27  C   UNL     1       1.732  -4.963  -4.289  0.00  0.00    +0.107 C 
BRANCH  27  28
ATOM     28  C   UNL     1       1.384  -6.339  -4.858  0.00  0.00    +0.006 C 
ATOM     29  C   UNL     1       0.191  -6.920  -4.096  0.00  0.00    +0.006 C 
ATOM     30  C   UNL     1      -0.157  -8.297  -4.666  0.00  0.00    +0.015 C 
ATOM     31  C   UNL     1      -0.515  -8.161  -6.147  0.00  0.00    +0.102 C 
ATOM     32  C   UNL     1       0.678  -7.580  -6.909  0.00  0.00    +0.015 C 
ATOM     33  C   UNL     1       1.026  -6.203  -6.340  0.00  0.00    +0.006 C 
BRANCH  31  34
ATOM     34  C   UNL     1      -0.858  -9.517  -6.708  0.00  0.00    +0.359 C 
ATOM     35  O   UNL     1      -1.783  -9.636  -7.492  0.00  0.00    -0.246 OA
ATOM     36  O   UNL     1      -0.209 -10.495  -6.377  0.00  0.00    -0.246 OA
ENDBRANCH  31  34
ENDBRANCH  27  28
ENDBRANCH  25  27
ENDBRANCH   5  23
TORSDOF 5
