REMARK  Name = ZINC12883158
REMARK  6 active torsions:
REMARK  status: ('A' for Active; 'I' for Inactive)
REMARK    1  A    between atoms: C_1  and  C_2
REMARK    2  A    between atoms: C_13  and  C_15
REMARK    3  A    between atoms: C_15  and  C_17
REMARK    4  A    between atoms: C_15  and  O_18
REMARK    5  A    between atoms: N_21  and  C_24
REMARK    6  A    between atoms: C_24  and  C_25
REMARK                            x       y       z     vdW  Elec       q    Type
REMARK                         _______ _______ _______ _____ _____    ______ ____
ROOT
ATOM      1  C   UNL     1       6.317   4.442  -0.313  0.00  0.00    +0.044 C 
ATOM      2  C   UNL     1       5.507   3.269  -0.801  0.00  0.00    -0.050 A 
ATOM      3  C   UNL     1       6.143   2.130  -1.258  0.00  0.00    +0.005 A 
ATOM      4  C   UNL     1       5.405   1.054  -1.708  0.00  0.00    +0.024 A 
ATOM      5  C   UNL     1       4.013   1.106  -1.703  0.00  0.00    +0.036 A 
ATOM      6  C   UNL     1       3.385   2.257  -1.237  0.00  0.00    -0.027 A 
ATOM      7  C   UNL     1       4.125   3.329  -0.791  0.00  0.00    +0.008 A 
ATOM      8  C   UNL     1       1.910   1.997  -1.358  0.00  0.00    +0.050 C 
ATOM      9  C   UNL     1       1.208   2.098   0.002  0.00  0.00    +0.088 C 
ATOM     10  C   UNL     1       0.607   3.531   0.024  0.00  0.00    +0.075 C 
ATOM     11  C   UNL     1       1.014   4.154  -1.328  0.00  0.00    -0.028 C 
ATOM     12  C   UNL     1      -0.884   3.283   0.031  0.00  0.00    +0.224 C 
ATOM     13  O   UNL     1      -1.738   4.145   0.042  0.00  0.00    -0.275 OA
ATOM     14  N   UNL     1      -1.117   1.966   0.018  0.00  0.00    -0.237 N 
ATOM     15  C   UNL     1      -0.014   1.208   0.009  0.00  0.00    +0.225 C 
ATOM     16  O   UNL     1       0.002  -0.004   0.002  0.00  0.00    -0.275 OA
ATOM     17  C   UNL     1       1.803   0.611  -1.932  0.00  0.00    +0.211 C 
ATOM     18  O   UNL     1       0.781   0.012  -2.192  0.00  0.00    -0.277 OA
ATOM     19  N   UNL     1       3.063   0.164  -2.100  0.00  0.00    -0.286 N 
ATOM     20  H   UNL     1       3.284  -0.711  -2.457  0.00  0.00    +0.155 HD
ATOM     21  N   UNL     1       1.264   2.997  -2.190  0.00  0.00    +0.396 N 
ATOM     22  H   UNL     1       0.378   2.632  -2.560  0.00  0.00    -0.083 HD
ATOM     23  H   UNL     1       1.878   3.261  -2.969  0.00  0.00    -0.083 HD
ENDROOT
BRANCH  11  24
ATOM     24  C   UNL     1      -0.119   5.024  -1.875  0.00  0.00    +0.098 C 
ATOM     25  C   UNL     1       0.276   5.569  -3.249  0.00  0.00    +0.036 C 
BRANCH  24  26
ATOM     26  O   UNL     1      -0.358   6.114  -0.982  0.00  0.00    -0.394 OA
ATOM     27  H   UNL     1       0.408   6.690  -0.851  0.00  0.00    +0.210 HD
ENDBRANCH  24  26
ENDBRANCH  11  24
BRANCH  14  28
ATOM     28  C   UNL     1      -2.468   1.399   0.017  0.00  0.00    +0.151 C 
BRANCH  28  29
ATOM     29  C   UNL     1      -2.927   1.194   1.437  0.00  0.00    -0.026 A 
ATOM     30  C   UNL     1      -2.679  -0.007   2.076  0.00  0.00    +0.009 A 
ATOM     31  C   UNL     1      -3.095  -0.198   3.381  0.00  0.00    +0.050 A 
ATOM     32  C   UNL     1      -3.770   0.811   4.048  0.00  0.00    +0.166 A 
ATOM     33  C   UNL     1      -4.025   2.019   3.403  0.00  0.00    +0.167 A 
ATOM     34  C   UNL     1      -3.601   2.205   2.097  0.00  0.00    +0.054 A 
ATOM     35  O   UNL     1      -4.696   2.839   4.263  0.00  0.00    -0.453 OA
ATOM     36  C   UNL     1      -4.491   2.276   5.572  0.00  0.00    +0.466 C 
ATOM     37  O   UNL     1      -4.282   0.875   5.312  0.00  0.00    -0.453 OA
ENDBRANCH  28  29
ENDBRANCH  14  28
TORSDOF 4
