REMARK  Name = ZINC27533230
REMARK  7 active torsions:
REMARK  status: ('A' for Active; 'I' for Inactive)
REMARK    1  A    between atoms: C_1  and  C_2
REMARK    2  A    between atoms: C_2  and  O_3
REMARK    3  A    between atoms: O_3  and  C_4
REMARK    4  A    between atoms: C_4  and  C_6
REMARK    5  A    between atoms: C_7  and  N_32
REMARK    6  A    between atoms: C_11  and  C_13
REMARK    7  A    between atoms: C_23  and  C_26
REMARK                            x       y       z     vdW  Elec       q    Type
REMARK                         _______ _______ _______ _____ _____    ______ ____
ROOT
ATOM      1  C   UNL     1      -0.815   6.508  -1.189  0.00  0.00    +0.105 C 
ATOM      2  C   UNL     1      -2.108   6.911  -1.087  0.00  0.00    +0.195 C 
ATOM      3  O   UNL     1      -2.752   6.899   0.090  0.00  0.00    -0.446 OA
ATOM      4  C   UNL     1      -2.048   6.916   1.238  0.00  0.00    +0.115 C 
ATOM      5  C   UNL     1      -0.765   6.512   1.280  0.00  0.00    +0.045 C 
ATOM      6  C   UNL     1      -0.068   6.039   0.028  0.00  0.00    +0.097 C 
ATOM      7  C   UNL     1      -0.036   6.517   2.485  0.00  0.00    +0.164 C 
ATOM      8  O   UNL     1       1.125   6.158   2.480  0.00  0.00    -0.292 OA
ATOM      9  C   UNL     1      -0.667   6.959   3.777  0.00  0.00    +0.088 C 
ATOM     10  C   UNL     1      -2.174   6.688   3.710  0.00  0.00    +0.034 C 
ATOM     11  C   UNL     1      -2.742   7.410   2.486  0.00  0.00    +0.083 C 
ENDROOT
BRANCH   6  12
ATOM     12  C   UNL     1      -0.008   4.533   0.028  0.00  0.00    -0.035 A 
ATOM     13  C   UNL     1       1.215   3.889   0.009  0.00  0.00    +0.006 A 
ATOM     14  C   UNL     1       1.270   2.508   0.009  0.00  0.00    +0.020 A 
ATOM     15  C   UNL     1       0.100   1.770   0.028  0.00  0.00    +0.041 A 
ATOM     16  C   UNL     1      -1.124   2.414   0.042  0.00  0.00    +0.020 A 
ATOM     17  C   UNL     1      -1.178   3.795   0.047  0.00  0.00    +0.006 A 
ATOM     18 CL   UNL     1       0.168   0.035   0.028  0.00  0.00    -0.084 Cl
ENDBRANCH   6  12
BRANCH  10  19
ATOM     19  C   UNL     1      -2.837   7.210   4.959  0.00  0.00    -0.043 A 
ATOM     20  C   UNL     1      -2.733   8.548   5.290  0.00  0.00    +0.004 A 
ATOM     21  C   UNL     1      -3.345   9.027   6.433  0.00  0.00    +0.000 A 
ATOM     22  C   UNL     1      -4.055   8.166   7.249  0.00  0.00    +0.000 A 
ATOM     23  C   UNL     1      -4.155   6.827   6.921  0.00  0.00    +0.000 A 
ATOM     24  C   UNL     1      -3.546   6.349   5.776  0.00  0.00    +0.004 A 
ENDBRANCH  10  19
BRANCH   2  25
ATOM     25  N   UNL     1      -2.768   7.338  -2.208  0.00  0.00    -0.329 N 
ATOM     26  H   UNL     1      -3.816   7.667  -2.138  0.00  0.00    +0.145 HD
ATOM     27  H   UNL     1      -2.251   7.352  -3.179  0.00  0.00    +0.145 HD
ENDBRANCH   2  25
BRANCH   1  28
ATOM     28  C   UNL     1      -0.173   6.530  -2.437  0.00  0.00    +0.341 C 
ATOM     29  O   UNL     1       0.594   7.435  -2.712  0.00  0.00    -0.245 OA
BRANCH  28  30
ATOM     30  O   UNL     1      -0.407   5.547  -3.333  0.00  0.00    -0.462 OA
BRANCH  30  32
ATOM     31  C   UNL     1      -0.108   4.441  -5.461  0.00  0.00    +0.048 C 
ATOM     32  C   UNL     1       0.280   5.632  -4.583  0.00  0.00    +0.229 C 
ENDBRANCH  30  32
ENDBRANCH  28  30
ENDBRANCH   1  28
TORSDOF 6
