REMARK  Name = ZINC37285261
REMARK  6 active torsions:
REMARK  status: ('A' for Active; 'I' for Inactive)
REMARK    1  A    between atoms: C_1  and  C_2
REMARK    2  A    between atoms: C_5  and  O_9
REMARK    3  A    between atoms: O_9  and  C_10
REMARK    4  A    between atoms: C_10  and  C_11
REMARK    5  A    between atoms: N_13  and  C_14
REMARK    6  A    between atoms: C_16  and  N_21
REMARK                            x       y       z     vdW  Elec       q    Type
REMARK                         _______ _______ _______ _____ _____    ______ ____
ROOT
ATOM      1  C   UNL     1       0.073  -6.266  -1.111  0.00  0.00    +0.255 C 
ATOM      2  O   UNL     1       0.088  -6.737   0.007  0.00  0.00    -0.272 OA
ATOM      3  N   UNL     1       0.084  -7.081  -2.185  0.00  0.00    -0.281 N 
ATOM      4  H   UNL     1       0.005  -6.708  -3.077  0.00  0.00    +0.155 HD
ENDROOT
BRANCH   3   5
ATOM      5  C   UNL     1       0.208  -8.464  -2.013  0.00  0.00    +0.054 A 
ATOM      6  C   UNL     1      -0.369  -9.082  -0.913  0.00  0.00    +0.047 A 
ATOM      7  C   UNL     1      -0.244 -10.454  -0.746  0.00  0.00    +0.026 A 
ATOM      8  C   UNL     1       0.460 -11.205  -1.680  0.00  0.00    +0.024 A 
ATOM      9  C   UNL     1       1.034 -10.587  -2.774  0.00  0.00    +0.023 A 
ATOM     10  C   UNL     1       0.906  -9.221  -2.947  0.00  0.00    +0.062 A 
ATOM     11 CL   UNL     1       1.623  -8.450  -4.327  0.00  0.00    -0.082 Cl
BRANCH   7  12
ATOM     12  N   UNL     1      -0.824 -11.080   0.361  0.00  0.00    -0.358 N 
ATOM     13  H   UNL     1      -1.314 -10.555   1.012  0.00  0.00    +0.142 HD
ATOM     14  H   UNL     1      -0.736 -12.039   0.477  0.00  0.00    +0.142 HD
ENDBRANCH   7  12
ENDBRANCH   3   5
BRANCH   1  15
ATOM     15  C   UNL     1       0.041  -4.772  -1.298  0.00  0.00    +0.324 C 
BRANCH  15  16
ATOM     16  O   UNL     1       0.034  -4.131  -0.021  0.00  0.00    -0.482 OA
BRANCH  16  21
ATOM     17  C   UNL     1      -0.084   1.501   0.014  0.00  0.00    +0.044 C 
ATOM     18  C   UNL     1      -0.052  -0.006   0.005  0.00  0.00    -0.049 A 
ATOM     19  C   UNL     1      -0.044  -0.689  -1.197  0.00  0.00    +0.007 A 
ATOM     20  C   UNL     1      -0.015  -2.070  -1.209  0.00  0.00    +0.047 A 
ATOM     21  C   UNL     1       0.006  -2.772  -0.013  0.00  0.00    +0.135 A 
ATOM     22  C   UNL     1      -0.002  -2.085   1.193  0.00  0.00    +0.060 A 
ATOM     23  C   UNL     1      -0.026  -0.703   1.199  0.00  0.00    +0.022 A 
ATOM     24 BR   UNL     1       0.026  -3.038   2.826  0.00  0.00    -0.047 Br
ENDBRANCH  16  21
ENDBRANCH  15  16
ENDBRANCH   1  15
TORSDOF 5
