REMARK  Name = ZINC67375354
REMARK  12 active torsions:
REMARK  status: ('A' for Active; 'I' for Inactive)
REMARK    1  A    between atoms: C_1  and  C_2
REMARK    2  A    between atoms: C_2  and  C_3
REMARK    3  A    between atoms: C_2  and  C_4
REMARK    4  A    between atoms: C_4  and  C_6
REMARK    5  A    between atoms: C_4  and  N_26
REMARK    6  A    between atoms: C_6  and  N_7
REMARK    7  A    between atoms: C_8  and  C_10
REMARK    8  A    between atoms: N_12  and  C_13
REMARK    9  A    between atoms: C_16  and  O_20
REMARK   10  A    between atoms: O_20  and  C_21
REMARK   11  A    between atoms: N_26  and  C_27
REMARK   12  A    between atoms: N_26  and  C_28
REMARK                            x       y       z     vdW  Elec       q    Type
REMARK                         _______ _______ _______ _____ _____    ______ ____
ROOT
ATOM      1  C   UNL     1      -6.323  -0.736  -2.311  0.00  0.00    +0.303 C 
ATOM      2  O   UNL     1      -6.563  -1.252  -1.238  0.00  0.00    -0.265 OA
ATOM      3  N   UNL     1      -7.303  -0.594  -3.225  0.00  0.00    -0.278 N 
ATOM      4  H   UNL     1      -7.095  -0.258  -4.111  0.00  0.00    +0.155 HD
ENDROOT
BRANCH   3   5
ATOM      5  C   UNL     1      -8.620  -0.930  -2.896  0.00  0.00    +0.035 A 
ATOM      6  C   UNL     1      -9.458  -1.480  -3.858  0.00  0.00    +0.027 A 
ATOM      7  C   UNL     1     -10.758  -1.812  -3.534  0.00  0.00    +0.049 A 
ATOM      8  C   UNL     1     -11.228  -1.598  -2.246  0.00  0.00    +0.139 A 
ATOM      9  C   UNL     1     -10.392  -1.050  -1.283  0.00  0.00    +0.084 A 
ATOM     10  C   UNL     1      -9.089  -0.722  -1.605  0.00  0.00    +0.047 A 
ATOM     11 CL   UNL     1     -10.981  -0.782   0.328  0.00  0.00    -0.080 Cl
BRANCH   8  12
ATOM     12  O   UNL     1     -12.509  -1.925  -1.927  0.00  0.00    -0.487 OA
BRANCH  12  13
ATOM     13  C   UNL     1     -13.275  -2.598  -2.929  0.00  0.00    +0.174 C 
ATOM     14  C   UNL     1     -13.960  -1.569  -3.851  0.00  0.00    +0.044 C 
ATOM     15  C   UNL     1     -15.340  -2.198  -4.163  0.00  0.00    +0.004 C 
ATOM     16  C   UNL     1     -15.729  -2.855  -2.816  0.00  0.00    +0.004 C 
ATOM     17  C   UNL     1     -14.400  -3.416  -2.270  0.00  0.00    +0.044 C 
ENDBRANCH  12  13
ENDBRANCH   8  12
ENDBRANCH   3   5
BRANCH   1  19
ATOM     18  N   UNL     1      -3.961  -0.400  -1.703  0.00  0.00    -0.309 N 
ATOM     19  C   UNL     1      -4.941  -0.258  -2.617  0.00  0.00    +0.299 C 
ATOM     20  O   UNL     1      -4.701   0.258  -3.689  0.00  0.00    -0.265 OA
ATOM     21  H   UNL     1      -4.153  -0.813  -0.846  0.00  0.00    +0.149 HD
BRANCH  18  22
ATOM     22  C   UNL     1      -2.606   0.068  -2.003  0.00  0.00    +0.089 C 
BRANCH  22  23
ATOM     23  C   UNL     1      -1.660  -0.351  -0.877  0.00  0.00    -0.049 C 
BRANCH  23  24
ATOM     24  N   UNL     1      -1.517  -1.814  -0.875  0.00  0.00    +0.379 N 
ATOM     25  C   UNL     1      -2.814  -2.432  -0.567  0.00  0.00    -0.096 C 
ATOM     26  C   UNL     1      -1.063  -2.262  -2.199  0.00  0.00    -0.096 C 
ATOM     27  H   UNL     1      -0.841  -2.085  -0.178  0.00  0.00    -0.082 HD
ENDBRANCH  23  24
BRANCH  23  29
ATOM     28  C   UNL     1      -0.419   1.815  -0.982  0.00  0.00    +0.005 C 
ATOM     29  C   UNL     1      -0.290   0.294  -1.094  0.00  0.00    -0.029 C 
ATOM     30  C   UNL     1       0.688  -0.214  -0.033  0.00  0.00    +0.005 C 
ENDBRANCH  23  29
ENDBRANCH  22  23
ENDBRANCH  18  22
ENDBRANCH   1  19
TORSDOF 8
