REMARK  Name = ZINC48758893
REMARK  5 active torsions:
REMARK  status: ('A' for Active; 'I' for Inactive)
REMARK    1  A    between atoms: C_1  and  C_2
REMARK    2  A    between atoms: C_7  and  O_8
REMARK    3  A    between atoms: O_8  and  C_9
REMARK    4  A    between atoms: C_12  and  S_16
REMARK    5  A    between atoms: S_16  and  N_19
REMARK                            x       y       z     vdW  Elec       q    Type
REMARK                         _______ _______ _______ _____ _____    ______ ____
ROOT
ATOM      1  C   UNL     1       0.054  -0.847   3.469  0.00  0.00    +0.147 A 
ATOM      2  C   UNL     1       0.136  -2.223   3.306  0.00  0.00    +0.049 A 
ATOM      3  C   UNL     1       0.166  -3.048   4.413  0.00  0.00    +0.032 A 
ATOM      4  C   UNL     1       0.114  -2.505   5.684  0.00  0.00    +0.107 A 
ATOM      5  C   UNL     1       0.032  -1.135   5.850  0.00  0.00    +0.052 A 
ATOM      6  C   UNL     1       0.007  -0.304   4.745  0.00  0.00    +0.085 A 
ATOM      7 CL   UNL     1      -0.088   1.417   4.954  0.00  0.00    -0.080 Cl
ENDROOT
BRANCH   4   8
ATOM      8  S   UNL     1       0.151  -3.561   7.094  0.00  0.00    +0.056 S 
ATOM      9  O   UNL     1      -0.459  -2.841   8.157  0.00  0.00    -0.153 OA
ATOM     10  O   UNL     1      -0.321  -4.830   6.663  0.00  0.00    -0.153 OA
BRANCH   8  11
ATOM     11  N   UNL     1       1.741  -3.764   7.512  0.00  0.00    -0.204 NA
ATOM     12  H   UNL     1       2.437  -3.328   6.996  0.00  0.00    +0.144 HD
ATOM     13  H   UNL     1       1.976  -4.318   8.272  0.00  0.00    +0.144 HD
ENDBRANCH   8  11
ENDBRANCH   4   8
BRANCH   1  14
ATOM     14  O   UNL     1       0.025  -0.034   2.381  0.00  0.00    -0.454 OA
BRANCH  14  21
ATOM     15  C   UNL     1      -0.085   1.824   0.255  0.00  0.00    +0.047 C 
ATOM     16  C   UNL     1       1.210   1.403   0.900  0.00  0.00    -0.008 A 
ATOM     17  C   UNL     1       2.407   1.935   0.460  0.00  0.00    +0.007 A 
ATOM     18  C   UNL     1       3.595   1.549   1.051  0.00  0.00    +0.000 A 
ATOM     19  C   UNL     1       3.590   0.631   2.085  0.00  0.00    +0.004 A 
ATOM     20  C   UNL     1       2.396   0.097   2.530  0.00  0.00    +0.046 A 
ATOM     21  C   UNL     1       1.201   0.486   1.942  0.00  0.00    +0.131 A 
ENDBRANCH  14  21
ENDBRANCH   1  14
TORSDOF 4
