REMARK  Name = ZINC09872169
REMARK  2 active torsions:
REMARK  status: ('A' for Active; 'I' for Inactive)
REMARK    1  A    between atoms: C_6  and  N_7
REMARK    2  A    between atoms: C_8  and  C_10
REMARK                            x       y       z     vdW  Elec       q    Type
REMARK                         _______ _______ _______ _____ _____    ______ ____
ROOT
ATOM      1  C   UNL     1       1.288   6.241   0.284  0.00  0.00    +0.025 A 
ATOM      2  C   UNL     1       1.210   7.607   0.369  0.00  0.00    +0.031 A 
ATOM      3  C   UNL     1       0.646   8.230   1.506  0.00  0.00    +0.080 A 
ATOM      4  C   UNL     1       0.178   7.369   2.525  0.00  0.00    +0.043 A 
ATOM      5  C   UNL     1       0.252   6.003   2.434  0.00  0.00    +0.040 A 
ATOM      6  C   UNL     1       0.818   5.421   1.306  0.00  0.00    +0.035 A 
ATOM      7  S   UNL     1      -0.435   8.515   3.736  0.00  0.00    -0.052 S 
ATOM      8  C   UNL     1      -0.046  10.015   2.846  0.00  0.00    +0.162 A 
ATOM      9  N   UNL     1       0.497   9.553   1.743  0.00  0.00    -0.225 NA
ATOM     10  N   UNL     1      -0.261  11.326   3.221  0.00  0.00    -0.305 N 
ATOM     11  C   UNL     1      -1.681  11.561   3.523  0.00  0.00    +0.135 C 
ATOM     12  C   UNL     1      -1.865  13.007   3.991  0.00  0.00    +0.179 C 
ATOM     13  O   UNL     1      -1.370  13.895   2.986  0.00  0.00    -0.377 OA
ATOM     14  C   UNL     1       0.010  13.694   2.668  0.00  0.00    +0.179 C 
ATOM     15  C   UNL     1       0.213  12.255   2.186  0.00  0.00    +0.135 C 
ENDROOT
BRANCH   6  16
ATOM     16  N   UNL     1       0.908   4.028   1.196  0.00  0.00    -0.285 N 
ATOM     17  C   UNL     1       1.099   3.276   2.298  0.00  0.00    +0.224 C 
ATOM     18  O   UNL     1       1.288   3.809   3.371  0.00  0.00    -0.275 OA
ATOM     19  H   UNL     1       0.833   3.604   0.327  0.00  0.00    +0.155 HD
BRANCH  17  20
ATOM     20  C   UNL     1       1.077   1.772   2.197  0.00  0.00    +0.117 C 
ATOM     21  C   UNL     1       1.346   1.159   3.574  0.00  0.00    +0.055 C 
ATOM     22  C   UNL     1       1.619  -0.317   3.428  0.00  0.00    -0.004 A 
ATOM     23  C   UNL     1       1.521  -1.126   4.548  0.00  0.00    +0.027 A 
ATOM     24  C   UNL     1       1.773  -2.482   4.452  0.00  0.00    +0.041 A 
ATOM     25  C   UNL     1       2.123  -3.036   3.234  0.00  0.00    +0.023 A 
ATOM     26  C   UNL     1       2.219  -2.234   2.115  0.00  0.00    +0.047 A 
ATOM     27  C   UNL     1       1.966  -0.869   2.208  0.00  0.00    +0.124 A 
ATOM     28  O   UNL     1       2.067  -0.113   1.083  0.00  0.00    -0.491 OA
ATOM     29  C   UNL     1       2.178   1.302   1.238  0.00  0.00    +0.242 C 
ATOM     30 CL   UNL     1       1.648  -3.489   5.861  0.00  0.00    -0.084 Cl
ENDBRANCH  17  20
ENDBRANCH   6  16
TORSDOF 2
