REMARK  Name = ZINC62811449
REMARK  4 active torsions:
REMARK  status: ('A' for Active; 'I' for Inactive)
REMARK    1  A    between atoms: C_1  and  N_2
REMARK    2  A    between atoms: N_2  and  C_3
REMARK    3  A    between atoms: C_13  and  C_15
REMARK    4  A    between atoms: C_16  and  N_21
REMARK                            x       y       z     vdW  Elec       q    Type
REMARK                         _______ _______ _______ _____ _____    ______ ____
ROOT
ATOM      1  C   UNL     1       0.855   0.871  -0.538  0.00  0.00    +0.132 C 
ATOM      2  N   UNL     1      -0.114  -0.107  -0.038  0.00  0.00    -0.296 N 
ATOM      3  C   UNL     1      -1.212  -0.400  -0.763  0.00  0.00    +0.269 C 
ATOM      4  O   UNL     1      -2.048  -1.162  -0.319  0.00  0.00    -0.268 OA
ENDROOT
BRANCH   2   5
ATOM      5  C   UNL     1       0.110  -0.766   1.251  0.00  0.00    +0.082 C 
ATOM      6  C   UNL     1       1.397  -0.231   1.881  0.00  0.00    +0.010 C 
ATOM      7  C   UNL     1       1.270   1.279   2.096  0.00  0.00    +0.009 C 
ATOM      8  C   UNL     1       0.090   1.564   3.027  0.00  0.00    -0.010 C 
ATOM      9  C   UNL     1       0.324   0.875   4.373  0.00  0.00    +0.007 C 
ATOM     10  C   UNL     1       0.451  -0.634   4.158  0.00  0.00    -0.010 C 
ATOM     11  C   UNL     1       1.631  -0.919   3.227  0.00  0.00    +0.009 C 
ATOM     12  C   UNL     1      -0.837  -1.169   3.528  0.00  0.00    +0.009 C 
ATOM     13  C   UNL     1      -1.071  -0.481   2.182  0.00  0.00    +0.010 C 
ATOM     14  C   UNL     1      -1.197   1.029   2.397  0.00  0.00    +0.009 C 
ENDBRANCH   2   5
BRANCH   3  15
ATOM     15  C   UNL     1      -1.398   0.205  -2.095  0.00  0.00    +0.167 A 
ATOM     16  C   UNL     1      -2.435  -0.091  -3.017  0.00  0.00    +0.075 A 
ATOM     17  C   UNL     1      -2.197   0.704  -4.095  0.00  0.00    +0.128 A 
ATOM     18  N   UNL     1      -1.081   1.427  -3.818  0.00  0.00    -0.282 N 
ATOM     19  H   UNL     1      -0.680   2.079  -4.414  0.00  0.00    +0.188 HD
ATOM     20  N   UNL     1      -0.636   1.127  -2.651  0.00  0.00    -0.167 NA
BRANCH  16  21
ATOM     21  N   UNL     1      -3.482  -1.009  -2.853  0.00  0.00    -0.355 N 
ATOM     22  H   UNL     1      -3.551  -1.525  -2.034  0.00  0.00    +0.142 HD
ATOM     23  H   UNL     1      -4.138  -1.128  -3.558  0.00  0.00    +0.142 HD
ENDBRANCH  16  21
ENDBRANCH   3  15
TORSDOF 3
