REMARK  Name = ZINC61924611
REMARK  6 active torsions:
REMARK  status: ('A' for Active; 'I' for Inactive)
REMARK    1  A    between atoms: C_1  and  C_2
REMARK    2  A    between atoms: C_2  and  N_3
REMARK    3  A    between atoms: C_4  and  C_6
REMARK    4  A    between atoms: C_6  and  N_7
REMARK    5  A    between atoms: C_8  and  C_10
REMARK    6  A    between atoms: N_12  and  C_13
REMARK                            x       y       z     vdW  Elec       q    Type
REMARK                         _______ _______ _______ _____ _____    ______ ____
ROOT
ATOM      1  C   UNL     1      -4.132  -6.009   0.015  0.00  0.00    +0.303 C 
ATOM      2  O   UNL     1      -3.073  -6.602  -0.002  0.00  0.00    -0.265 OA
ATOM      3  N   UNL     1      -5.290  -6.699   0.017  0.00  0.00    -0.276 N 
ATOM      4  H   UNL     1      -6.135  -6.228   0.096  0.00  0.00    +0.155 HD
ENDROOT
BRANCH   3   5
ATOM      5  C   UNL     1      -5.274  -8.092  -0.097  0.00  0.00    +0.052 A 
ATOM      6  C   UNL     1      -4.246  -8.826   0.481  0.00  0.00    +0.027 A 
ATOM      7  C   UNL     1      -4.233 -10.202   0.368  0.00  0.00    +0.040 A 
ATOM      8  C   UNL     1      -5.243 -10.852  -0.321  0.00  0.00    +0.125 A 
ATOM      9  C   UNL     1      -6.270 -10.124  -0.898  0.00  0.00    +0.060 A 
ATOM     10  C   UNL     1      -6.291  -8.746  -0.783  0.00  0.00    +0.065 A 
ATOM     11 CL   UNL     1      -7.582  -7.834  -1.500  0.00  0.00    -0.082 Cl
ATOM     12  F   UNL     1      -5.227 -12.198  -0.431  0.00  0.00    -0.205 F 
ENDBRANCH   3   5
BRANCH   1  14
ATOM     13  N   UNL     1      -2.993  -3.827   0.033  0.00  0.00    -0.299 N 
ATOM     14  C   UNL     1      -4.152  -4.516   0.035  0.00  0.00    +0.300 C 
ATOM     15  O   UNL     1      -5.210  -3.923   0.052  0.00  0.00    -0.265 OA
ATOM     16  H   UNL     1      -2.147  -4.301   0.019  0.00  0.00    +0.150 HD
BRANCH  13  17
ATOM     17  C   UNL     1      -3.013  -2.362   0.052  0.00  0.00    +0.200 C 
BRANCH  17  19
ATOM     18  N   UNL     1      -1.370  -0.513   0.062  0.00  0.00    -0.314 N 
ATOM     19  C   UNL     1      -1.599  -1.841   0.047  0.00  0.00    +0.230 C 
ATOM     20  O   UNL     1      -0.666  -2.617   0.028  0.00  0.00    -0.274 OA
ATOM     21  H   UNL     1      -2.115   0.107   0.077  0.00  0.00    +0.149 HD
BRANCH  18  23
ATOM     22  C   UNL     1      -0.015   1.523   0.076  0.00  0.00    +0.024 C 
ATOM     23  C   UNL     1       0.005  -0.006   0.056  0.00  0.00    +0.101 C 
ENDBRANCH  18  23
ENDBRANCH  17  19
ENDBRANCH  13  17
ENDBRANCH   1  14
TORSDOF 5
