REMARK  Name = ZINC42278645
REMARK  5 active torsions:
REMARK  status: ('A' for Active; 'I' for Inactive)
REMARK    1  A    between atoms: C_1  and  C_2
REMARK    2  A    between atoms: N_8  and  S_9
REMARK    3  A    between atoms: S_9  and  C_12
REMARK    4  A    between atoms: C_15  and  S_19
REMARK    5  A    between atoms: S_19  and  N_22
REMARK                            x       y       z     vdW  Elec       q    Type
REMARK                         _______ _______ _______ _____ _____    ______ ____
ROOT
ATOM      1  C   UNL     1      -0.267   0.523   3.609  0.00  0.00    +0.141 A 
ATOM      2  C   UNL     1       0.062   0.180   4.907  0.00  0.00    +0.033 A 
ATOM      3  C   UNL     1      -0.924   0.104   5.872  0.00  0.00    +0.030 A 
ATOM      4  C   UNL     1      -2.240   0.371   5.541  0.00  0.00    +0.108 A 
ATOM      5  C   UNL     1      -2.570   0.715   4.245  0.00  0.00    +0.068 A 
ATOM      6  C   UNL     1      -1.583   0.797   3.277  0.00  0.00    +0.151 A 
ATOM      7  F   UNL     1      -1.904   1.138   2.010  0.00  0.00    -0.203 F 
ENDROOT
BRANCH   1   8
ATOM      8  S   UNL     1       0.991   0.620   2.378  0.00  0.00    +0.064 S 
ATOM      9  O   UNL     1       2.205   0.235   3.007  0.00  0.00    -0.153 OA
ATOM     10  O   UNL     1       0.832   1.877   1.733  0.00  0.00    -0.153 OA
BRANCH   8  17
ATOM     11  C   UNL     1       1.458  -2.114   2.943  0.00  0.00    +0.026 C 
ATOM     12  C   UNL     1       0.976  -1.950   1.500  0.00  0.00    +0.077 C 
ATOM     13  C   UNL     1      -0.285  -2.792   1.281  0.00  0.00    +0.020 C 
ATOM     14  C   UNL     1      -0.841  -2.517  -0.118  0.00  0.00    +0.003 C 
ATOM     15  C   UNL     1      -1.220  -1.039  -0.237  0.00  0.00    +0.017 C 
ATOM     16  C   UNL     1       0.031  -0.178  -0.035  0.00  0.00    +0.110 C 
ATOM     17  N   UNL     1       0.656  -0.539   1.244  0.00  0.00    -0.174 NA
ENDBRANCH   8  17
ENDBRANCH   1   8
BRANCH   4  18
ATOM     18  S   UNL     1      -3.496   0.272   6.774  0.00  0.00    +0.056 S 
ATOM     19  O   UNL     1      -4.718   0.036   6.089  0.00  0.00    -0.153 OA
ATOM     20  O   UNL     1      -3.007  -0.600   7.783  0.00  0.00    -0.153 OA
BRANCH  18  21
ATOM     21  N   UNL     1      -3.622   1.772   7.465  0.00  0.00    -0.204 NA
ATOM     22  H   UNL     1      -3.052   2.496   7.161  0.00  0.00    +0.144 HD
ATOM     23  H   UNL     1      -4.266   1.926   8.174  0.00  0.00    +0.144 HD
ENDBRANCH  18  21
ENDBRANCH   4  18
TORSDOF 4
