REMARK  Name = ZINC03487597
REMARK  7 active torsions:
REMARK  status: ('A' for Active; 'I' for Inactive)
REMARK    1  A    between atoms: C_1  and  C_2
REMARK    2  A    between atoms: C_7  and  N_8
REMARK    3  A    between atoms: C_9  and  C_23
REMARK    4  A    between atoms: C_12  and  S_13
REMARK    5  A    between atoms: S_13  and  C_14
REMARK    6  A    between atoms: C_14  and  C_16
REMARK    7  A    between atoms: C_14  and  C_17
REMARK                            x       y       z     vdW  Elec       q    Type
REMARK                         _______ _______ _______ _____ _____    ______ ____
ROOT
ATOM      1  N   UNL     1      -2.429   1.039   0.019  0.00  0.00    -0.270 N 
ATOM      2  C   UNL     1      -3.141   0.608   1.118  0.00  0.00    +0.169 A 
ATOM      3  N   UNL     1      -4.203  -0.018   0.667  0.00  0.00    -0.128 NA
ATOM      4  N   UNL     1      -4.207  -0.009  -0.618  0.00  0.00    -0.122 NA
ATOM      5  C   UNL     1      -3.149   0.628  -1.069  0.00  0.00    +0.197 A 
ENDROOT
BRANCH   1  12
ATOM      6  C   UNL     1      -2.551   3.882   0.047  0.00  0.00    +0.046 C 
ATOM      7  C   UNL     1      -1.239   3.142   0.030  0.00  0.00    -0.026 A 
ATOM      8  C   UNL     1      -0.049   3.845   0.022  0.00  0.00    +0.005 A 
ATOM      9  C   UNL     1       1.155   3.166   0.007  0.00  0.00    +0.000 A 
ATOM     10  C   UNL     1       1.173   1.783   0.000  0.00  0.00    +0.002 A 
ATOM     11  C   UNL     1      -0.013   1.076   0.008  0.00  0.00    +0.026 A 
ATOM     12  C   UNL     1      -1.224   1.754   0.017  0.00  0.00    +0.053 A 
ENDBRANCH   1  12
BRANCH   2  13
ATOM     13  C   UNL     1      -2.776   0.811   2.536  0.00  0.00    +0.020 A 
ATOM     14  C   UNL     1      -1.482   1.205   2.877  0.00  0.00    +0.013 A 
ATOM     15  C   UNL     1      -1.149   1.398   4.202  0.00  0.00    +0.021 A 
ATOM     16  C   UNL     1      -2.094   1.191   5.193  0.00  0.00    +0.041 A 
ATOM     17  C   UNL     1      -3.378   0.795   4.861  0.00  0.00    +0.021 A 
ATOM     18  C   UNL     1      -3.724   0.604   3.539  0.00  0.00    +0.013 A 
ATOM     19 CL   UNL     1      -1.665   1.428   6.858  0.00  0.00    -0.084 Cl
ENDBRANCH   2  13
BRANCH   5  20
ATOM     20  S   UNL     1      -2.734   0.899  -2.760  0.00  0.00    -0.073 S 
BRANCH  20  21
ATOM     21  C   UNL     1      -4.135   0.080  -3.563  0.00  0.00    +0.137 C 
ATOM     22  C   UNL     1      -5.425   0.830  -3.226  0.00  0.00    +0.029 C 
BRANCH  21  23
ATOM     23  C   UNL     1      -3.928   0.080  -5.056  0.00  0.00    +0.233 C 
ATOM     24  O   UNL     1      -3.159   0.868  -5.561  0.00  0.00    -0.274 OA
ATOM     25  N   UNL     1      -4.600  -0.797  -5.829  0.00  0.00    -0.239 N 
ATOM     26  C   UNL     1      -4.415  -0.797  -7.164  0.00  0.00    +0.303 C 
ATOM     27  O   UNL     1      -3.644  -0.007  -7.670  0.00  0.00    -0.253 OA
ATOM     28  N   UNL     1      -5.087  -1.673  -7.937  0.00  0.00    -0.313 N 
ATOM     29  H   UNL     1      -5.216  -1.428  -5.424  0.00  0.00    +0.159 HD
ATOM     30  H   UNL     1      -5.702  -2.304  -7.532  0.00  0.00    +0.146 HD
ATOM     31  H   UNL     1      -4.954  -1.674  -8.898  0.00  0.00    +0.146 HD
ENDBRANCH  21  23
ENDBRANCH  20  21
ENDBRANCH   5  20
TORSDOF 5
