REMARK  Name = ZINC00460989
REMARK  1 active torsions:
REMARK  status: ('A' for Active; 'I' for Inactive)
REMARK    1  A    between atoms: C_6  and  C_7
REMARK                            x       y       z     vdW  Elec       q    Type
REMARK                         _______ _______ _______ _____ _____    ______ ____
ROOT
ATOM      1  C   UNL     1      -2.772  -0.235   0.014  0.00  0.00    +0.266 C 
ATOM      2  O   UNL     1      -1.876  -1.050   0.103  0.00  0.00    -0.267 OA
ATOM      3  N   UNL     1      -2.483   1.065  -0.190  0.00  0.00    -0.236 N 
ATOM      4  C   UNL     1      -2.049   1.976   0.741  0.00  0.00    +0.233 A 
ATOM      5  N   UNL     1      -1.890   3.112   0.125  0.00  0.00    -0.136 NA
ATOM      6  N   UNL     1      -2.183   2.987  -1.120  0.00  0.00    -0.113 NA
ATOM      7  C   UNL     1      -2.559   1.757  -1.372  0.00  0.00    +0.221 A 
ATOM      8  N   UNL     1      -2.953   1.251  -2.599  0.00  0.00    -0.327 N 
ATOM      9  H   UNL     1      -3.209   0.319  -2.679  0.00  0.00    +0.145 HD
ATOM     10  H   UNL     1      -2.976   1.829  -3.377  0.00  0.00    +0.145 HD
ENDROOT
BRANCH   1  16
ATOM     11  C   UNL     1      -5.206   0.278   0.146  0.00  0.00    +0.014 A 
ATOM     12  C   UNL     1      -6.518  -0.134   0.248  0.00  0.00    +0.016 A 
ATOM     13  C   UNL     1      -6.817  -1.482   0.346  0.00  0.00    +0.018 A 
ATOM     14  C   UNL     1      -5.804  -2.426   0.337  0.00  0.00    +0.016 A 
ATOM     15  C   UNL     1      -4.488  -2.027   0.229  0.00  0.00    +0.014 A 
ATOM     16  C   UNL     1      -4.179  -0.669   0.130  0.00  0.00    +0.040 A 
ATOM     17 BR   UNL     1      -8.619  -2.037   0.493  0.00  0.00    -0.050 Br
ENDBRANCH   1  16
TORSDOF 1
