REMARK  Name = ZINC51117030
REMARK  6 active torsions:
REMARK  status: ('A' for Active; 'I' for Inactive)
REMARK    1  A    between atoms: C_1  and  C_2
REMARK    2  A    between atoms: C_7  and  C_9
REMARK    3  A    between atoms: C_7  and  C_10
REMARK    4  A    between atoms: C_11  and  C_13
REMARK    5  A    between atoms: C_18  and  N_19
REMARK    6  A    between atoms: N_19  and  N_20
REMARK                            x       y       z     vdW  Elec       q    Type
REMARK                         _______ _______ _______ _____ _____    ______ ____
ROOT
ATOM      1  C   UNL     1       0.777   1.771  -0.397  0.00  0.00    +0.039 C 
ATOM      2  C   UNL     1       0.576   0.262  -0.247  0.00  0.00    +0.133 C 
ATOM      3  C   UNL     1       1.109  -0.452  -1.495  0.00  0.00    +0.139 C 
ATOM      4  N   UNL     1       1.077  -1.903  -1.249  0.00  0.00    -0.292 N 
ATOM      5  C   UNL     1       1.685  -2.407  -0.007  0.00  0.00    +0.142 C 
ATOM      6  C   UNL     1       1.125  -1.598   1.168  0.00  0.00    +0.080 C 
ATOM      7  O   UNL     1       1.289  -0.203   0.902  0.00  0.00    -0.368 OA
ATOM      8  C   UNL     1      -0.362  -1.912   1.342  0.00  0.00    +0.043 C 
ATOM      9  C   UNL     1       1.879  -1.966   2.447  0.00  0.00    +0.043 C 
ATOM     10  C   UNL     1       0.509  -2.745  -2.135  0.00  0.00    +0.249 C 
ATOM     11  O   UNL     1       0.559  -3.946  -1.950  0.00  0.00    -0.270 OA
ENDROOT
BRANCH  10  12
ATOM     12  C   UNL     1      -0.172  -2.210  -3.328  0.00  0.00    +0.059 A 
ATOM     13  C   UNL     1       0.492  -1.319  -4.176  0.00  0.00    +0.015 A 
ATOM     14  C   UNL     1      -0.150  -0.823  -5.289  0.00  0.00    +0.001 A 
ATOM     15  C   UNL     1      -1.453  -1.202  -5.574  0.00  0.00    +0.002 A 
ATOM     16  C   UNL     1      -2.122  -2.080  -4.746  0.00  0.00    +0.025 A 
ATOM     17  C   UNL     1      -1.488  -2.597  -3.622  0.00  0.00    +0.053 A 
BRANCH  17  18
ATOM     18  N   UNL     1      -2.157  -3.485  -2.791  0.00  0.00    -0.282 N 
ATOM     19  H   UNL     1      -1.737  -3.795  -1.973  0.00  0.00    +0.166 HD
BRANCH  18  20
ATOM     20  N   UNL     1      -3.407  -3.924  -3.124  0.00  0.00    -0.256 NA
ATOM     21  H   UNL     1      -3.409  -4.350  -4.040  0.00  0.00    +0.140 HD
ATOM     22  H   UNL     1      -3.764  -4.562  -2.429  0.00  0.00    +0.140 HD
ENDBRANCH  18  20
ENDBRANCH  17  18
ENDBRANCH  10  12
TORSDOF 3
