REMARK  Name = ZINC22729973
REMARK  6 active torsions:
REMARK  status: ('A' for Active; 'I' for Inactive)
REMARK    1  A    between atoms: C_4  and  N_7
REMARK    2  A    between atoms: N_7  and  C_8
REMARK    3  A    between atoms: C_9  and  C_10
REMARK    4  A    between atoms: C_9  and  N_21
REMARK    5  A    between atoms: C_10  and  C_12
REMARK    6  A    between atoms: C_15  and  N_18
REMARK                            x       y       z     vdW  Elec       q    Type
REMARK                         _______ _______ _______ _____ _____    ______ ____
ROOT
ATOM      1  C   UNL     1       4.824  -0.281  -0.059  0.00  0.00    +0.104 C 
ATOM      2  C   UNL     1       6.088  -0.757  -0.401  0.00  0.00    +0.123 C 
ATOM      3  S   UNL     1       4.660   1.272   0.757  0.00  0.00    -0.033 SA
ENDROOT
BRANCH   2   4
ATOM      4  N   UNL     1       6.228  -2.021  -0.928  0.00  0.00    -0.314 N 
ATOM      5  C   UNL     1       6.660  -2.159  -2.175  0.00  0.00    +0.091 A 
ATOM      6  C   UNL     1       6.811  -3.410  -2.736  0.00  0.00    +0.022 A 
ATOM      7  C   UNL     1       6.508  -4.534  -1.983  0.00  0.00    +0.054 A 
ATOM      8  C   UNL     1       6.057  -4.357  -0.677  0.00  0.00    +0.195 A 
ATOM      9  C   UNL     1       5.933  -3.072  -0.175  0.00  0.00    +0.142 A 
ATOM     10  O   UNL     1       5.748  -5.431   0.096  0.00  0.00    -0.286 OA
ENDBRANCH   2   4
BRANCH   1  11
ATOM     11  N   UNL     1       3.710  -1.019  -0.358  0.00  0.00    -0.307 N 
ATOM     12  H   UNL     1       3.803  -1.939  -0.954  0.00  0.00    +0.153 HD
BRANCH  11  16
ATOM     13  C   UNL     1      -0.031   0.218   0.990  0.00  0.00    +0.000 A 
ATOM     14  C   UNL     1       1.079   0.368   1.802  0.00  0.00    +0.002 A 
ATOM     15  C   UNL     1       2.321  -0.042   1.358  0.00  0.00    +0.023 A 
ATOM     16  C   UNL     1       2.454  -0.604   0.094  0.00  0.00    +0.032 A 
ATOM     17  C   UNL     1       1.338  -0.753  -0.718  0.00  0.00    +0.023 A 
ATOM     18  C   UNL     1       0.098  -0.342  -0.268  0.00  0.00    +0.002 A 
ENDBRANCH  11  16
ENDBRANCH   1  11
BRANCH   2  19
ATOM     19  C   UNL     1       7.224   0.055  -0.208  0.00  0.00    +0.212 C 
ATOM     20  O   UNL     1       7.397   1.038  -0.908  0.00  0.00    -0.285 OA
BRANCH  19  21
ATOM     21  C   UNL     1       8.206  -0.286   0.846  0.00  0.00    +0.024 A 
ATOM     22  C   UNL     1       7.977  -1.370   1.693  0.00  0.00    +0.014 A 
ATOM     23  C   UNL     1       8.899  -1.686   2.670  0.00  0.00    +0.033 A 
ATOM     24  C   UNL     1      10.043  -0.922   2.817  0.00  0.00    +0.126 A 
ATOM     25  C   UNL     1      10.274   0.158   1.984  0.00  0.00    +0.033 A 
ATOM     26  C   UNL     1       9.362   0.480   1.000  0.00  0.00    +0.014 A 
BRANCH  24  27
ATOM     27  N   UNL     1      11.025  -1.262   3.871  0.00  0.00    +0.056 N 
ATOM     28  O   UNL     1      12.034  -0.592   4.003  0.00  0.00    -0.126 OA
ATOM     29  O   UNL     1      10.825  -2.212   4.607  0.00  0.00    -0.126 OA
ENDBRANCH  24  27
ENDBRANCH  19  21
ENDBRANCH   2  19
TORSDOF 6
