REMARK  Name = ZINC09885225
REMARK  9 active torsions:
REMARK  status: ('A' for Active; 'I' for Inactive)
REMARK    1  A    between atoms: C_1  and  C_2
REMARK    2  A    between atoms: C_5  and  S_18
REMARK    3  A    between atoms: C_7  and  C_8
REMARK    4  A    between atoms: N_10  and  CA_11
REMARK    5  A    between atoms: CA_11  and  CB_13
REMARK    6  A    between atoms: CA_11  and  C_16
REMARK    7  A    between atoms: CB_13  and  CG1_14
REMARK    8  A    between atoms: CB_13  and  CG2_15
REMARK    9  A    between atoms: S_18  and  N_21
REMARK                            x       y       z     vdW  Elec       q    Type
REMARK                         _______ _______ _______ _____ _____    ______ ____
ROOT
ATOM      1  C   UNK A   0      -3.134   3.237   4.854  0.00  0.00    +0.044 C 
ATOM      2  C   UNK A   0      -2.355   2.743   3.662  0.00  0.00    -0.038 A 
ATOM      3  C   UNK A   0      -1.591   3.623   2.923  0.00  0.00    +0.006 A 
ATOM      4  C   UNK A   0      -0.871   3.170   1.832  0.00  0.00    +0.029 A 
ATOM      5  C   UNK A   0      -0.921   1.836   1.467  0.00  0.00    +0.106 A 
ATOM      6  C   UNK A   0      -1.682   0.947   2.197  0.00  0.00    +0.041 A 
ATOM      7  C   UNK A   0      -2.406   1.396   3.303  0.00  0.00    +0.041 A 
ENDROOT
BRANCH   7   8
ATOM      8  C   UNK A   0      -3.224   0.448   4.090  0.00  0.00    +0.245 C 
ATOM      9  O   UNK A   0      -3.762   0.816   5.116  0.00  0.00    -0.270 OA
ATOM     10  N   VAL A   1      -3.373  -0.824   3.669  0.00  0.00    -0.298 N 
ATOM     11  H   VAL A   1      -2.944  -1.117   2.850  0.00  0.00    +0.150 HD
BRANCH  10  12
ATOM     12  CA  VAL A   1      -4.184  -1.763   4.449  0.00  0.00    +0.189 C 
BRANCH  12  13
ATOM     13  CB  VAL A   1      -4.710  -2.867   3.530  0.00  0.00    +0.014 C 
ATOM     14  CG1 VAL A   1      -3.535  -3.691   2.999  0.00  0.00    +0.009 C 
ATOM     15  CG2 VAL A   1      -5.656  -3.777   4.316  0.00  0.00    +0.009 C 
ENDBRANCH  12  13
BRANCH  12  16
ATOM     16  C   VAL A   1      -3.338  -2.374   5.536  0.00  0.00    +0.376 C 
ATOM     17  O   VAL A   1      -2.177  -2.058   5.648  0.00  0.00    -0.244 OA
ATOM     18  OXT VAL A   1      -3.874  -3.269   6.380  0.00  0.00    -0.244 OA
ENDBRANCH  12  16
ENDBRANCH  10  12
ENDBRANCH   7   8
BRANCH   5  19
ATOM     19  S   UNK A   0      -0.006   1.271   0.071  0.00  0.00    +0.061 S 
ATOM     20  O   UNK A   0       0.217  -0.119   0.268  0.00  0.00    -0.153 OA
ATOM     21  O   UNK A   0       1.057   2.194  -0.118  0.00  0.00    -0.153 OA
BRANCH  19  22
ATOM     22  N   UNK A   0      -0.994   1.410  -1.250  0.00  0.00    -0.177 NA
ATOM     23  C   UNK A   0      -1.904   0.370  -1.753  0.00  0.00    +0.109 C 
ATOM     24  C   UNK A   0      -2.597   0.936  -3.010  0.00  0.00    +0.018 C 
ATOM     25  C   UNK A   0      -1.616   2.045  -3.476  0.00  0.00    +0.018 C 
ATOM     26  C   UNK A   0      -1.103   2.594  -2.122  0.00  0.00    +0.109 C 
ENDBRANCH  19  22
ENDBRANCH   5  19
TORSDOF 6
