REMARK  Name = ZINC39625976
REMARK  5 active torsions:
REMARK  status: ('A' for Active; 'I' for Inactive)
REMARK    1  A    between atoms: C_6  and  C_7
REMARK    2  A    between atoms: C_11  and  C_20
REMARK    3  A    between atoms: N_22  and  C_23
REMARK    4  A    between atoms: C_23  and  C_24
REMARK    5  A    between atoms: C_24  and  N_25
REMARK                            x       y       z     vdW  Elec       q    Type
REMARK                         _______ _______ _______ _____ _____    ______ ____
ROOT
ATOM      1  C   UNL     1      -1.568  -0.548  -0.108  0.00  0.00    +0.219 C 
ATOM      2  O   UNL     1      -2.521   0.201  -0.092  0.00  0.00    -0.275 OA
ATOM      3  N   UNL     1      -1.760  -1.882  -0.089  0.00  0.00    -0.300 N 
ATOM      4  C   UNL     1      -0.730  -2.948  -0.098  0.00  0.00    +0.121 C 
ATOM      5  C   UNL     1      -1.272  -4.022   0.872  0.00  0.00    +0.100 C 
ATOM      6  C   UNL     1      -2.794  -3.800   0.893  0.00  0.00    -0.004 C 
ATOM      7  C   UNL     1      -3.048  -2.615  -0.050  0.00  0.00    +0.115 C 
ATOM      8  C   UNL     1      -3.257  -3.451   2.304  0.00  0.00    -0.010 C 
ATOM      9  C   UNL     1      -4.780  -3.291   2.311  0.00  0.00    -0.082 C 
ATOM     10  N   UNL     1      -5.407  -4.540   1.862  0.00  0.00    +0.379 N 
ATOM     11  C   UNL     1      -5.030  -4.819   0.472  0.00  0.00    -0.082 C 
ATOM     12  C   UNL     1      -3.517  -5.044   0.387  0.00  0.00    -0.010 C 
ATOM     13  H   UNL     1      -5.101  -5.299   2.452  0.00  0.00    -0.086 HD
ATOM     14  H   UNL     1      -6.411  -4.452   1.926  0.00  0.00    -0.086 HD
ENDROOT
BRANCH   1  20
ATOM     15  C   UNL     1      -0.230   1.542  -0.162  0.00  0.00    +0.041 C 
ATOM     16  C   UNL     1       1.190   2.100  -0.282  0.00  0.00    +0.160 C 
ATOM     17  O   UNL     1       1.804   1.587  -1.466  0.00  0.00    -0.380 OA
ATOM     18  C   UNL     1       1.931   0.164  -1.488  0.00  0.00    +0.160 C 
ATOM     19  C   UNL     1       0.540  -0.472  -1.417  0.00  0.00    +0.041 C 
ATOM     20  C   UNL     1      -0.169   0.011  -0.148  0.00  0.00    +0.079 C 
ENDBRANCH   1  20
BRANCH   5  21
ATOM     21  C   UNL     1      -0.949  -5.402   0.360  0.00  0.00    +0.218 C 
ATOM     22  O   UNL     1      -0.870  -5.604  -0.833  0.00  0.00    -0.275 OA
ATOM     23  N   UNL     1      -0.746  -6.413   1.229  0.00  0.00    -0.314 N 
ATOM     24  H   UNL     1      -0.809  -6.252   2.183  0.00  0.00    +0.149 HD
BRANCH  23  25
ATOM     25  C   UNL     1      -0.432  -7.754   0.731  0.00  0.00    +0.119 C 
BRANCH  25  26
ATOM     26  C   UNL     1      -0.251  -8.708   1.914  0.00  0.00    +0.103 C 
BRANCH  26  27
ATOM     27  N   UNL     1       0.065 -10.053   1.416  0.00  0.00    -0.297 NA
ATOM     28  C   UNL     1      -1.076 -10.625   0.685  0.00  0.00    +0.112 C 
ATOM     29  C   UNL     1      -0.685 -11.998   0.133  0.00  0.00    +0.175 C 
ATOM     30  O   UNL     1      -0.257 -12.835   1.211  0.00  0.00    -0.377 OA
ATOM     31  C   UNL     1       0.853 -12.309   1.944  0.00  0.00    +0.175 C 
ATOM     32  C   UNL     1       0.477 -10.939   2.514  0.00  0.00    +0.112 C 
ENDBRANCH  26  27
ENDBRANCH  25  26
ENDBRANCH  23  25
ENDBRANCH   5  21
TORSDOF 5
