REMARK  Name = ZINC54691893
REMARK  6 active torsions:
REMARK  status: ('A' for Active; 'I' for Inactive)
REMARK    1  A    between atoms: C_1  and  C_2
REMARK    2  A    between atoms: C_7  and  S_10
REMARK    3  A    between atoms: S_10  and  C_13
REMARK    4  A    between atoms: C_13  and  C_14
REMARK    5  A    between atoms: N_16  and  C_17
REMARK    6  A    between atoms: C_22  and  N_23
REMARK                            x       y       z     vdW  Elec       q    Type
REMARK                         _______ _______ _______ _____ _____    ______ ____
ROOT
ATOM      1  C   UNL     1       0.430  -0.500   6.643  0.00  0.00    +0.238 C 
ATOM      2  O   UNL     1       1.478  -1.109   6.662  0.00  0.00    -0.274 OA
ATOM      3  N   UNL     1      -0.195  -0.196   7.798  0.00  0.00    -0.283 N 
ATOM      4  H   UNL     1      -0.990   0.359   7.788  0.00  0.00    +0.155 HD
ENDROOT
BRANCH   3   5
ATOM      5  C   UNL     1       0.304  -0.683   9.014  0.00  0.00    +0.054 A 
ATOM      6  C   UNL     1       1.072  -1.838   9.038  0.00  0.00    +0.025 A 
ATOM      7  C   UNL     1       1.563  -2.317  10.238  0.00  0.00    +0.002 A 
ATOM      8  C   UNL     1       1.292  -1.647  11.417  0.00  0.00    +0.002 A 
ATOM      9  C   UNL     1       0.528  -0.495  11.403  0.00  0.00    +0.024 A 
ATOM     10  C   UNL     1       0.036  -0.005  10.202  0.00  0.00    +0.046 A 
BRANCH  10  11
ATOM     11  N   UNL     1      -0.733   1.164  10.184  0.00  0.00    -0.357 N 
ATOM     12  H   UNL     1      -1.080   1.504   9.345  0.00  0.00    +0.142 HD
ATOM     13  H   UNL     1      -0.919   1.635  11.012  0.00  0.00    +0.142 HD
ENDBRANCH  10  11
ENDBRANCH   3   5
BRANCH   1  14
ATOM     14  C   UNL     1      -0.175  -0.082   5.327  0.00  0.00    +0.262 C 
BRANCH  14  15
ATOM     15  S   UNL     1       0.894  -0.633   3.969  0.00  0.00    -0.020 S 
ATOM     16  O   UNL     1       0.901  -2.054   3.950  0.00  0.00    -0.174 OA
ATOM     17  O   UNL     1       2.129   0.063   4.058  0.00  0.00    -0.174 OA
BRANCH  15  23
ATOM     18  C   UNL     1      -0.052   1.485   0.001  0.00  0.00    +0.007 C 
ATOM     19  C   UNL     1      -0.023  -0.045   0.001  0.00  0.00    -0.012 C 
ATOM     20  C   UNL     1      -1.456  -0.582   0.019  0.00  0.00    +0.003 C 
ATOM     21  C   UNL     1      -2.170  -0.085   1.277  0.00  0.00    +0.002 C 
ATOM     22  C   UNL     1      -1.424  -0.582   2.517  0.00  0.00    +0.026 C 
ATOM     23  C   UNL     1       0.009  -0.045   2.499  0.00  0.00    +0.131 C 
ATOM     24  C   UNL     1       0.723  -0.541   1.240  0.00  0.00    +0.029 C 
ENDBRANCH  15  23
ENDBRANCH  14  15
ENDBRANCH   1  14
TORSDOF 5
