REMARK  Name = ZINC43666330
REMARK  5 active torsions:
REMARK  status: ('A' for Active; 'I' for Inactive)
REMARK    1  A    between atoms: C_1  and  C_2
REMARK    2  A    between atoms: C_5  and  N_12
REMARK    3  A    between atoms: C_8  and  C_10
REMARK    4  A    between atoms: C_8  and  C_11
REMARK    5  A    between atoms: C_13  and  N_18
REMARK                            x       y       z     vdW  Elec       q    Type
REMARK                         _______ _______ _______ _____ _____    ______ ____
ROOT
ATOM      1  C   UNL     1      -0.019   1.526   0.010  0.00  0.00    +0.007 C 
ATOM      2  C   UNL     1       0.002  -0.004   0.002  0.00  0.00    -0.012 C 
ATOM      3  C   UNL     1       0.718  -0.497  -1.257  0.00  0.00    +0.030 C 
ATOM      4  C   UNL     1       0.739  -2.027  -1.265  0.00  0.00    +0.110 C 
ATOM      5  C   UNL     1       1.479  -2.534  -0.026  0.00  0.00    +0.033 C 
ATOM      6  C   UNL     1       0.763  -2.041   1.233  0.00  0.00    -0.033 C 
ATOM      7  C   UNL     1       0.742  -0.511   1.242  0.00  0.00    +0.009 C 
ATOM      8  C   UNL     1      -0.673  -2.570   1.244  0.00  0.00    +0.011 C 
ATOM      9  C   UNL     1       1.503  -2.548   2.473  0.00  0.00    +0.011 C 
ENDROOT
BRANCH   4  10
ATOM     10  N   UNL     1       1.425  -2.500  -2.470  0.00  0.00    -0.247 N 
ATOM     11  C   UNL     1       0.887  -3.281  -3.442  0.00  0.00    +0.129 A 
ATOM     12  C   UNL     1       1.853  -3.490  -4.380  0.00  0.00    +0.077 A 
ATOM     13  C   UNL     1       3.005  -2.817  -3.965  0.00  0.00    +0.151 A 
ATOM     14  N   UNL     1       2.750  -2.221  -2.829  0.00  0.00    -0.177 NA
ATOM     15 BR   UNL     1       1.667  -4.509  -5.962  0.00  0.00    -0.045 Br
BRANCH  11  16
ATOM     16  N   UNL     1      -0.413  -3.779  -3.474  0.00  0.00    -0.342 N 
ATOM     17  H   UNL     1      -1.029  -3.573  -2.754  0.00  0.00    +0.144 HD
ATOM     18  H   UNL     1      -0.703  -4.332  -4.217  0.00  0.00    +0.144 HD
ENDBRANCH  11  16
ENDBRANCH   4  10
TORSDOF 2
