REMARK  Name = ZINC05348376
REMARK  7 active torsions:
REMARK  status: ('A' for Active; 'I' for Inactive)
REMARK    1  A    between atoms: C_1  and  C_2
REMARK    2  A    between atoms: C_2  and  C_3
REMARK    3  A    between atoms: C_3  and  C_4
REMARK    4  A    between atoms: C_4  and  N_5
REMARK    5  A    between atoms: C_10  and  C_27
REMARK    6  A    between atoms: C_27  and  C_28
REMARK    7  A    between atoms: C_28  and  C_29
REMARK                            x       y       z     vdW  Elec       q    Type
REMARK                         _______ _______ _______ _____ _____    ______ ____
ROOT
ATOM      1  N   UNL     1       2.829   1.011  -1.649  0.00  0.00    -0.242 N 
ATOM      2  C   UNL     1       3.060   0.223  -0.593  0.00  0.00    +0.224 C 
ATOM      3  O   UNL     1       3.818  -0.722  -0.577  0.00  0.00    -0.275 OA
ATOM      4  C   UNL     1       2.228   0.695   0.577  0.00  0.00    +0.073 C 
ATOM      5  C   UNL     1       1.142  -0.357   0.889  0.00  0.00    -0.057 C 
ATOM      6  C   UNL     1      -0.018   1.470   0.010  0.00  0.00    +0.050 C 
ATOM      7  C   UNL     1       1.451   1.911  -0.002  0.00  0.00    +0.088 C 
ATOM      8  C   UNL     1       1.945   1.991  -1.429  0.00  0.00    +0.225 C 
ATOM      9  O   UNL     1       1.595   2.816  -2.245  0.00  0.00    -0.275 OA
ATOM     10  C   UNL     1      -0.744   2.004   1.212  0.00  0.00    -0.026 A 
ATOM     11  C   UNL     1      -0.556   1.870   2.570  0.00  0.00    +0.004 A 
ATOM     12  C   UNL     1      -1.414   2.500   3.454  0.00  0.00    +0.002 A 
ATOM     13  C   UNL     1      -2.460   3.264   2.971  0.00  0.00    +0.022 A 
ATOM     14  C   UNL     1      -2.652   3.402   1.611  0.00  0.00    +0.062 A 
ATOM     15  C   UNL     1      -1.792   2.771   0.714  0.00  0.00    +0.054 A 
ATOM     16  N   UNL     1      -1.778   2.759  -0.683  0.00  0.00    -0.285 N 
ATOM     17  C   UNL     1      -0.767   2.017  -1.174  0.00  0.00    +0.211 C 
ATOM     18  O   UNL     1      -0.509   1.828  -2.344  0.00  0.00    -0.277 OA
ATOM     19 CL   UNL     1      -3.969   4.365   1.017  0.00  0.00    -0.082 Cl
ATOM     20  H   UNL     1      -2.423   3.229  -1.235  0.00  0.00    +0.155 HD
ATOM     21  N   UNL     1       0.025   0.019   0.020  0.00  0.00    +0.394 N 
ATOM     22  H   UNL     1      -0.855  -0.360   0.390  0.00  0.00    -0.083 HD
ATOM     23  H   UNL     1       0.178  -0.339  -0.930  0.00  0.00    -0.083 HD
ENDROOT
BRANCH   1  24
ATOM     24  C   UNL     1       3.490   0.816  -2.942  0.00  0.00    +0.116 C 
BRANCH  24  25
ATOM     25  C   UNL     1       4.791   1.620  -2.977  0.00  0.00    +0.019 C 
BRANCH  25  27
ATOM     26  C   UNL     1       6.782   2.221  -4.361  0.00  0.00    +0.004 C 
ATOM     27  C   UNL     1       5.481   1.417  -4.327  0.00  0.00    -0.002 C 
ENDBRANCH  25  27
ENDBRANCH  24  25
ENDBRANCH   1  24
BRANCH   5  28
ATOM     28  C   UNL     1       1.653  -1.763   0.566  0.00  0.00    -0.006 C 
BRANCH  28  29
ATOM     29  C   UNL     1       0.579  -2.791   0.929  0.00  0.00    +0.094 C 
BRANCH  29  30
ATOM     30  C   UNL     1       1.081  -4.176   0.612  0.00  0.00    +0.210 C 
ATOM     31  O   UNL     1       2.189  -4.325   0.141  0.00  0.00    -0.276 OA
ATOM     32  N   UNL     1       0.299  -5.247   0.850  0.00  0.00    -0.329 N 
ATOM     33  H   UNL     1      -0.586  -5.127   1.227  0.00  0.00    +0.145 HD
ATOM     34  H   UNL     1       0.623  -6.138   0.646  0.00  0.00    +0.145 HD
ENDBRANCH  29  30
ENDBRANCH  28  29
ENDBRANCH   5  28
TORSDOF 6
