REMARK  Name = ZINC37899120
REMARK  9 active torsions:
REMARK  status: ('A' for Active; 'I' for Inactive)
REMARK    1  A    between atoms: C_1  and  C_2
REMARK    2  A    between atoms: C_2  and  C_4
REMARK    3  A    between atoms: C_2  and  N_15
REMARK    4  A    between atoms: N_6  and  C_7
REMARK    5  A    between atoms: C_12  and  N_13
REMARK    6  A    between atoms: N_15  and  C_16
REMARK    7  A    between atoms: N_15  and  C_17
REMARK    8  A    between atoms: C_17  and  C_18
REMARK    9  A    between atoms: C_18  and  O_19
REMARK                            x       y       z     vdW  Elec       q    Type
REMARK                         _______ _______ _______ _____ _____    ______ ____
ROOT
ATOM      1  C   UNL     1       0.004  -0.827  -1.507  0.00  0.00    +0.203 C 
ATOM      2  O   UNL     1      -0.504  -1.827  -1.969  0.00  0.00    -0.277 OA
ATOM      3  N   UNL     1       1.055  -0.257  -2.128  0.00  0.00    -0.285 N 
ATOM      4  H   UNL     1       1.501   0.505  -1.725  0.00  0.00    +0.155 HD
ENDROOT
BRANCH   3   5
ATOM      5  C   UNL     1       1.503  -0.764  -3.355  0.00  0.00    +0.056 A 
ATOM      6  C   UNL     1       1.345  -2.109  -3.651  0.00  0.00    +0.045 A 
ATOM      7  C   UNL     1       1.789  -2.607  -4.863  0.00  0.00    +0.043 A 
ATOM      8  C   UNL     1       2.390  -1.766  -5.783  0.00  0.00    +0.022 A 
ATOM      9  C   UNL     1       2.551  -0.424  -5.495  0.00  0.00    +0.026 A 
ATOM     10  C   UNL     1       2.104   0.085  -4.284  0.00  0.00    +0.046 A 
ATOM     11 CL   UNL     1       1.591  -4.292  -5.231  0.00  0.00    -0.083 Cl
BRANCH  10  12
ATOM     12  N   UNL     1       2.261   1.445  -3.994  0.00  0.00    -0.357 N 
ATOM     13  H   UNL     1       1.951   1.799  -3.145  0.00  0.00    +0.142 HD
ATOM     14  H   UNL     1       2.679   2.034  -4.641  0.00  0.00    +0.142 HD
ENDBRANCH  10  12
ENDBRANCH   3   5
BRANCH   1  16
ATOM     15  C   UNL     1      -1.464   0.947  -0.585  0.00  0.00    -0.004 C 
ATOM     16  C   UNL     1      -0.541  -0.223  -0.238  0.00  0.00    +0.016 C 
BRANCH  16  17
ATOM     17  N   UNL     1      -1.297  -1.241   0.504  0.00  0.00    +0.387 N 
ATOM     18  C   UNL     1      -0.388  -2.312   0.932  0.00  0.00    -0.095 C 
ATOM     19  H   UNL     1      -2.015  -1.627  -0.092  0.00  0.00    -0.081 HD
BRANCH  17  20
ATOM     20  C   UNL     1      -1.919  -0.625   1.684  0.00  0.00    -0.050 C 
BRANCH  20  21
ATOM     21  C   UNL     1      -2.788  -1.661   2.400  0.00  0.00    +0.137 C 
BRANCH  21  22
ATOM     22  O   UNL     1      -1.953  -2.659   2.988  0.00  0.00    -0.397 OA
ATOM     23  H   UNL     1      -2.438  -3.350   3.461  0.00  0.00    +0.209 HD
ENDBRANCH  21  22
ENDBRANCH  20  21
ENDBRANCH  17  20
ENDBRANCH  16  17
ENDBRANCH   1  16
TORSDOF 7
