REMARK  Name = ZINC48906781
REMARK  8 active torsions:
REMARK  status: ('A' for Active; 'I' for Inactive)
REMARK    1  A    between atoms: C_1  and  C_2
REMARK    2  A    between atoms: C_2  and  N_3
REMARK    3  A    between atoms: N_3  and  C_4
REMARK    4  A    between atoms: C_4  and  C_5
REMARK    5  A    between atoms: N_12  and  C_13
REMARK    6  A    between atoms: C_16  and  C_19
REMARK    7  A    between atoms: C_19  and  C_21
REMARK    8  A    between atoms: C_19  and  N_22
REMARK                            x       y       z     vdW  Elec       q    Type
REMARK                         _______ _______ _______ _____ _____    ______ ____
ROOT
ATOM      1  N   UNL     1      -1.370  -0.517   0.012  0.00  0.00    -0.278 N 
ATOM      2  C   UNL     1      -1.994  -0.749   1.184  0.00  0.00    +0.307 C 
ATOM      3  O   UNL     1      -3.138  -1.161   1.193  0.00  0.00    -0.252 OA
ATOM      4  N   UNL     1      -1.350  -0.524   2.347  0.00  0.00    -0.269 N 
ATOM      5  H   UNL     1      -0.417  -0.259   2.341  0.00  0.00    +0.156 HD
ENDROOT
BRANCH   4   6
ATOM      6  C   UNL     1      -2.028  -0.672   3.562  0.00  0.00    +0.035 A 
ATOM      7  C   UNL     1      -1.740   0.172   4.627  0.00  0.00    +0.023 A 
ATOM      8  C   UNL     1      -2.411   0.024   5.825  0.00  0.00    +0.004 A 
ATOM      9  C   UNL     1      -3.368  -0.964   5.965  0.00  0.00    -0.062 A 
ATOM     10  C   UNL     1      -3.657  -1.807   4.907  0.00  0.00    +0.004 A 
ATOM     11  C   UNL     1      -2.993  -1.660   3.704  0.00  0.00    +0.023 A 
BRANCH   9  12
ATOM     12  C   UNL     1      -4.098  -1.124   7.273  0.00  0.00    -0.047 C 
ATOM     13  C   UNL     1      -3.476  -2.274   8.068  0.00  0.00    -0.009 C 
BRANCH  12  14
ATOM     14  N   UNL     1      -5.514  -1.418   7.012  0.00  0.00    +0.382 N 
ATOM     15  H   UNL     1      -5.587  -2.272   6.480  0.00  0.00    -0.089 HD
ATOM     16  H   UNL     1      -6.003  -1.525   7.888  0.00  0.00    -0.089 HD
ATOM     17  H   UNL     1      -5.924  -0.660   6.488  0.00  0.00    -0.089 HD
ENDBRANCH  12  14
ENDBRANCH   9  12
ENDBRANCH   4   6
BRANCH   1  19
ATOM     18  C   UNL     1      -0.001   1.510   0.006  0.00  0.00    +0.024 C 
ATOM     19  C   UNL     1       0.008  -0.020   0.002  0.00  0.00    +0.106 C 
ENDBRANCH   1  19
BRANCH   1  20
ATOM     20  C   UNL     1      -2.070  -0.762  -1.251  0.00  0.00    +0.183 C 
BRANCH  20  21
ATOM     21  C   UNL     1      -1.828  -2.183  -1.692  0.00  0.00    +0.122 A 
ATOM     22  C   UNL     1      -2.589  -3.245  -1.375  0.00  0.00    +0.046 A 
ATOM     23  C   UNL     1      -2.001  -4.371  -1.997  0.00  0.00    +0.041 A 
ATOM     24  C   UNL     1      -0.916  -3.928  -2.657  0.00  0.00    +0.195 A 
ATOM     25  O   UNL     1      -0.819  -2.601  -2.474  0.00  0.00    -0.466 OA
ENDBRANCH  20  21
ENDBRANCH   1  20
TORSDOF 6
