REMARK  Name = ZINC59121835
REMARK  11 active torsions:
REMARK  status: ('A' for Active; 'I' for Inactive)
REMARK    1  A    between atoms: C_1  and  C_2
REMARK    2  A    between atoms: C_2  and  C_3
REMARK    3  A    between atoms: C_3  and  N_4
REMARK    4  A    between atoms: N_4  and  C_5
REMARK    5  A    between atoms: N_4  and  C_19
REMARK    6  A    between atoms: C_5  and  C_6
REMARK    7  A    between atoms: N_8  and  C_9
REMARK    8  A    between atoms: C_12  and  S_15
REMARK    9  A    between atoms: S_15  and  N_18
REMARK   10  A    between atoms: C_19  and  C_21
REMARK   11  A    between atoms: C_19  and  C_22
REMARK                            x       y       z     vdW  Elec       q    Type
REMARK                         _______ _______ _______ _____ _____    ______ ____
ROOT
ATOM      1  C   UNL     1       1.085  -1.734  -1.283  0.00  0.00    +0.201 C 
ATOM      2  O   UNL     1       0.038  -1.121  -1.258  0.00  0.00    -0.278 OA
ATOM      3  N   UNL     1       1.757  -1.872  -2.443  0.00  0.00    -0.287 N 
ATOM      4  H   UNL     1       2.556  -2.421  -2.479  0.00  0.00    +0.155 HD
ENDROOT
BRANCH   3   5
ATOM      5  C   UNL     1       1.303  -1.222  -3.596  0.00  0.00    +0.033 A 
ATOM      6  C   UNL     1       1.451  -1.825  -4.839  0.00  0.00    +0.025 A 
ATOM      7  C   UNL     1       1.002  -1.182  -5.975  0.00  0.00    +0.030 A 
ATOM      8  C   UNL     1       0.406   0.062  -5.877  0.00  0.00    +0.105 A 
ATOM      9  C   UNL     1       0.257   0.665  -4.642  0.00  0.00    +0.030 A 
ATOM     10  C   UNL     1       0.699   0.024  -3.501  0.00  0.00    +0.025 A 
BRANCH   8  11
ATOM     11  S   UNL     1      -0.166   0.880  -7.329  0.00  0.00    +0.056 S 
ATOM     12  O   UNL     1      -0.193   2.268  -7.029  0.00  0.00    -0.153 OA
ATOM     13  O   UNL     1       0.581   0.349  -8.415  0.00  0.00    -0.153 OA
BRANCH  11  14
ATOM     14  N   UNL     1      -1.738   0.416  -7.566  0.00  0.00    -0.204 NA
ATOM     15  H   UNL     1      -2.363   1.020  -7.997  0.00  0.00    +0.144 HD
ATOM     16  H   UNL     1      -2.035  -0.460  -7.273  0.00  0.00    +0.144 HD
ENDBRANCH  11  14
ENDBRANCH   8  11
ENDBRANCH   3   5
BRANCH   1  17
ATOM     17  C   UNL     1       1.633  -2.341  -0.018  0.00  0.00    +0.020 C 
BRANCH  17  18
ATOM     18  N   UNL     1       0.807  -1.925   1.123  0.00  0.00    +0.390 N 
ATOM     19  H   UNL     1      -0.160  -2.146   0.937  0.00  0.00    -0.080 HD
BRANCH  18  20
ATOM     20  C   UNL     1       1.247  -2.635   2.332  0.00  0.00    -0.039 C 
ATOM     21  C   UNL     1       0.387  -2.201   3.520  0.00  0.00    -0.008 C 
BRANCH  20  22
ATOM     22  C   UNL     1       1.103  -4.120   2.122  0.00  0.00    -0.047 A 
ATOM     23  C   UNL     1       0.264  -4.601   1.134  0.00  0.00    +0.003 A 
ATOM     24  C   UNL     1       0.132  -5.963   0.942  0.00  0.00    +0.000 A 
ATOM     25  C   UNL     1       0.839  -6.846   1.738  0.00  0.00    +0.001 A 
ATOM     26  C   UNL     1       1.678  -6.366   2.726  0.00  0.00    +0.015 A 
ATOM     27  C   UNL     1       1.814  -5.003   2.915  0.00  0.00    +0.019 A 
ATOM     28 BR   UNL     1       2.967  -4.345   4.262  0.00  0.00    -0.050 Br
ENDBRANCH  20  22
ENDBRANCH  18  20
BRANCH  18  29
ATOM     29  C   UNL     1       0.948  -0.477   1.327  0.00  0.00    -0.078 C 
BRANCH  29  31
ATOM     30  C   UNL     1       2.583   1.389   1.622  0.00  0.00    +0.002 C 
ATOM     31  C   UNL     1       2.426  -0.129   1.513  0.00  0.00    -0.022 C 
ENDBRANCH  29  31
ENDBRANCH  18  29
ENDBRANCH  17  18
ENDBRANCH   1  17
TORSDOF 9
