REMARK  Name = ZINC40377349
REMARK  10 active torsions:
REMARK  status: ('A' for Active; 'I' for Inactive)
REMARK    1  A    between atoms: C_1  and  C_2
REMARK    2  A    between atoms: C_2  and  C_3
REMARK    3  A    between atoms: C_3  and  C_4
REMARK    4  A    between atoms: C_3  and  C_5
REMARK    5  A    between atoms: C_3  and  N_9
REMARK    6  A    between atoms: N_6  and  O_7
REMARK    7  A    between atoms: N_9  and  S_10
REMARK    8  A    between atoms: S_10  and  C_13
REMARK    9  A    between atoms: C_14  and  C_19
REMARK   10  A    between atoms: C_17  and  C_18
REMARK                            x       y       z     vdW  Elec       q    Type
REMARK                         _______ _______ _______ _____ _____    ______ ____
ROOT
ATOM      1  N   UNL     1      -2.774  -0.534  -1.119  0.00  0.00    -0.177 NA
ATOM      2  H   UNL     1      -3.514   0.086  -1.209  0.00  0.00    +0.149 HD
ENDROOT
BRANCH   1   3
ATOM      3  S   UNL     1      -1.824  -0.885  -2.429  0.00  0.00    +0.064 S 
ATOM      4  O   UNL     1      -2.363  -0.162  -3.528  0.00  0.00    -0.153 OA
ATOM      5  O   UNL     1      -0.476  -0.732  -2.005  0.00  0.00    -0.153 OA
BRANCH   3   6
ATOM      6  C   UNL     1      -2.046  -2.594  -2.792  0.00  0.00    +0.169 A 
ATOM      7  C   UNL     1      -1.129  -3.624  -2.515  0.00  0.00    +0.107 A 
ATOM      8  N   UNL     1      -1.645  -4.747  -2.927  0.00  0.00    -0.081 NA
ATOM      9  O   UNL     1      -2.916  -4.464  -3.484  0.00  0.00    -0.358 OA
ATOM     10  C   UNL     1      -3.127  -3.143  -3.379  0.00  0.00    +0.161 A 
ATOM     11  C   UNL     1      -4.357  -2.404  -3.840  0.00  0.00    +0.091 C 
ATOM     12  C   UNL     1       0.216  -3.456  -1.856  0.00  0.00    +0.071 C 
ENDBRANCH   3   6
ENDBRANCH   1   3
BRANCH   1  13
ATOM     13  C   UNL     1      -2.498  -1.161   0.175  0.00  0.00    +0.095 C 
ATOM     14  C   UNL     1      -2.744  -2.668   0.075  0.00  0.00    +0.037 C 
BRANCH  13  15
ATOM     15  C   UNL     1      -3.407  -0.573   1.223  0.00  0.00    +0.153 C 
ATOM     16  N   UNL     1      -4.206  -1.339   1.889  0.00  0.00    -0.075 NA
ATOM     17  N   UNL     1      -3.385   0.782   1.471  0.00  0.00    -0.342 N 
ATOM     18  H   UNL     1      -2.841   1.367   0.921  0.00  0.00    +0.144 HD
ATOM     19  H   UNL     1      -3.914   1.151   2.196  0.00  0.00    +0.144 HD
BRANCH  16  20
ATOM     20  O   UNL     1      -5.060  -0.786   2.873  0.00  0.00    -0.408 OA
ATOM     21  H   UNL     1      -5.621  -1.436   3.318  0.00  0.00    +0.328 HD
ENDBRANCH  16  20
ENDBRANCH  13  15
BRANCH  13  23
ATOM     22  C   UNL     1      -0.792  -1.426   1.982  0.00  0.00    +0.006 C 
ATOM     23  C   UNL     1      -1.040  -0.907   0.564  0.00  0.00    +0.028 C 
ENDBRANCH  13  23
ENDBRANCH   1  13
TORSDOF 6
