REMARK  Name = ZINC36862069
REMARK  5 active torsions:
REMARK  status: ('A' for Active; 'I' for Inactive)
REMARK    1  A    between atoms: C_1  and  O_2
REMARK    2  A    between atoms: O_2  and  C_3
REMARK    3  A    between atoms: C_8  and  N_9
REMARK    4  A    between atoms: C_10  and  C_12
REMARK    5  A    between atoms: C_14  and  N_18
REMARK                            x       y       z     vdW  Elec       q    Type
REMARK                         _______ _______ _______ _____ _____    ______ ____
ROOT
ATOM      1  N   UNL     1       0.098  -2.778   0.085  0.00  0.00    -0.277 N 
ATOM      2  C   UNL     1       0.240  -4.118   0.088  0.00  0.00    +0.265 C 
ATOM      3  O   UNL     1       0.798  -4.669   1.018  0.00  0.00    -0.268 OA
ATOM      4  H   UNL     1      -0.417  -2.346  -0.615  0.00  0.00    +0.155 HD
ENDROOT
BRANCH   1  10
ATOM      5  C   UNL     1       0.172  -0.757   1.415  0.00  0.00    +0.141 A 
ATOM      6  C   UNL     1       0.760  -0.003   2.417  0.00  0.00    +0.049 A 
ATOM      7  C   UNL     1       1.865  -0.489   3.091  0.00  0.00    +0.024 A 
ATOM      8  C   UNL     1       2.386  -1.729   2.768  0.00  0.00    +0.043 A 
ATOM      9  C   UNL     1       1.805  -2.489   1.769  0.00  0.00    +0.047 A 
ATOM     10  C   UNL     1       0.692  -2.009   1.093  0.00  0.00    +0.077 A 
ATOM     11 CL   UNL     1       3.774  -2.334   3.618  0.00  0.00    -0.083 Cl
BRANCH   5  13
ATOM     12  C   UNL     1      -1.395   1.010   1.136  0.00  0.00    +0.277 C 
ATOM     13  O   UNL     1      -0.915  -0.280   0.752  0.00  0.00    -0.493 OA
ENDBRANCH   5  13
ENDBRANCH   1  10
BRANCH   2  14
ATOM     14  C   UNL     1      -0.278  -4.913  -1.030  0.00  0.00    +0.104 A 
ATOM     15  C   UNL     1      -0.208  -6.285  -1.156  0.00  0.00    +0.055 A 
ATOM     16  C   UNL     1      -0.823  -6.620  -2.370  0.00  0.00    +0.043 A 
ATOM     17  C   UNL     1      -1.249  -5.469  -2.951  0.00  0.00    +0.106 A 
ATOM     18  N   UNL     1      -0.928  -4.425  -2.141  0.00  0.00    -0.355 N 
ATOM     19  H   UNL     1      -1.122  -3.491  -2.318  0.00  0.00    +0.166 HD
BRANCH  16  20
ATOM     20  N   UNL     1      -0.973  -7.918  -2.893  0.00  0.00    -0.357 N 
ATOM     21  H   UNL     1      -0.632  -8.682  -2.401  0.00  0.00    +0.142 HD
ATOM     22  H   UNL     1      -1.415  -8.050  -3.746  0.00  0.00    +0.142 HD
ENDBRANCH  16  20
ENDBRANCH   2  14
TORSDOF 4
