REMARK  Name = ZINC38527232
REMARK  8 active torsions:
REMARK  status: ('A' for Active; 'I' for Inactive)
REMARK    1  A    between atoms: C_3  and  O_21
REMARK    2  A    between atoms: C_4  and  O_20
REMARK    3  A    between atoms: C_6  and  C_7
REMARK    4  A    between atoms: C_7  and  C_8
REMARK    5  A    between atoms: C_8  and  C_10
REMARK    6  A    between atoms: C_8  and  N_19
REMARK    7  A    between atoms: C_10  and  O_12
REMARK    8  A    between atoms: O_12  and  C_13
REMARK                            x       y       z     vdW  Elec       q    Type
REMARK                         _______ _______ _______ _____ _____    ______ ____
ROOT
ATOM      1  C   UNL     1      -1.746  -1.026  -1.429  0.00  0.00    +0.040 C 
ENDROOT
BRANCH   1   2
ATOM      2  N   UNL     1      -2.059   0.255  -2.076  0.00  0.00    +0.387 N 
ATOM      3  H   UNL     1      -2.798   0.717  -1.568  0.00  0.00    -0.089 HD
ATOM      4  H   UNL     1      -1.237   0.840  -2.080  0.00  0.00    -0.089 HD
ATOM      5  H   UNL     1      -2.357   0.088  -3.026  0.00  0.00    -0.089 HD
ENDBRANCH   1   2
BRANCH   1   6
ATOM      6  C   UNL     1      -2.974  -1.900  -1.424  0.00  0.00    +0.293 C 
ATOM      7  O   UNL     1      -4.067  -1.405  -1.564  0.00  0.00    -0.253 OA
BRANCH   6   8
ATOM      8  O   UNL     1      -2.853  -3.227  -1.265  0.00  0.00    -0.462 OA
BRANCH   8   9
ATOM      9  C   UNL     1      -4.059  -3.994  -1.270  0.00  0.00    +0.176 C 
ATOM     10  C   UNL     1      -4.380  -4.429  -2.701  0.00  0.00    +0.044 C 
ATOM     11  C   UNL     1      -5.671  -5.250  -2.707  0.00  0.00    +0.004 C 
ATOM     12  C   UNL     1      -5.493  -6.487  -1.825  0.00  0.00    +0.000 C 
ATOM     13  C   UNL     1      -5.171  -6.052  -0.394  0.00  0.00    +0.004 C 
ATOM     14  C   UNL     1      -3.880  -5.231  -0.388  0.00  0.00    +0.044 C 
ENDBRANCH   8   9
ENDBRANCH   6   8
ENDBRANCH   1   6
BRANCH   1  15
ATOM     15  C   UNL     1      -1.294  -0.774   0.010  0.00  0.00    +0.030 C 
BRANCH  15  21
ATOM     16  C   UNL     1      -0.017   1.378   0.010  0.00  0.00    +0.007 A 
ATOM     17  C   UNL     1       1.170   2.089   0.002  0.00  0.00    +0.049 A 
ATOM     18  C   UNL     1       2.380   1.415  -0.013  0.00  0.00    +0.158 A 
ATOM     19  C   UNL     1       2.399   0.024  -0.021  0.00  0.00    +0.158 A 
ATOM     20  C   UNL     1       1.207  -0.682  -0.013  0.00  0.00    +0.052 A 
ATOM     21  C   UNL     1       0.002  -0.004   0.002  0.00  0.00    -0.045 A 
BRANCH  19  22
ATOM     22  O   UNL     1       3.585  -0.642  -0.036  0.00  0.00    -0.503 OA
ATOM     23  H   UNL     1       3.937  -0.839   0.843  0.00  0.00    +0.292 HD
ENDBRANCH  19  22
BRANCH  18  24
ATOM     24  O   UNL     1       3.548   2.113  -0.021  0.00  0.00    -0.503 OA
ATOM     25  H   UNL     1       3.894   2.310   0.860  0.00  0.00    +0.292 HD
ENDBRANCH  18  24
ENDBRANCH  15  21
ENDBRANCH   1  15
TORSDOF 8
