REMARK  Name = ZINC45338474
REMARK  9 active torsions:
REMARK  status: ('A' for Active; 'I' for Inactive)
REMARK    1  A    between atoms: CG_4  and  CB_7
REMARK    2  A    between atoms: CB_7  and  CA_8
REMARK    3  A    between atoms: CA_8  and  C_10
REMARK    4  A    between atoms: CA_8  and  N_12
REMARK    5  A    between atoms: C_10  and  O_11
REMARK    6  A    between atoms: N_19  and  C_22
REMARK    7  A    between atoms: C_25  and  N_33
REMARK    8  A    between atoms: C_27  and  O_32
REMARK    9  A    between atoms: C_29  and  O_31
REMARK                            x       y       z     vdW  Elec       q    Type
REMARK                         _______ _______ _______ _____ _____    ______ ____
ROOT
ATOM      1  N   PHE A   1       4.451   0.315   2.057  0.00  0.00    -0.308 N 
ATOM      2  C   UNK A   0       4.376   0.415   3.437  0.00  0.00    +0.219 A 
ATOM      3  N   UNK A   0       4.053  -0.663   4.141  0.00  0.00    -0.198 NA
ATOM      4  C   UNK A   0       3.968  -0.618   5.465  0.00  0.00    +0.149 A 
ATOM      5  C   UNK A   0       4.228   0.601   6.115  0.00  0.00    +0.147 A 
ATOM      6  C   UNK A   0       4.565   1.715   5.329  0.00  0.00    +0.168 A 
ATOM      7  N   UNK A   0       4.633   1.580   4.008  0.00  0.00    -0.195 NA
ATOM      8  N   UNK A   0       4.762   2.752   6.206  0.00  0.00    -0.309 N 
ATOM      9  C   UNK A   0       4.549   2.268   7.464  0.00  0.00    +0.202 A 
ATOM     10  N   UNK A   0       4.236   1.007   7.408  0.00  0.00    -0.231 NA
ATOM     11  N   UNK A   0       3.631  -1.748   6.190  0.00  0.00    -0.341 N 
ATOM     12  H   PHE A   1       4.689   1.092   1.527  0.00  0.00    +0.149 HD
ATOM     13  H   UNK A   0       3.454  -2.584   5.732  0.00  0.00    +0.144 HD
ATOM     14  H   UNK A   0       3.572  -1.703   7.157  0.00  0.00    +0.144 HD
ENDROOT
BRANCH   8  15
ATOM     15  C   UNK A   0       5.134   4.125   5.856  0.00  0.00    +0.123 C 
ATOM     16  C   UNK A   0       6.467   4.501   6.535  0.00  0.00    +0.055 C 
ATOM     17  C   UNK A   0       6.288   5.988   6.927  0.00  0.00    +0.123 C 
ATOM     18  C   UNK A   0       4.805   6.048   7.372  0.00  0.00    +0.168 C 
ATOM     19  C   UNK A   0       4.076   5.109   6.388  0.00  0.00    +0.168 C 
BRANCH  17  20
ATOM     20  N   UNK A   0       7.180   6.345   8.033  0.00  0.00    -0.310 N 
ATOM     21  C   UNK A   0       7.077   5.689   9.217  0.00  0.00    +0.089 A 
ATOM     22  C   UNK A   0       7.891   6.001  10.253  0.00  0.00    +0.018 A 
ATOM     23  C   UNK A   0       8.852   7.011  10.108  0.00  0.00    +0.007 A 
ATOM     24  C   UNK A   0       8.954   7.669   8.918  0.00  0.00    +0.070 A 
ATOM     25  C   UNK A   0       8.097   7.316   7.861  0.00  0.00    +0.252 A 
ATOM     26  O   UNK A   0       8.181   7.894   6.789  0.00  0.00    -0.268 OA
ENDBRANCH  17  20
BRANCH  19  27
ATOM     27  O   UNK A   0       3.524   5.864   5.307  0.00  0.00    -0.387 OA
ATOM     28  H   UNK A   0       2.850   6.502   5.578  0.00  0.00    +0.210 HD
ENDBRANCH  19  27
BRANCH  18  29
ATOM     29  O   UNK A   0       4.303   7.381   7.260  0.00  0.00    -0.387 OA
ATOM     30  H   UNK A   0       3.378   7.476   7.525  0.00  0.00    +0.210 HD
ENDBRANCH  18  29
ENDBRANCH   8  15
BRANCH   1  31
ATOM     31  CA  PHE A   1       4.171  -0.963   1.399  0.00  0.00    +0.103 C 
BRANCH  31  32
ATOM     32  CB  PHE A   1       3.711  -0.707  -0.038  0.00  0.00    +0.059 C 
BRANCH  32  36
ATOM     33  CZ  PHE A   1      -0.017   1.378   0.010  0.00  0.00    +0.000 A 
ATOM     34  CE1 PHE A   1       1.171   2.086   0.002  0.00  0.00    +0.000 A 
ATOM     35  CD1 PHE A   1       2.377   1.411  -0.013  0.00  0.00    +0.004 A 
ATOM     36  CG  PHE A   1       2.396   0.029  -0.020  0.00  0.00    -0.046 A 
ATOM     37  CD2 PHE A   1       1.208  -0.679  -0.012  0.00  0.00    +0.004 A 
ATOM     38  CE2 PHE A   1       0.002  -0.004   0.002  0.00  0.00    +0.000 A 
ENDBRANCH  32  36
ENDBRANCH  31  32
BRANCH  31  39
ATOM     39  C   PHE A   1       5.441  -1.817   1.383  0.00  0.00    +0.178 C 
BRANCH  39  40
ATOM     40  O   PHE A   1       6.431  -1.183   0.572  0.00  0.00    -0.393 OA
ATOM     41  H   PHE A   1       7.265  -1.670   0.516  0.00  0.00    +0.209 HD
ENDBRANCH  39  40
ENDBRANCH  31  39
ENDBRANCH   1  31
TORSDOF 9
