REMARK  Name = ZINC13068511
REMARK  7 active torsions:
REMARK  status: ('A' for Active; 'I' for Inactive)
REMARK    1  A    between atoms: C_4  and  C_7
REMARK    2  A    between atoms: C_7  and  C_9
REMARK    3  A    between atoms: C_7  and  C_25
REMARK    4  A    between atoms: C_9  and  N_10
REMARK    5  A    between atoms: N_10  and  S_11
REMARK    6  A    between atoms: S_11  and  C_14
REMARK    7  A    between atoms: C_16  and  C_22
REMARK                            x       y       z     vdW  Elec       q    Type
REMARK                         _______ _______ _______ _____ _____    ______ ____
ROOT
ATOM      1  C   UNL     1       3.711  -0.707  -0.038  0.00  0.00    +0.066 C 
ENDROOT
BRANCH   1   2
ATOM      2  C   UNL     1       3.816  -1.579   1.188  0.00  0.00    -0.014 A 
ATOM      3  C   UNL     1       2.988  -2.579   1.529  0.00  0.00    +0.088 A 
ATOM      4  N   UNL     1       3.398  -3.143   2.706  0.00  0.00    -0.360 N 
ATOM      5  H   UNL     1       2.958  -3.883   3.153  0.00  0.00    +0.165 HD
ATOM      6  C   UNL     1       4.528  -2.502   3.163  0.00  0.00    +0.047 A 
ATOM      7  C   UNL     1       4.843  -1.499   2.229  0.00  0.00    +0.003 A 
ATOM      8  C   UNL     1       5.958  -0.683   2.431  0.00  0.00    +0.010 A 
ATOM      9  C   UNL     1       6.741  -0.866   3.536  0.00  0.00    +0.001 A 
ATOM     10  C   UNL     1       6.437  -1.858   4.459  0.00  0.00    +0.002 A 
ATOM     11  C   UNL     1       5.336  -2.668   4.283  0.00  0.00    +0.026 A 
ENDBRANCH   1   2
BRANCH   1  15
ATOM     12  C   UNL     1      -0.017   1.378   0.010  0.00  0.00    +0.000 A 
ATOM     13  C   UNL     1       1.171   2.086   0.002  0.00  0.00    +0.000 A 
ATOM     14  C   UNL     1       2.377   1.411  -0.013  0.00  0.00    +0.004 A 
ATOM     15  C   UNL     1       2.396   0.029  -0.020  0.00  0.00    -0.039 A 
ATOM     16  C   UNL     1       1.208  -0.679  -0.012  0.00  0.00    +0.004 A 
ATOM     17  C   UNL     1       0.002  -0.004   0.002  0.00  0.00    +0.000 A 
ENDBRANCH   1  15
BRANCH   1  18
ATOM     18  C   UNL     1       3.791  -1.579  -1.292  0.00  0.00    +0.118 C 
BRANCH  18  19
ATOM     19  N   UNL     1       3.810  -0.724  -2.481  0.00  0.00    -0.189 NA
ATOM     20  H   UNL     1       3.558   0.210  -2.411  0.00  0.00    +0.148 HD
BRANCH  19  21
ATOM     21  S   UNL     1       4.261  -1.351  -3.946  0.00  0.00    +0.060 S 
ATOM     22  O   UNL     1       4.152  -0.296  -4.891  0.00  0.00    -0.153 OA
ATOM     23  O   UNL     1       5.476  -2.056  -3.728  0.00  0.00    -0.153 OA
BRANCH  21  24
ATOM     24  C   UNL     1       3.054  -2.554  -4.392  0.00  0.00    +0.124 A 
ATOM     25  C   UNL     1       2.262  -2.354  -5.502  0.00  0.00    +0.046 A 
ATOM     26  C   UNL     1       1.304  -3.309  -5.856  0.00  0.00    +0.083 A 
ATOM     27  C   UNL     1       1.156  -4.463  -5.077  0.00  0.00    +0.057 A 
ATOM     28  C   UNL     1       1.956  -4.649  -3.968  0.00  0.00    +0.042 A 
ATOM     29  C   UNL     1       2.906  -3.701  -3.628  0.00  0.00    +0.069 A 
ATOM     30 CL   UNL     1       3.913  -3.947  -2.236  0.00  0.00    -0.081 Cl
ATOM     31 CL   UNL     1      -0.030  -5.655  -5.506  0.00  0.00    -0.083 Cl
BRANCH  26  32
ATOM     32  C   UNL     1       0.454  -3.102  -7.041  0.00  0.00    +0.388 C 
ATOM     33  O   UNL     1       0.586  -2.092  -7.719  0.00  0.00    -0.241 OA
ATOM     34  O   UNL     1      -0.383  -3.939  -7.348  0.00  0.00    -0.241 OA
ENDBRANCH  26  32
ENDBRANCH  21  24
ENDBRANCH  19  21
ENDBRANCH  18  19
ENDBRANCH   1  18
TORSDOF 7
