REMARK  Name = ZINC37449899
REMARK  6 active torsions:
REMARK  status: ('A' for Active; 'I' for Inactive)
REMARK    1  A    between atoms: C_1  and  C_2
REMARK    2  A    between atoms: C_3  and  C_9
REMARK    3  A    between atoms: N_5  and  C_7
REMARK    4  A    between atoms: C_10  and  C_11
REMARK    5  A    between atoms: C_15  and  O_23
REMARK    6  A    between atoms: C_18  and  C_20
REMARK                            x       y       z     vdW  Elec       q    Type
REMARK                         _______ _______ _______ _____ _____    ______ ____
ROOT
ATOM      1  C   UNL     1       0.882  -0.439  -4.772  0.00  0.00    +0.240 C 
ATOM      2  O   UNL     1       0.061   0.382  -5.139  0.00  0.00    -0.271 OA
ATOM      3  N   UNL     1       1.779  -0.933  -5.648  0.00  0.00    -0.282 N 
ATOM      4  C   UNL     1       2.819  -1.932  -5.341  0.00  0.00    +0.140 C 
ATOM      5  C   UNL     1       3.915  -1.705  -6.412  0.00  0.00    +0.134 C 
ATOM      6  C   UNL     1       3.063  -1.363  -7.662  0.00  0.00    +0.067 C 
ATOM      7  C   UNL     1       1.878  -0.571  -7.069  0.00  0.00    +0.192 C 
ENDROOT
BRANCH   7   8
ATOM      8  C   UNL     1       0.603  -0.942  -7.783  0.00  0.00    +0.376 C 
ATOM      9  O   UNL     1      -0.321  -1.437  -7.161  0.00  0.00    -0.244 OA
ATOM     10  O   UNL     1       0.496  -0.745  -8.981  0.00  0.00    -0.244 OA
ENDBRANCH   7   8
BRANCH   1  12
ATOM     11  C   UNL     1      -0.005  -0.378  -2.545  0.00  0.00    +0.018 C 
ATOM     12  C   UNL     1       0.894  -0.874  -3.423  0.00  0.00    +0.068 C 
BRANCH  11  15
ATOM     13  C   UNL     1      -0.018   1.503   0.010  0.00  0.00    +0.068 C 
ATOM     14  C   UNL     1       0.002  -0.004   0.002  0.00  0.00    +0.069 A 
ATOM     15  C   UNL     1       0.008  -0.829  -1.147  0.00  0.00    +0.034 A 
ATOM     16  C   UNL     1       0.028  -2.142  -0.706  0.00  0.00    +0.134 A 
ATOM     17  N   UNL     1       0.034  -2.112   0.638  0.00  0.00    -0.255 N 
ATOM     18  N   UNL     1       0.023  -0.776   1.053  0.00  0.00    -0.175 NA
ATOM     19  C   UNL     1       0.053  -3.281   1.520  0.00  0.00    +0.174 C 
ATOM     20 CL   UNL     1       0.042  -3.562  -1.704  0.00  0.00    -0.062 Cl
ENDBRANCH  11  15
ENDBRANCH   1  12
BRANCH   5  21
ATOM     21  O   UNL     1       4.763  -0.611  -6.053  0.00  0.00    -0.390 OA
ATOM     22  H   UNL     1       5.242  -0.741  -5.223  0.00  0.00    +0.210 HD
ENDBRANCH   5  21
TORSDOF 4
