REMARK  Name = ZINC09329185
REMARK  4 active torsions:
REMARK  status: ('A' for Active; 'I' for Inactive)
REMARK    1  A    between atoms: C_4  and  N_7
REMARK    2  A    between atoms: C_10  and  C_11
REMARK    3  A    between atoms: N_12  and  C_13
REMARK    4  A    between atoms: C_19  and  N_49
REMARK                            x       y       z     vdW  Elec       q    Type
REMARK                         _______ _______ _______ _____ _____    ______ ____
ROOT
ATOM      1  N   UNL     1       2.480   0.163   0.025  0.00  0.00    -0.248 N 
ATOM      2  C   UNL     1       2.363   1.507  -0.006  0.00  0.00    +0.239 C 
ATOM      3  O   UNL     1       3.347   2.224   0.001  0.00  0.00    -0.274 OA
ATOM      4  C   UNL     1       1.007   2.079  -0.049  0.00  0.00    +0.204 C 
ATOM      5  C   UNL     1      -0.122   1.127  -0.053  0.00  0.00    +0.255 C 
ATOM      6  O   UNL     1      -1.275   1.526  -0.092  0.00  0.00    -0.272 OA
ATOM      7  N   UNL     1       0.149  -0.186  -0.019  0.00  0.00    -0.157 NA
ATOM      8  C   UNL     1       1.381  -0.641   0.018  0.00  0.00    +0.166 C 
ATOM      9  S   UNL     1       1.623  -2.385   0.061  0.00  0.00    -0.016 SA
ENDROOT
BRANCH   1  13
ATOM     10  C   UNL     1       6.732  -0.187   0.063  0.00  0.00    +0.000 C 
ATOM     11  C   UNL     1       5.974  -0.711  -1.158  0.00  0.00    +0.002 C 
ATOM     12  C   UNL     1       4.581  -0.078  -1.204  0.00  0.00    +0.023 C 
ATOM     13  C   UNL     1       3.814  -0.443   0.069  0.00  0.00    +0.083 C 
ATOM     14  C   UNL     1       4.572   0.081   1.290  0.00  0.00    +0.023 C 
ATOM     15  C   UNL     1       5.965  -0.552   1.335  0.00  0.00    +0.002 C 
ENDBRANCH   1  13
BRANCH   4  16
ATOM     16  C   UNL     1       0.801   3.445  -0.083  0.00  0.00    +0.100 C 
ATOM     17  N   UNL     1      -0.449   3.941   0.025  0.00  0.00    -0.293 NA
BRANCH  17  18
ATOM     18  C   UNL     1      -0.682   5.379  -0.132  0.00  0.00    +0.090 C 
ATOM     19  C   UNL     1      -0.836   5.711  -1.617  0.00  0.00    +0.025 C 
ATOM     20  C   UNL     1      -1.080   7.213  -1.781  0.00  0.00    +0.002 C 
ATOM     21  C   UNL     1      -2.357   7.607  -1.035  0.00  0.00    -0.001 C 
ATOM     22  C   UNL     1      -2.202   7.274   0.450  0.00  0.00    -0.014 C 
ATOM     23  C   UNL     1      -1.958   5.773   0.614  0.00  0.00    -0.050 C 
BRANCH  23  26
ATOM     24  H   UNL     1      -2.641   5.704   2.555  0.00  0.00    -0.090 HD
ATOM     25  H   UNL     1      -1.584   4.479   2.171  0.00  0.00    -0.090 HD
ATOM     26  N   UNL     1      -1.791   5.468   2.046  0.00  0.00    +0.381 N 
ATOM     27  H   UNL     1      -1.012   6.023   2.420  0.00  0.00    -0.090 HD
ENDBRANCH  23  26
ENDBRANCH  17  18
ENDBRANCH   4  16
TORSDOF 4
