REMARK  Name = ZINC12249760
REMARK  4 active torsions:
REMARK  status: ('A' for Active; 'I' for Inactive)
REMARK    1  A    between atoms: C_1  and  C_2
REMARK    2  A    between atoms: C_5  and  C_8
REMARK    3  A    between atoms: CA_10  and  C_17
REMARK    4  A    between atoms: C_17  and  O_18
REMARK                            x       y       z     vdW  Elec       q    Type
REMARK                         _______ _______ _______ _____ _____    ______ ____
ROOT
ATOM      1  C   UNL     1      -2.502   1.009   0.020  0.00  0.00    +0.146 A 
ATOM      2  N   UNL     1      -2.624  -0.292   0.201  0.00  0.00    -0.229 NA
ATOM      3  CA  UNL     1      -3.906  -0.639   0.143  0.00  0.00    +0.093 A 
ATOM      4  C   UNL     1      -4.645   0.508  -0.087  0.00  0.00    +0.071 A 
ATOM      5  N   UNL     1      -3.742   1.550  -0.159  0.00  0.00    -0.299 N 
ATOM      6  C   UNL     1      -4.184   2.826  -0.376  0.00  0.00    +0.093 A 
ATOM      7  C   UNL     1      -5.500   3.081  -0.519  0.00  0.00    +0.018 A 
ATOM      8  C   UNL     1      -6.442   2.039  -0.449  0.00  0.00    +0.003 A 
ATOM      9  C   UNL     1      -6.022   0.762  -0.240  0.00  0.00    +0.028 A 
ENDROOT
BRANCH   1  14
ATOM     10  C   UNL     1       2.456   3.927   0.001  0.00  0.00    +0.044 C 
ATOM     11  C   UNL     1       1.156   3.164   0.009  0.00  0.00    -0.050 A 
ATOM     12  C   UNL     1       1.069   1.959   0.683  0.00  0.00    +0.004 A 
ATOM     13  C   UNL     1      -0.117   1.256   0.694  0.00  0.00    +0.012 A 
ATOM     14  C   UNL     1      -1.231   1.759   0.017  0.00  0.00    +0.018 A 
ATOM     15  C   UNL     1      -1.137   2.979  -0.657  0.00  0.00    +0.012 A 
ATOM     16  C   UNL     1       0.056   3.672  -0.660  0.00  0.00    +0.004 A 
ENDBRANCH   1  14
BRANCH   3  17
ATOM     17  C   UNL     1      -4.457  -2.032   0.301  0.00  0.00    +0.213 C 
BRANCH  17  18
ATOM     18  O   UNL     1      -4.744  -2.278   1.680  0.00  0.00    -0.389 OA
ATOM     19  H   UNL     1      -5.102  -3.159   1.856  0.00  0.00    +0.210 HD
ENDBRANCH  17  18
ENDBRANCH   3  17
TORSDOF 3
