REMARK  Name = ZINC29710249
REMARK  4 active torsions:
REMARK  status: ('A' for Active; 'I' for Inactive)
REMARK    1  A    between atoms: C_4  and  C_8
REMARK    2  A    between atoms: C_8  and  N_9
REMARK    3  A    between atoms: C_16  and  S_18
REMARK    4  A    between atoms: S_18  and  N_21
REMARK                            x       y       z     vdW  Elec       q    Type
REMARK                         _______ _______ _______ _____ _____    ______ ____
ROOT
ATOM      1  N   UNL     1       1.271  -2.189   0.234  0.00  0.00    -0.325 N 
ATOM      2  C   UNL     1       2.725  -2.190  -0.038  0.00  0.00    +0.110 C 
ATOM      3  C   UNL     1       3.212  -0.936   0.723  0.00  0.00    +0.056 C 
ATOM      4  C   UNL     1       1.972  -0.065   0.766  0.00  0.00    -0.023 A 
ATOM      5  C   UNL     1       0.876  -0.865   0.461  0.00  0.00    +0.033 A 
ATOM      6  C   UNL     1      -0.393  -0.290   0.426  0.00  0.00    +0.025 A 
ATOM      7  C   UNL     1      -0.554   1.053   0.694  0.00  0.00    +0.030 A 
ATOM      8  C   UNL     1       0.542   1.839   1.001  0.00  0.00    +0.105 A 
ATOM      9  C   UNL     1       1.805   1.276   1.037  0.00  0.00    +0.034 A 
ENDROOT
BRANCH   8  10
ATOM     10  S   UNL     1       0.329   3.554   1.344  0.00  0.00    +0.056 S 
ATOM     11  O   UNL     1       1.574   4.181   1.067  0.00  0.00    -0.153 OA
ATOM     12  O   UNL     1      -0.880   3.949   0.711  0.00  0.00    -0.153 OA
BRANCH  10  13
ATOM     13  N   UNL     1       0.079   3.699   2.975  0.00  0.00    -0.204 NA
ATOM     14  H   UNL     1      -0.059   4.760   3.232  0.00  0.00    +0.144 HD
ATOM     15  H   UNL     1       0.949   3.301   3.517  0.00  0.00    +0.144 HD
ENDBRANCH  10  13
ENDBRANCH   8  10
BRANCH   1  16
ATOM     16  C   UNL     1       0.525  -2.775  -0.888  0.00  0.00    +0.143 C 
BRANCH  16  20
ATOM     17  C   UNL     1       1.981  -6.718  -1.662  0.00  0.00    +0.003 A 
ATOM     18  C   UNL     1       1.081  -6.503  -0.635  0.00  0.00    +0.020 A 
ATOM     19  C   UNL     1       0.610  -5.226  -0.384  0.00  0.00    +0.047 A 
ATOM     20  C   UNL     1       1.039  -4.165  -1.161  0.00  0.00    +0.006 A 
ATOM     21  C   UNL     1       1.935  -4.382  -2.192  0.00  0.00    +0.047 A 
ATOM     22  C   UNL     1       2.410  -5.658  -2.439  0.00  0.00    +0.020 A 
ATOM     23 CL   UNL     1       2.469  -3.052  -3.172  0.00  0.00    -0.083 Cl
ATOM     24 CL   UNL     1      -0.520  -4.957   0.906  0.00  0.00    -0.083 Cl
ENDBRANCH  16  20
ENDBRANCH   1  16
TORSDOF 4
