REMARK  Name = ZINC48596955
REMARK  5 active torsions:
REMARK  status: ('A' for Active; 'I' for Inactive)
REMARK    1  A    between atoms: C_1  and  C_2
REMARK    2  A    between atoms: C_6  and  C_19
REMARK    3  A    between atoms: C_10  and  C_12
REMARK    4  A    between atoms: C_12  and  S_13
REMARK    5  A    between atoms: S_13  and  C_14
REMARK                            x       y       z     vdW  Elec       q    Type
REMARK                         _______ _______ _______ _____ _____    ______ ____
ROOT
ATOM      1  C   UNL     1       0.008   1.528  -0.006  0.00  0.00    +0.028 C 
ATOM      2  C   UNL     1       0.015  -0.002  -0.007  0.00  0.00    +0.073 C 
ATOM      3  C   UNL     1       0.633  -0.512  -1.313  0.00  0.00    +0.023 C 
ATOM      4  C   UNL     1       0.765  -2.035  -1.250  0.00  0.00    +0.016 C 
ATOM      5  C   UNL     1       1.692  -2.421  -0.095  0.00  0.00    +0.092 C 
ATOM      6  C   UNL     1       1.087  -1.933   1.225  0.00  0.00    +0.120 C 
ATOM      7  N   UNL     1       0.819  -0.492   1.122  0.00  0.00    -0.297 N 
ATOM      8  C   UNL     1       1.304   0.365   2.042  0.00  0.00    +0.226 C 
ATOM      9  O   UNL     1       0.994   1.537   2.003  0.00  0.00    -0.275 OA
ENDROOT
BRANCH   5  10
ATOM     10  C   UNL     1       3.041  -1.781  -0.298  0.00  0.00    +0.215 C 
ATOM     11  O   UNL     1       3.242  -1.084  -1.270  0.00  0.00    -0.276 OA
ATOM     12  N   UNL     1       4.024  -1.982   0.602  0.00  0.00    -0.329 N 
ATOM     13  H   UNL     1       3.864  -2.539   1.379  0.00  0.00    +0.145 HD
ATOM     14  H   UNL     1       4.893  -1.570   0.471  0.00  0.00    +0.145 HD
ENDBRANCH   5  10
BRANCH   8  15
ATOM     15  C   UNL     1       2.232  -0.133   3.120  0.00  0.00    +0.172 C 
BRANCH  15  16
ATOM     16  S   UNL     1       2.707   1.249   4.195  0.00  0.00    -0.088 S 
BRANCH  16  17
ATOM     17  C   UNL     1       3.777   0.514   5.386  0.00  0.00    +0.159 A 
ATOM     18  N   UNL     1       4.181  -0.744   5.511  0.00  0.00    -0.135 NA
ATOM     19  N   UNL     1       4.959  -1.104   6.435  0.00  0.00    -0.149 NA
ATOM     20  C   UNL     1       5.421  -0.258   7.333  0.00  0.00    +0.182 A 
ATOM     21  S   UNL     1       4.640   1.252   6.771  0.00  0.00    -0.048 S 
ENDBRANCH  16  17
ENDBRANCH  15  16
ENDBRANCH   8  15
TORSDOF 4
