REMARK  Name = ZINC05028045
REMARK  4 active torsions:
REMARK  status: ('A' for Active; 'I' for Inactive)
REMARK    1  A    between atoms: C_1  and  C_2
REMARK    2  A    between atoms: C_9  and  C_12
REMARK    3  A    between atoms: C_12  and  C_25
REMARK    4  A    between atoms: C_13  and  C_14
REMARK                            x       y       z     vdW  Elec       q    Type
REMARK                         _______ _______ _______ _____ _____    ______ ____
ROOT
ATOM      1  C   UNL     1       0.310  -5.478   2.398  0.00  0.00    +0.095 C 
ATOM      2  C   UNL     1       0.199  -5.456   3.773  0.00  0.00    +0.032 C 
ENDROOT
BRANCH   1  11
ATOM      3  C   UNL     1       1.848   1.377   0.134  0.00  0.00    +0.044 C 
ATOM      4  C   UNL     1       1.503  -0.090   0.100  0.00  0.00    -0.048 A 
ATOM      5  C   UNL     1       1.316  -0.723  -1.121  0.00  0.00    +0.005 A 
ATOM      6  C   UNL     1       1.000  -2.064  -1.172  0.00  0.00    +0.028 A 
ATOM      7  C   UNL     1       0.868  -2.785   0.006  0.00  0.00    +0.066 A 
ATOM      8  C   UNL     1       1.057  -2.144   1.244  0.00  0.00    +0.090 A 
ATOM      9  C   UNL     1       1.382  -0.784   1.270  0.00  0.00    +0.033 A 
ATOM     10  N   UNL     1       0.869  -3.075   2.211  0.00  0.00    -0.227 NA
ATOM     11  C   UNL     1       0.580  -4.231   1.660  0.00  0.00    +0.150 A 
ATOM     12  N   UNL     1       0.567  -4.103   0.296  0.00  0.00    -0.337 N 
ATOM     13  H   UNL     1       0.381  -4.806  -0.347  0.00  0.00    +0.167 HD
ENDBRANCH   1  11
BRANCH   2  14
ATOM     14  C   UNL     1       0.185  -4.218   4.462  0.00  0.00    +0.001 A 
ATOM     15  C   UNL     1      -0.541  -3.094   4.130  0.00  0.00    +0.091 A 
ATOM     16  N   UNL     1      -0.290  -2.112   5.030  0.00  0.00    -0.360 N 
ATOM     17  H   UNL     1      -0.685  -1.226   5.006  0.00  0.00    +0.165 HD
ATOM     18  C   UNL     1       0.606  -2.547   5.985  0.00  0.00    +0.047 A 
ATOM     19  C   UNL     1       0.940  -3.877   5.684  0.00  0.00    +0.008 A 
ATOM     20  C   UNL     1       1.831  -4.575   6.494  0.00  0.00    +0.025 A 
ATOM     21  C   UNL     1       2.381  -3.955   7.596  0.00  0.00    +0.019 A 
ATOM     22  C   UNL     1       2.049  -2.642   7.898  0.00  0.00    +0.017 A 
ATOM     23  C   UNL     1       1.175  -1.937   7.099  0.00  0.00    +0.027 A 
ATOM     24 BR   UNL     1       3.592  -4.898   8.701  0.00  0.00    -0.050 Br
ENDBRANCH   2  14
BRANCH   1  25
ATOM     25  C   UNL     1       0.164  -6.713   1.687  0.00  0.00    +0.103 C 
ATOM     26  N   UNL     1       0.048  -7.692   1.124  0.00  0.00    -0.191 NA
ENDBRANCH   1  25
TORSDOF 3
