REMARK  Name = ZINC04868789
REMARK  5 active torsions:
REMARK  status: ('A' for Active; 'I' for Inactive)
REMARK    1  A    between atoms: C_1  and  C_2
REMARK    2  A    between atoms: C_3  and  C_24
REMARK    3  A    between atoms: C_7  and  N_8
REMARK    4  A    between atoms: C_9  and  C_11
REMARK    5  A    between atoms: C_11  and  N_12
REMARK                            x       y       z     vdW  Elec       q    Type
REMARK                         _______ _______ _______ _____ _____    ______ ____
ROOT
ATOM      1  N   UNL     1       0.076   2.490   4.719  0.00  0.00    -0.284 N 
ATOM      2  C   UNL     1      -0.537   3.020   5.796  0.00  0.00    +0.235 C 
ATOM      3  O   UNL     1      -1.736   3.207   5.780  0.00  0.00    -0.274 OA
ATOM      4  H   UNL     1       1.019   2.266   4.760  0.00  0.00    +0.155 HD
ENDROOT
BRANCH   1  11
ATOM      5  C   UNL     1       1.013   0.484   2.931  0.00  0.00    +0.046 C 
ATOM      6  C   UNL     1      -0.225   1.294   2.643  0.00  0.00    -0.025 A 
ATOM      7  C   UNL     1      -0.941   1.071   1.482  0.00  0.00    -0.032 A 
ATOM      8  C   UNL     1      -2.075   1.818   1.214  0.00  0.00    +0.021 A 
ATOM      9  C   UNL     1      -2.501   2.781   2.112  0.00  0.00    +0.017 A 
ATOM     10  C   UNL     1      -1.788   3.007   3.273  0.00  0.00    +0.024 A 
ATOM     11  C   UNL     1      -0.647   2.263   3.542  0.00  0.00    +0.037 A 
ATOM     12 BR   UNL     1      -3.048   1.517  -0.379  0.00  0.00    -0.050 Br
ATOM     13  C   UNL     1      -0.484   0.019   0.505  0.00  0.00    +0.045 C 
ENDBRANCH   1  11
BRANCH   2  14
ATOM     14  C   UNL     1       0.265   3.379   7.019  0.00  0.00    +0.209 C 
BRANCH  14  15
ATOM     15  N   UNL     1      -0.625   3.932   8.043  0.00  0.00    -0.257 N 
ATOM     16  C   UNL     1      -0.875   5.311   8.100  0.00  0.00    +0.079 A 
ATOM     17  C   UNL     1      -0.558   6.132   7.030  0.00  0.00    +0.027 A 
ATOM     18  C   UNL     1      -0.811   7.490   7.108  0.00  0.00    +0.002 A 
ATOM     19  C   UNL     1      -1.378   8.028   8.248  0.00  0.00    +0.004 A 
ATOM     20  C   UNL     1      -1.705   7.213   9.312  0.00  0.00    +0.047 A 
ATOM     21  C   UNL     1      -1.451   5.854   9.245  0.00  0.00    +0.143 A 
ATOM     22  O   UNL     1      -1.754   5.039  10.291  0.00  0.00    -0.481 OA
ATOM     23  C   UNL     1      -2.158   3.705   9.971  0.00  0.00    +0.325 C 
ATOM     24  C   UNL     1      -1.215   3.123   8.949  0.00  0.00    +0.258 C 
ATOM     25  O   UNL     1      -0.987   1.931   8.940  0.00  0.00    -0.271 OA
ENDBRANCH  14  15
ENDBRANCH   2  14
TORSDOF 3
