REMARK  Name = ZINC63454129
REMARK  4 active torsions:
REMARK  status: ('A' for Active; 'I' for Inactive)
REMARK    1  A    between atoms: C_2  and  C_14
REMARK    2  A    between atoms: C_3  and  N_11
REMARK    3  A    between atoms: N_18  and  C_22
REMARK    4  A    between atoms: C_22  and  C_23
REMARK                            x       y       z     vdW  Elec       q    Type
REMARK                         _______ _______ _______ _____ _____    ______ ____
ROOT
ATOM      1  C   UNL     1      -0.098   1.196   0.569  0.00  0.00    +0.059 A 
ATOM      2  C   UNL     1       1.121   1.847   0.344  0.00  0.00    +0.010 A 
ATOM      3  C   UNL     1       2.309   1.107   0.323  0.00  0.00    +0.137 A 
ATOM      4  C   UNL     1       2.274  -0.255   0.522  0.00  0.00    +0.082 A 
ATOM      5  C   UNL     1       1.064  -0.901   0.745  0.00  0.00    +0.164 A 
ATOM      6  C   UNL     1      -0.123  -0.171   0.770  0.00  0.00    +0.163 A 
ATOM      7  O   UNL     1      -1.315  -0.788   0.995  0.00  0.00    -0.485 OA
ATOM      8  C   UNL     1      -1.347  -2.209   0.822  0.00  0.00    +0.270 C 
ATOM      9  C   UNL     1      -0.122  -2.806   1.529  0.00  0.00    +0.270 C 
ATOM     10  O   UNL     1       1.055  -2.248   0.935  0.00  0.00    -0.485 OA
ENDROOT
BRANCH   2  11
ATOM     11  C   UNL     1       1.153   3.299   0.130  0.00  0.00    +0.030 C 
ATOM     12  C   UNL     1       0.099   3.923  -0.455  0.00  0.00    +0.077 C 
ATOM     13  C   UNL     1      -0.147   5.364  -0.659  0.00  0.00    +0.259 C 
ATOM     14  O   UNL     1       0.647   6.207  -0.287  0.00  0.00    -0.269 OA
ATOM     15  N   UNL     1      -1.275   5.692  -1.268  0.00  0.00    -0.244 N 
ATOM     16  C   UNL     1      -2.152   4.755  -1.679  0.00  0.00    +0.121 C 
ATOM     17  S   UNL     1      -3.650   4.977  -2.477  0.00  0.00    -0.027 S 
ATOM     18  S   UNL     1      -1.370   3.224  -1.197  0.00  0.00    -0.061 S 
BRANCH  15  19
ATOM     19  C   UNL     1      -1.577   7.107  -1.501  0.00  0.00    +0.240 C 
BRANCH  19  20
ATOM     20  C   UNL     1      -1.021   7.526  -2.837  0.00  0.00    +0.373 C 
ATOM     21  O   UNL     1      -0.427   6.718  -3.531  0.00  0.00    -0.245 OA
ATOM     22  O   UNL     1      -1.165   8.673  -3.225  0.00  0.00    -0.245 OA
ENDBRANCH  19  20
ENDBRANCH  15  19
ENDBRANCH   2  11
BRANCH   3  23
ATOM     23  N   UNL     1       3.602   1.788   0.087  0.00  0.00    +0.057 N 
ATOM     24  O   UNL     1       4.621   1.142   0.013  0.00  0.00    -0.126 OA
ATOM     25  O   UNL     1       3.639   2.991  -0.031  0.00  0.00    -0.126 OA
ENDBRANCH   3  23
TORSDOF 4
