REMARK  Name = ZINC37138118
REMARK  7 active torsions:
REMARK  status: ('A' for Active; 'I' for Inactive)
REMARK    1  A    between atoms: C_1  and  C_2
REMARK    2  A    between atoms: C_5  and  C_9
REMARK    3  A    between atoms: C_6  and  C_8
REMARK    4  A    between atoms: C_9  and  N_10
REMARK    5  A    between atoms: N_10  and  C_11
REMARK    6  A    between atoms: C_13  and  S_18
REMARK    7  A    between atoms: S_18  and  N_21
REMARK                            x       y       z     vdW  Elec       q    Type
REMARK                         _______ _______ _______ _____ _____    ______ ____
ROOT
ATOM      1  C   UNL     1      -1.526  -6.160   0.261  0.00  0.00    +0.048 A 
ATOM      2  C   UNL     1      -0.477  -7.049   0.073  0.00  0.00    +0.053 A 
ATOM      3  C   UNL     1      -0.711  -8.410   0.112  0.00  0.00    +0.107 A 
ATOM      4  C   UNL     1      -1.989  -8.888   0.337  0.00  0.00    +0.030 A 
ATOM      5  C   UNL     1      -3.037  -8.006   0.525  0.00  0.00    +0.024 A 
ATOM      6  C   UNL     1      -2.809  -6.643   0.493  0.00  0.00    +0.062 A 
ATOM      7 CL   UNL     1      -4.124  -5.536   0.736  0.00  0.00    -0.082 Cl
ENDROOT
BRANCH   3   8
ATOM      8  S   UNL     1       0.621  -9.539  -0.127  0.00  0.00    +0.056 S 
ATOM      9  O   UNL     1       0.046 -10.754  -0.586  0.00  0.00    -0.153 OA
ATOM     10  O   UNL     1       1.618  -8.841  -0.861  0.00  0.00    -0.153 OA
BRANCH   8  11
ATOM     11  N   UNL     1       1.268  -9.855   1.365  0.00  0.00    -0.204 NA
ATOM     12  H   UNL     1       1.680 -10.716   1.542  0.00  0.00    +0.144 HD
ATOM     13  H   UNL     1       1.234  -9.181   2.061  0.00  0.00    +0.144 HD
ENDBRANCH   8  11
ENDBRANCH   3   8
BRANCH   1  14
ATOM     14  N   UNL     1      -1.293  -4.782   0.223  0.00  0.00    -0.339 N 
ATOM     15  H   UNL     1      -2.026  -4.162   0.359  0.00  0.00    +0.146 HD
BRANCH  14  16
ATOM     16  C   UNL     1       0.059  -4.275  -0.021  0.00  0.00    +0.137 C 
BRANCH  16  21
ATOM     17  C   UNL     1      -0.018   1.503   0.010  0.00  0.00    +0.044 C 
ATOM     18  C   UNL     1       0.002  -0.004   0.002  0.00  0.00    -0.050 A 
ATOM     19  C   UNL     1       0.006  -0.689  -1.199  0.00  0.00    +0.004 A 
ATOM     20  C   UNL     1       0.025  -2.071  -1.207  0.00  0.00    +0.006 A 
ATOM     21  C   UNL     1       0.040  -2.768  -0.013  0.00  0.00    -0.027 A 
ATOM     22  C   UNL     1       0.037  -2.084   1.188  0.00  0.00    -0.046 A 
ATOM     23  C   UNL     1       0.023  -0.702   1.195  0.00  0.00    +0.007 A 
ATOM     24  C   UNL     1       0.054  -2.845   2.489  0.00  0.00    +0.044 C 
ENDBRANCH  16  21
ENDBRANCH  14  16
ENDBRANCH   1  14
TORSDOF 5
