REMARK  Name = ZINC39480731
REMARK  7 active torsions:
REMARK  status: ('A' for Active; 'I' for Inactive)
REMARK    1  A    between atoms: C_4  and  C_7
REMARK    2  A    between atoms: C_7  and  C_8
REMARK    3  A    between atoms: C_11  and  N_22
REMARK    4  A    between atoms: C_12  and  N_14
REMARK    5  A    between atoms: N_22  and  S_23
REMARK    6  A    between atoms: S_23  and  C_26
REMARK    7  A    between atoms: C_26  and  C_27
REMARK                            x       y       z     vdW  Elec       q    Type
REMARK                         _______ _______ _______ _____ _____    ______ ____
ROOT
ATOM      1  C   UNL     1       3.589  -1.020   1.601  0.00  0.00    -0.041 A 
ATOM      2  C   UNL     1       4.446  -0.067   2.119  0.00  0.00    +0.006 A 
ATOM      3  C   UNL     1       5.056  -0.272   3.343  0.00  0.00    +0.026 A 
ATOM      4  C   UNL     1       4.808  -1.437   4.055  0.00  0.00    +0.069 A 
ATOM      5  C   UNL     1       3.944  -2.398   3.532  0.00  0.00    +0.053 A 
ATOM      6  C   UNL     1       3.333  -2.182   2.306  0.00  0.00    +0.029 A 
ENDROOT
BRANCH   5   7
ATOM      7  N   UNL     1       3.690  -3.576   4.245  0.00  0.00    -0.330 N 
ATOM      8  C   UNL     1       2.578  -3.655   5.204  0.00  0.00    +0.086 C 
ATOM      9  C   UNL     1       3.115  -4.212   6.526  0.00  0.00    -0.060 C 
ATOM     10  N   UNL     1       3.794  -5.490   6.278  0.00  0.00    +0.400 N 
ATOM     11  C   UNL     1       4.974  -5.274   5.432  0.00  0.00    +0.119 C 
ATOM     12  C   UNL     1       4.525  -4.772   4.051  0.00  0.00    +0.120 C 
ATOM     13  O   UNL     1       5.685  -6.505   5.282  0.00  0.00    -0.250 OA
ATOM     14  H   UNL     1       4.081  -5.893   7.158  0.00  0.00    -0.082 HD
ATOM     15  H   UNL     1       3.159  -6.122   5.813  0.00  0.00    -0.082 HD
ENDBRANCH   5   7
BRANCH   4  16
ATOM     16  N   UNL     1       5.425  -1.647   5.294  0.00  0.00    -0.219 N 
ATOM     17  H   UNL     1       5.699  -2.540   5.554  0.00  0.00    +0.173 HD
BRANCH  16  18
ATOM     18  S   UNL     1       5.688  -0.370   6.315  0.00  0.00    +0.047 S 
ATOM     19  O   UNL     1       6.235  -0.952   7.490  0.00  0.00    -0.155 OA
ATOM     20  O   UNL     1       6.441   0.559   5.548  0.00  0.00    -0.155 OA
BRANCH  18  21
ATOM     21  C   UNL     1       4.037   0.299   6.660  0.00  0.00    +0.223 C 
BRANCH  21  22
ATOM     22  C   UNL     1       4.157   1.478   7.590  0.00  0.00    -0.025 A 
ATOM     23  C   UNL     1       4.117   1.286   8.959  0.00  0.00    +0.005 A 
ATOM     24  C   UNL     1       4.227   2.368   9.812  0.00  0.00    +0.000 A 
ATOM     25  C   UNL     1       4.377   3.642   9.297  0.00  0.00    +0.000 A 
ATOM     26  C   UNL     1       4.417   3.834   7.929  0.00  0.00    +0.000 A 
ATOM     27  C   UNL     1       4.312   2.752   7.075  0.00  0.00    +0.005 A 
ENDBRANCH  21  22
ENDBRANCH  18  21
ENDBRANCH  16  18
ENDBRANCH   4  16
BRANCH   1  28
ATOM     28  C   UNL     1       2.928  -0.790   0.267  0.00  0.00    +0.070 C 
BRANCH  28  32
ATOM     29  C   UNL     1      -0.791   1.229   0.848  0.00  0.00    +0.000 A 
ATOM     30  C   UNL     1       0.368   1.958   0.660  0.00  0.00    +0.000 A 
ATOM     31  C   UNL     1       1.572   1.304   0.472  0.00  0.00    +0.004 A 
ATOM     32  C   UNL     1       1.616  -0.077   0.472  0.00  0.00    -0.043 A 
ATOM     33  C   UNL     1       0.456  -0.806   0.661  0.00  0.00    +0.004 A 
ATOM     34  C   UNL     1      -0.748  -0.152   0.847  0.00  0.00    +0.000 A 
ENDBRANCH  28  32
ENDBRANCH   1  28
TORSDOF 7
