REMARK  Name = ZINC06679444
REMARK  3 active torsions:
REMARK  status: ('A' for Active; 'I' for Inactive)
REMARK    1  A    between atoms: C_4  and  N_7
REMARK    2  A    between atoms: N_15  and  C_18
REMARK    3  A    between atoms: C_18  and  C_19
REMARK                            x       y       z     vdW  Elec       q    Type
REMARK                         _______ _______ _______ _____ _____    ______ ____
ROOT
ATOM      1  N   UNL     1      -0.601  -4.184   1.222  0.00  0.00    -0.228 N 
ATOM      2  C   UNL     1      -0.002  -4.711   0.130  0.00  0.00    +0.275 A 
ATOM      3  O   UNL     1       0.657  -5.731   0.217  0.00  0.00    -0.266 OA
ATOM      4  C   UNL     1      -0.151  -4.066  -1.103  0.00  0.00    +0.101 A 
ATOM      5  C   UNL     1      -0.907  -2.898  -1.230  0.00  0.00    +0.066 A 
ATOM      6  C   UNL     1      -0.958  -2.372  -2.517  0.00  0.00    +0.034 A 
ATOM      7  C   UNL     1      -0.312  -2.997  -3.529  0.00  0.00    +0.048 A 
ATOM      8  S   UNL     1       0.422  -4.364  -2.753  0.00  0.00    -0.090 S 
ATOM      9  N   UNL     1      -1.492  -2.412  -0.048  0.00  0.00    -0.284 N 
ATOM     10  C   UNL     1      -1.326  -3.058   1.115  0.00  0.00    +0.337 A 
ATOM     11  O   UNL     1      -1.853  -2.606   2.114  0.00  0.00    -0.246 OA
ENDROOT
BRANCH   1  15
ATOM     12  C   UNL     1      -0.194  -6.057   4.923  0.00  0.00    +0.000 A 
ATOM     13  C   UNL     1      -1.240  -6.401   4.087  0.00  0.00    +0.002 A 
ATOM     14  C   UNL     1      -1.378  -5.782   2.860  0.00  0.00    +0.026 A 
ATOM     15  C   UNL     1      -0.464  -4.814   2.466  0.00  0.00    +0.054 A 
ATOM     16  C   UNL     1       0.588  -4.474   3.306  0.00  0.00    +0.026 A 
ATOM     17  C   UNL     1       0.717  -5.093   4.534  0.00  0.00    +0.002 A 
ENDBRANCH   1  15
BRANCH   9  18
ATOM     18  C   UNL     1      -2.296  -1.188  -0.089  0.00  0.00    +0.222 C 
BRANCH  18  19
ATOM     19  C   UNL     1      -1.410   0.004   0.161  0.00  0.00    +0.230 C 
ATOM     20  O   UNL     1      -0.223  -0.152   0.354  0.00  0.00    -0.274 OA
ATOM     21  N   UNL     1      -1.936   1.245   0.170  0.00  0.00    -0.328 N 
ATOM     22  H   UNL     1      -1.365   2.013   0.331  0.00  0.00    +0.145 HD
ATOM     23  H   UNL     1      -2.885   1.371   0.012  0.00  0.00    +0.145 HD
ENDBRANCH  18  19
ENDBRANCH   9  18
TORSDOF 3
