REMARK  Name = ZINC39357326
REMARK  6 active torsions:
REMARK  status: ('A' for Active; 'I' for Inactive)
REMARK    1  A    between atoms: C_1  and  C_2
REMARK    2  A    between atoms: C_5  and  C_17
REMARK    3  A    between atoms: C_6  and  C_16
REMARK    4  A    between atoms: N_8  and  C_9
REMARK    5  A    between atoms: C_18  and  C_19
REMARK    6  A    between atoms: C_18  and  C_21
REMARK                            x       y       z     vdW  Elec       q    Type
REMARK                         _______ _______ _______ _____ _____    ______ ____
ROOT
ATOM      1  C   UNL     1      -2.883  -2.155   1.473  0.00  0.00    +0.023 C 
ATOM      2  C   UNL     1      -4.056  -1.496   1.595  0.00  0.00    +0.072 C 
ENDROOT
BRANCH   2   3
ATOM      3  C   UNL     1      -4.172  -0.070   1.120  0.00  0.00    +0.216 C 
ATOM      4  N   UNL     1      -4.811   0.755   2.153  0.00  0.00    -0.359 N 
ATOM      5  C   UNL     1      -5.907   1.240   1.643  0.00  0.00    +0.060 A 
ATOM      6  C   UNL     1      -6.954   2.120   2.180  0.00  0.00    +0.027 A 
ATOM      7  C   UNL     1      -7.999   2.463   1.400  0.00  0.00    +0.002 A 
ATOM      8  C   UNL     1      -8.137   2.010   0.076  0.00  0.00    +0.002 A 
ATOM      9  C   UNL     1      -7.235   1.199  -0.513  0.00  0.00    +0.027 A 
ATOM     10  C   UNL     1      -6.053   0.760   0.242  0.00  0.00    +0.060 A 
ATOM     11  N   UNL     1      -5.042  -0.002  -0.061  0.00  0.00    -0.359 N 
ATOM     12  H   UNL     1      -4.478   0.910   3.051  0.00  0.00    +0.162 HD
ATOM     13  H   UNL     1      -4.891  -0.444  -0.911  0.00  0.00    +0.162 HD
ENDBRANCH   2   3
BRANCH   1  17
ATOM     14  C   UNL     1      -0.617   0.970  -1.224  0.00  0.00    +0.032 C 
ATOM     15  C   UNL     1      -0.473  -0.513  -0.875  0.00  0.00    +0.094 C 
ATOM     16  C   UNL     1      -1.814  -1.080  -0.489  0.00  0.00    +0.000 C 
ATOM     17  C   UNL     1      -1.766  -1.535   0.759  0.00  0.00    -0.028 C 
ATOM     18  C   UNL     1      -0.388  -1.316   1.327  0.00  0.00    +0.101 C 
ATOM     19  N   UNL     1       0.420  -0.670   0.280  0.00  0.00    -0.316 N 
ATOM     20  C   UNL     1      -0.471  -0.413   2.558  0.00  0.00    +0.033 C 
BRANCH  19  21
ATOM     21  C   UNL     1       1.760  -0.283   0.366  0.00  0.00    +0.049 A 
ATOM     22  C   UNL     1       2.091   0.986   0.822  0.00  0.00    +0.024 A 
ATOM     23  C   UNL     1       3.417   1.365   0.906  0.00  0.00    +0.002 A 
ATOM     24  C   UNL     1       4.415   0.482   0.537  0.00  0.00    +0.002 A 
ATOM     25  C   UNL     1       4.090  -0.783   0.082  0.00  0.00    +0.022 A 
ATOM     26  C   UNL     1       2.766  -1.171   0.001  0.00  0.00    +0.062 A 
ATOM     27 CL   UNL     1       2.359  -2.761  -0.563  0.00  0.00    -0.082 Cl
ENDBRANCH  19  21
ENDBRANCH   1  17
BRANCH   2  28
ATOM     28  C   UNL     1      -5.189  -2.151   2.176  0.00  0.00    +0.099 C 
ATOM     29  N   UNL     1      -6.087  -2.671   2.637  0.00  0.00    -0.191 NA
ENDBRANCH   2  28
TORSDOF 4
