REMARK  Name = ZINC31862005
REMARK  9 active torsions:
REMARK  status: ('A' for Active; 'I' for Inactive)
REMARK    1  A    between atoms: C_1  and  C_2
REMARK    2  A    between atoms: C_2  and  C_3
REMARK    3  A    between atoms: C_4  and  C_12
REMARK    4  A    between atoms: C_5  and  C_9
REMARK    5  A    between atoms: C_6  and  N_8
REMARK    6  A    between atoms: C_15  and  O_20
REMARK    7  A    between atoms: C_16  and  O_18
REMARK    8  A    between atoms: O_18  and  C_19
REMARK    9  A    between atoms: O_20  and  C_21
REMARK                            x       y       z     vdW  Elec       q    Type
REMARK                         _______ _______ _______ _____ _____    ______ ____
ROOT
ATOM      1  C   UNL     1      -3.091   2.931   1.152  0.00  0.00    -0.000 A 
ATOM      2  C   UNL     1      -1.911   2.270   1.259  0.00  0.00    +0.008 A 
ATOM      3  C   UNL     1      -1.252   1.905   0.018  0.00  0.00    +0.099 A 
ATOM      4  C   UNL     1      -1.892   2.273  -1.160  0.00  0.00    +0.078 A 
ATOM      5  S   UNL     1      -3.327   3.068  -0.608  0.00  0.00    -0.078 S 
ENDROOT
BRANCH   2   6
ATOM      6  C   UNL     1      -1.324   1.937   2.579  0.00  0.00    -0.013 A 
ATOM      7  C   UNL     1      -0.910   2.956   3.436  0.00  0.00    +0.012 A 
ATOM      8  C   UNL     1      -0.364   2.644   4.665  0.00  0.00    +0.050 A 
ATOM      9  C   UNL     1      -0.227   1.320   5.050  0.00  0.00    +0.162 A 
ATOM     10  C   UNL     1      -0.638   0.298   4.198  0.00  0.00    +0.162 A 
ATOM     11  C   UNL     1      -1.191   0.605   2.967  0.00  0.00    +0.058 A 
BRANCH  10  12
ATOM     12  O   UNL     1      -0.502  -1.001   4.578  0.00  0.00    -0.491 OA
ATOM     13  C   UNL     1      -0.945  -1.997   3.654  0.00  0.00    +0.277 C 
ENDBRANCH  10  12
BRANCH   9  14
ATOM     14  O   UNL     1       0.311   1.017   6.262  0.00  0.00    -0.491 OA
ATOM     15  C   UNL     1       0.711   2.114   7.086  0.00  0.00    +0.277 C 
ENDBRANCH   9  14
ENDBRANCH   2   6
BRANCH   4  16
ATOM     16  N   UNL     1      -1.482   2.054  -2.460  0.00  0.00    -0.352 N 
ATOM     17  H   UNL     1      -2.100   2.407  -3.299  0.00  0.00    +0.143 HD
ATOM     18  H   UNL     1      -0.537   1.527  -2.658  0.00  0.00    +0.143 HD
ENDBRANCH   4  16
BRANCH   3  19
ATOM     19  C   UNL     1      -0.014   1.213   0.009  0.00  0.00    +0.389 C 
ATOM     20  O   UNL     1       0.002  -0.004   0.002  0.00  0.00    -0.240 OA
ATOM     21  O   UNL     1       1.145   1.903   0.001  0.00  0.00    -0.240 OA
ENDBRANCH   3  19
BRANCH   1  23
ATOM     22  C   UNL     1      -3.586   4.856   2.635  0.00  0.00    +0.009 C 
ATOM     23  C   UNL     1      -3.987   3.429   2.256  0.00  0.00    +0.040 C 
ENDBRANCH   1  23
TORSDOF 6
