REMARK  Name = ZINC43757544
REMARK  6 active torsions:
REMARK  status: ('A' for Active; 'I' for Inactive)
REMARK    1  A    between atoms: C_1  and  C_2
REMARK    2  A    between atoms: C_2  and  C_4
REMARK    3  A    between atoms: C_4  and  O_29
REMARK    4  A    between atoms: C_9  and  C_28
REMARK    5  A    between atoms: C_20  and  C_27
REMARK    6  A    between atoms: C_23  and  O_26
REMARK                            x       y       z     vdW  Elec       q    Type
REMARK                         _______ _______ _______ _____ _____    ______ ____
ROOT
ATOM      1  C   UNL     1      -1.276  -0.742  -0.061  0.00  0.00    +0.129 C 
ATOM      2  C   UNL     1      -1.752  -0.930   1.405  0.00  0.00    +0.043 C 
ATOM      3  C   UNL     1      -1.641  -2.450   1.710  0.00  0.00    +0.008 C 
ATOM      4  C   UNL     1      -0.625  -2.917   0.654  0.00  0.00    +0.002 C 
ATOM      5  C   UNL     1      -1.133  -2.177  -0.601  0.00  0.00    +0.007 C 
ATOM      6  C   UNL     1      -0.191  -2.383  -1.753  0.00  0.00    +0.010 C 
ATOM      7  C   UNL     1       0.220  -3.858  -1.903  0.00  0.00    +0.005 C 
ATOM      8  C   UNL     1      -0.579  -4.797  -1.021  0.00  0.00    -0.001 C 
ATOM      9  C   UNL     1      -0.491  -4.392   0.449  0.00  0.00    -0.004 C 
ATOM     10  C   UNL     1      -1.506  -5.221   1.239  0.00  0.00    +0.004 C 
ATOM     11  C   UNL     1      -1.054  -6.686   1.155  0.00  0.00    +0.004 C 
ATOM     12  C   UNL     1      -1.019  -7.145  -0.300  0.00  0.00    -0.002 C 
ATOM     13  C   UNL     1      -0.118  -6.256  -1.157  0.00  0.00    -0.026 C 
ATOM     14  C   UNL     1       1.333  -6.406  -0.718  0.00  0.00    +0.010 C 
ATOM     15  C   UNL     1       1.785  -7.859  -0.856  0.00  0.00    +0.032 C 
ATOM     16  C   UNL     1       0.892  -8.790  -0.044  0.00  0.00    +0.115 C 
ATOM     17  C   UNL     1      -0.580  -8.603  -0.378  0.00  0.00    +0.035 C 
ATOM     18  C   UNL     1      -0.264  -6.672  -2.627  0.00  0.00    +0.012 C 
ATOM     19  C   UNL     1      -2.556  -2.606  -0.991  0.00  0.00    +0.015 C 
ENDROOT
BRANCH   1  21
ATOM     20  C   UNL     1       0.023   1.513  -0.152  0.00  0.00    +0.089 C 
ATOM     21  C   UNL     1       0.023   0.008  -0.087  0.00  0.00    +0.162 C 
ATOM     22  O   UNL     1       1.069  -0.595  -0.056  0.00  0.00    -0.295 OA
ENDBRANCH   1  21
BRANCH  16  23
ATOM     23  O   UNL     1       1.122  -8.601   1.352  0.00  0.00    -0.392 OA
ATOM     24  H   UNL     1       2.032  -8.776   1.628  0.00  0.00    +0.210 HD
ENDBRANCH  16  23
BRANCH   1  25
ATOM     25  O   UNL     1      -2.272  -0.046  -0.812  0.00  0.00    -0.381 OA
ATOM     26  H   UNL     1      -2.454   0.848  -0.491  0.00  0.00    +0.211 HD
ENDBRANCH   1  25
TORSDOF 3
