REMARK  Name = ZINC37191693
REMARK  5 active torsions:
REMARK  status: ('A' for Active; 'I' for Inactive)
REMARK    1  A    between atoms: C_1  and  C_2
REMARK    2  A    between atoms: C_2  and  C_4
REMARK    3  A    between atoms: C_2  and  S_13
REMARK    4  A    between atoms: S_13  and  C_14
REMARK    5  A    between atoms: C_17  and  N_20
REMARK                            x       y       z     vdW  Elec       q    Type
REMARK                         _______ _______ _______ _____ _____    ______ ____
ROOT
ATOM      1  C   UNL     1      -0.019   1.526   0.010  0.00  0.00    +0.029 C 
ATOM      2  C   UNL     1       0.002  -0.004   0.002  0.00  0.00    +0.136 C 
ENDROOT
BRANCH   2   3
ATOM      3  C   UNL     1       0.731  -0.503   1.223  0.00  0.00    +0.229 C 
ATOM      4  O   UNL     1       0.105  -0.891   2.187  0.00  0.00    -0.274 OA
ATOM      5  N   UNL     1       2.079  -0.519   1.244  0.00  0.00    -0.301 N 
ATOM      6  C   UNL     1       2.795  -0.044   0.082  0.00  0.00    +0.108 C 
ATOM      7  C   UNL     1       3.030  -1.219  -0.900  0.00  0.00    +0.019 C 
ATOM      8  C   UNL     1       4.032  -2.147  -0.354  0.00  0.00    +0.002 C 
ATOM      9  C   UNL     1       3.621  -2.822   0.951  0.00  0.00    +0.002 C 
ATOM     10  C   UNL     1       3.963  -1.919   2.110  0.00  0.00    +0.019 C 
ATOM     11  C   UNL     1       2.762  -1.014   2.455  0.00  0.00    +0.108 C 
ENDBRANCH   2   3
BRANCH   2  12
ATOM     12  S   UNL     1      -1.700  -0.632   0.015  0.00  0.00    -0.093 S 
BRANCH  12  13
ATOM     13  C   UNL     1      -2.365  -0.093  -1.525  0.00  0.00    +0.098 A 
ATOM     14  C   UNL     1      -3.682  -0.402  -1.852  0.00  0.00    +0.036 A 
ATOM     15  C   UNL     1      -4.193   0.026  -3.063  0.00  0.00    +0.027 A 
ATOM     16  C   UNL     1      -3.364   0.754  -3.915  0.00  0.00    +0.043 A 
ATOM     17  C   UNL     1      -2.062   1.024  -3.523  0.00  0.00    +0.134 A 
ATOM     18  N   UNL     1      -1.607   0.605  -2.357  0.00  0.00    -0.247 NA
BRANCH  16  19
ATOM     19  N   UNL     1      -3.840   1.206  -5.152  0.00  0.00    -0.357 N 
ATOM     20  H   UNL     1      -4.752   1.014  -5.420  0.00  0.00    +0.142 HD
ATOM     21  H   UNL     1      -3.258   1.712  -5.740  0.00  0.00    +0.142 HD
ENDBRANCH  16  19
ENDBRANCH  12  13
ENDBRANCH   2  12
TORSDOF 4
