REMARK  Name = ZINC51035952
REMARK  5 active torsions:
REMARK  status: ('A' for Active; 'I' for Inactive)
REMARK    1  A    between atoms: C_1  and  C_2
REMARK    2  A    between atoms: C_2  and  C_4
REMARK    3  A    between atoms: C_2  and  S_11
REMARK    4  A    between atoms: C_7  and  N_10
REMARK    5  A    between atoms: S_11  and  C_12
REMARK                            x       y       z     vdW  Elec       q    Type
REMARK                         _______ _______ _______ _____ _____    ______ ____
ROOT
ATOM      1  C   UNL     1      -0.019   1.526   0.010  0.00  0.00    +0.024 C 
ATOM      2  C   UNL     1       0.002  -0.004   0.002  0.00  0.00    +0.080 C 
ENDROOT
BRANCH   2   3
ATOM      3  C   UNL     1      -1.412  -0.526   0.013  0.00  0.00    -0.034 A 
ATOM      4  C   UNL     1      -2.275  -0.201  -1.018  0.00  0.00    +0.006 A 
ATOM      5  C   UNL     1      -3.571  -0.678  -1.012  0.00  0.00    +0.023 A 
ATOM      6  C   UNL     1      -4.008  -1.483   0.032  0.00  0.00    +0.025 A 
ATOM      7  C   UNL     1      -3.138  -1.807   1.066  0.00  0.00    +0.023 A 
ATOM      8  C   UNL     1      -1.842  -1.332   1.050  0.00  0.00    +0.006 A 
BRANCH   6   9
ATOM      9  N   UNL     1      -5.318  -1.966   0.043  0.00  0.00    -0.358 N 
ATOM     10  H   UNL     1      -5.924  -1.739  -0.680  0.00  0.00    +0.142 HD
ATOM     11  H   UNL     1      -5.622  -2.529   0.772  0.00  0.00    +0.142 HD
ENDBRANCH   6   9
ENDBRANCH   2   3
BRANCH   2  12
ATOM     12  S   UNL     1       0.851  -0.589  -1.490  0.00  0.00    -0.096 S 
BRANCH  12  13
ATOM     13  C   UNL     1       2.509  -0.029  -1.285  0.00  0.00    +0.126 A 
ATOM     14  C   UNL     1       3.477  -0.291  -2.257  0.00  0.00    +0.117 A 
ATOM     15  C   UNL     1       4.784   0.177  -2.049  0.00  0.00    +0.182 A 
ATOM     16  N   UNL     1       5.510  -0.202  -3.117  0.00  0.00    -0.216 NA
ATOM     17  H   UNL     1       2.741  -1.378  -3.902  0.00  0.00    +0.167 HD
ATOM     18  C   UNL     1       4.755  -0.859  -3.953  0.00  0.00    +0.199 A 
ATOM     19  N   UNL     1       3.494  -0.942  -3.472  0.00  0.00    -0.341 N 
ATOM     20  N   UNL     1       5.051   0.855  -0.927  0.00  0.00    -0.214 NA
ATOM     21  C   UNL     1       4.107   1.078  -0.040  0.00  0.00    +0.224 A 
ATOM     22  N   UNL     1       2.866   0.659  -0.203  0.00  0.00    -0.227 NA
ENDBRANCH  12  13
ENDBRANCH   2  12
TORSDOF 4
