REMARK  Name = ZINC22645584
REMARK  7 active torsions:
REMARK  status: ('A' for Active; 'I' for Inactive)
REMARK    1  A    between atoms: C_1  and  C_2
REMARK    2  A    between atoms: C_4  and  C_23
REMARK    3  A    between atoms: C_5  and  N_9
REMARK    4  A    between atoms: C_10  and  C_12
REMARK    5  A    between atoms: C_12  and  C_14
REMARK    6  A    between atoms: C_12  and  S_15
REMARK    7  A    between atoms: S_15  and  C_16
REMARK                            x       y       z     vdW  Elec       q    Type
REMARK                         _______ _______ _______ _____ _____    ______ ____
ROOT
ATOM      1  N   UNL     1       1.240  -2.079  -0.009  0.00  0.00    -0.283 N 
ATOM      2  C   UNL     1       0.100  -2.771  -0.207  0.00  0.00    +0.230 C 
ATOM      3  O   UNL     1      -0.929  -2.183  -0.466  0.00  0.00    -0.274 OA
ATOM      4  H   UNL     1       2.188  -2.615   0.145  0.00  0.00    +0.155 HD
ENDROOT
BRANCH   1   9
ATOM      5  C   UNL     1       1.145   3.594   0.032  0.00  0.00    +0.044 C 
ATOM      6  C   UNL     1       1.170   2.087   0.021  0.00  0.00    -0.049 A 
ATOM      7  C   UNL     1       1.022   1.386   1.203  0.00  0.00    +0.008 A 
ATOM      8  C   UNL     1       1.045   0.005   1.197  0.00  0.00    -0.028 A 
ATOM      9  C   UNL     1       1.217  -0.680   0.001  0.00  0.00    +0.055 A 
ATOM     10  C   UNL     1       1.365   0.028  -1.186  0.00  0.00    +0.063 A 
ATOM     11  C   UNL     1       1.341   1.410  -1.172  0.00  0.00    +0.025 A 
ATOM     12 CL   UNL     1       1.579  -0.823  -2.684  0.00  0.00    -0.082 Cl
ATOM     13  C   UNL     1       0.884  -0.758   2.486  0.00  0.00    +0.046 C 
ENDBRANCH   1   9
BRANCH   2  14
ATOM     14  C   UNL     1       0.103  -4.274  -0.105  0.00  0.00    +0.137 C 
ATOM     15  C   UNL     1       0.646  -4.872  -1.405  0.00  0.00    +0.029 C 
BRANCH  14  16
ATOM     16  S   UNL     1      -1.589  -4.865   0.171  0.00  0.00    -0.072 S 
BRANCH  16  17
ATOM     17  C   UNL     1      -1.401  -6.601   0.413  0.00  0.00    +0.211 A 
ATOM     18  N   UNL     1      -2.406  -7.491   0.668  0.00  0.00    -0.188 NA
ATOM     19  H   UNL     1       0.259  -9.354   0.644  0.00  0.00    +0.192 HD
ATOM     20  C   UNL     1      -1.850  -8.732   0.791  0.00  0.00    +0.209 A 
ATOM     21  N   UNL     1      -0.556  -8.615   0.623  0.00  0.00    -0.246 N 
ATOM     22  N   UNL     1      -0.271  -7.265   0.380  0.00  0.00    -0.144 NA
ATOM     23  N   UNL     1      -2.536  -9.912   1.049  0.00  0.00    -0.328 N 
ATOM     24  H   UNL     1      -1.986 -10.861   1.129  0.00  0.00    +0.145 HD
ATOM     25  H   UNL     1      -3.628  -9.897   1.174  0.00  0.00    +0.145 HD
ENDBRANCH  16  17
ENDBRANCH  14  16
ENDBRANCH   2  14
TORSDOF 4
