REMARK  Name = ZINC06831583
REMARK  7 active torsions:
REMARK  status: ('A' for Active; 'I' for Inactive)
REMARK    1  A    between atoms: C_1  and  C_2
REMARK    2  A    between atoms: C_2  and  C_4
REMARK    3  A    between atoms: C_2  and  N_12
REMARK    4  A    between atoms: N_12  and  C_13
REMARK    5  A    between atoms: C_16  and  N_23
REMARK    6  A    between atoms: C_18  and  S_19
REMARK    7  A    between atoms: S_19  and  N_22
REMARK                            x       y       z     vdW  Elec       q    Type
REMARK                         _______ _______ _______ _____ _____    ______ ____
ROOT
ATOM      1  C   UNL     1      -2.891  -0.282  -1.075  0.00  0.00    +0.054 A 
ATOM      2  C   UNL     1      -3.899  -1.238  -1.072  0.00  0.00    +0.027 A 
ATOM      3  C   UNL     1      -4.739  -1.349   0.018  0.00  0.00    +0.034 A 
ATOM      4  C   UNL     1      -4.579  -0.510   1.105  0.00  0.00    +0.128 A 
ATOM      5  C   UNL     1      -3.573   0.439   1.107  0.00  0.00    +0.063 A 
ATOM      6  C   UNL     1      -2.733   0.560   0.018  0.00  0.00    +0.128 A 
ENDROOT
BRANCH   6   7
ATOM      7  S   UNL     1      -1.456   1.774   0.019  0.00  0.00    +0.058 S 
ATOM      8  O   UNL     1      -1.536   2.446   1.268  0.00  0.00    -0.153 OA
ATOM      9  O   UNL     1      -1.548   2.460  -1.223  0.00  0.00    -0.153 OA
BRANCH   7  10
ATOM     10  N   UNL     1      -0.011   0.966   0.007  0.00  0.00    -0.203 NA
ATOM     11  H   UNL     1       0.002  -0.004   0.002  0.00  0.00    +0.144 HD
ATOM     12  H   UNL     1       0.822   1.462   0.002  0.00  0.00    +0.144 HD
ENDBRANCH   7  10
ENDBRANCH   6   7
BRANCH   4  13
ATOM     13  N   UNL     1      -5.481  -0.632   2.272  0.00  0.00    +0.056 N 
ATOM     14  O   UNL     1      -6.364  -1.470   2.274  0.00  0.00    -0.126 OA
ATOM     15  O   UNL     1      -5.341   0.107   3.230  0.00  0.00    -0.126 OA
ENDBRANCH   4  13
BRANCH   1  16
ATOM     16  N   UNL     1      -2.040  -0.167  -2.177  0.00  0.00    -0.336 N 
ATOM     17  H   UNL     1      -1.337   0.502  -2.178  0.00  0.00    +0.147 HD
BRANCH  16  19
ATOM     18  C   UNL     1      -1.463  -2.367  -3.075  0.00  0.00    +0.033 C 
ATOM     19  C   UNL     1      -2.208  -1.055  -3.329  0.00  0.00    +0.099 C 
BRANCH  19  20
ATOM     20  C   UNL     1      -1.651  -0.391  -4.561  0.00  0.00    -0.009 A 
ATOM     21  C   UNL     1      -0.672   0.579  -4.441  0.00  0.00    +0.008 A 
ATOM     22  C   UNL     1      -0.156   1.184  -5.571  0.00  0.00    +0.020 A 
ATOM     23  C   UNL     1      -0.627   0.829  -6.823  0.00  0.00    +0.042 A 
ATOM     24  C   UNL     1      -1.610  -0.136  -6.944  0.00  0.00    +0.040 A 
ATOM     25  C   UNL     1      -2.122  -0.746  -5.812  0.00  0.00    +0.047 A 
ATOM     26 CL   UNL     1      -3.356  -1.959  -5.963  0.00  0.00    -0.083 Cl
ATOM     27 CL   UNL     1       0.017   1.595  -8.242  0.00  0.00    -0.083 Cl
ENDBRANCH  19  20
ENDBRANCH  16  19
ENDBRANCH   1  16
TORSDOF 6
