REMARK  Name = ZINC12505374
REMARK  6 active torsions:
REMARK  status: ('A' for Active; 'I' for Inactive)
REMARK    1  A    between atoms: C_1  and  C_2
REMARK    2  A    between atoms: C_2  and  C_3
REMARK    3  A    between atoms: C_2  and  C_4
REMARK    4  A    between atoms: C_2  and  C_5
REMARK    5  A    between atoms: C_7  and  N_18
REMARK    6  A    between atoms: N_8  and  C_10
REMARK                            x       y       z     vdW  Elec       q    Type
REMARK                         _______ _______ _______ _____ _____    ______ ____
ROOT
ATOM      1  C   UNL     1       1.308   1.803  -0.001  0.00  0.00    +0.070 A 
ATOM      2  C   UNL     1      -0.016   1.357   0.009  0.00  0.00    +0.068 A 
ATOM      3  C   UNL     1       0.002  -0.004   0.002  0.00  0.00    +0.115 A 
ATOM      4  N   UNL     1       1.297  -0.395  -0.012  0.00  0.00    -0.246 N 
ATOM      5  N   UNL     1       2.094   0.757  -0.014  0.00  0.00    -0.174 NA
ENDROOT
BRANCH   4   6
ATOM      6  C   UNL     1       1.780  -1.777  -0.025  0.00  0.00    +0.132 C 
ATOM      7  C   UNL     1       2.673  -2.026   1.202  0.00  0.00    +0.051 C 
ATOM      8  C   UNL     1       3.439  -3.361   1.036  0.00  0.00    +0.168 C 
ATOM      9  S   UNL     1       3.579  -3.521  -0.791  0.00  0.00    -0.029 S 
ATOM     10  O   UNL     1       2.872  -4.681  -1.209  0.00  0.00    -0.174 OA
ATOM     11  O   UNL     1       4.939  -3.358  -1.167  0.00  0.00    -0.174 OA
ATOM     12  C   UNL     1       2.632  -2.025  -1.302  0.00  0.00    +0.192 C 
ENDBRANCH   4   6
BRANCH   1  14
ATOM     13  C   UNL     1       1.563   3.833   1.401  0.00  0.00    +0.017 C 
ATOM     14  C   UNL     1       1.755   3.242   0.003  0.00  0.00    +0.006 C 
ATOM     15  C   UNL     1       3.233   3.318  -0.384  0.00  0.00    +0.017 C 
ATOM     16  C   UNL     1       0.923   4.037  -1.005  0.00  0.00    +0.017 C 
ENDBRANCH   1  14
BRANCH   3  17
ATOM     17  N   UNL     1      -1.110  -0.842   0.008  0.00  0.00    -0.343 N 
ATOM     18  H   UNL     1      -2.002  -0.463   0.019  0.00  0.00    +0.144 HD
ATOM     19  H   UNL     1      -0.992  -1.805   0.002  0.00  0.00    +0.144 HD
ENDBRANCH   3  17
TORSDOF 3
