REMARK  Name = ZINC39695099
REMARK  5 active torsions:
REMARK  status: ('A' for Active; 'I' for Inactive)
REMARK    1  A    between atoms: C_1  and  C_2
REMARK    2  A    between atoms: C_3  and  C_9
REMARK    3  A    between atoms: C_9  and  N_10
REMARK    4  A    between atoms: C_11  and  C_13
REMARK    5  A    between atoms: C_24  and  C_26
REMARK                            x       y       z     vdW  Elec       q    Type
REMARK                         _______ _______ _______ _____ _____    ______ ____
ROOT
ATOM      1  C   UNL     1       2.959   1.739  -4.246  0.00  0.00    +0.100 C 
ATOM      2  C   UNL     1       3.941   0.548  -4.324  0.00  0.00    +0.121 C 
ATOM      3  N   UNL     1       4.002   0.207  -5.764  0.00  0.00    -0.297 N 
ATOM      4  C   UNL     1       3.994   1.519  -6.455  0.00  0.00    +0.115 C 
ATOM      5  C   UNL     1       2.999   2.376  -5.646  0.00  0.00    -0.004 C 
ATOM      6  C   UNL     1       1.617   2.326  -6.288  0.00  0.00    -0.010 C 
ATOM      7  C   UNL     1       1.669   3.015  -7.655  0.00  0.00    -0.082 C 
ATOM      8  N   UNL     1       2.103   4.407  -7.486  0.00  0.00    +0.379 N 
ATOM      9  C   UNL     1       3.470   4.445  -6.954  0.00  0.00    -0.082 C 
ATOM     10  C   UNL     1       3.494   3.816  -5.558  0.00  0.00    -0.010 C 
ATOM     11  C   UNL     1       4.055  -1.019  -6.321  0.00  0.00    +0.260 C 
ATOM     12  O   UNL     1       4.102  -1.136  -7.528  0.00  0.00    -0.271 OA
ATOM     13  H   UNL     1       2.078   4.876  -8.379  0.00  0.00    -0.086 HD
ATOM     14  H   UNL     1       1.481   4.877  -6.846  0.00  0.00    -0.086 HD
ENDROOT
BRANCH  11  15
ATOM     15  C   UNL     1       4.054  -2.245  -5.445  0.00  0.00    +0.296 C 
ATOM     16  C   UNL     1       5.341  -2.286  -4.610  0.00  0.00    +0.283 C 
ATOM     17  O   UNL     1       5.314  -3.467  -3.802  0.00  0.00    -0.484 OA
ATOM     18  C   UNL     1       4.957  -4.625  -4.423  0.00  0.00    +0.162 A 
ATOM     19  C   UNL     1       5.252  -5.839  -3.821  0.00  0.00    +0.049 A 
ATOM     20  C   UNL     1       4.893  -7.023  -4.437  0.00  0.00    +0.004 A 
ATOM     21  C   UNL     1       4.238  -7.000  -5.655  0.00  0.00    +0.004 A 
ATOM     22  C   UNL     1       3.943  -5.793  -6.261  0.00  0.00    +0.049 A 
ATOM     23  C   UNL     1       4.302  -4.602  -5.648  0.00  0.00    +0.163 A 
ATOM     24  O   UNL     1       4.010  -3.421  -6.261  0.00  0.00    -0.473 OA
ENDBRANCH  11  15
BRANCH   1  26
ATOM     25  N   UNL     1       0.709   2.054  -3.269  0.00  0.00    -0.311 N 
ATOM     26  C   UNL     1       1.568   1.253  -3.930  0.00  0.00    +0.218 C 
ATOM     27  O   UNL     1       1.222   0.142  -4.271  0.00  0.00    -0.275 OA
ATOM     28  H   UNL     1       0.986   2.942  -2.997  0.00  0.00    +0.149 HD
BRANCH  25  29
ATOM     29  C   UNL     1      -0.643   1.581  -2.962  0.00  0.00    +0.139 C 
BRANCH  29  32
ATOM     30  C   UNL     1      -1.820   3.780  -4.421  0.00  0.00    +0.045 C 
ATOM     31  C   UNL     1      -1.959   3.710  -2.922  0.00  0.00    -0.027 A 
ATOM     32  C   UNL     1      -1.396   2.658  -2.224  0.00  0.00    -0.026 A 
ATOM     33  C   UNL     1      -1.524   2.593  -0.849  0.00  0.00    +0.005 A 
ATOM     34  C   UNL     1      -2.215   3.581  -0.171  0.00  0.00    +0.002 A 
ATOM     35  C   UNL     1      -2.778   4.633  -0.868  0.00  0.00    +0.020 A 
ATOM     36  C   UNL     1      -2.646   4.701  -2.244  0.00  0.00    +0.044 A 
ATOM     37 CL   UNL     1      -3.348   6.026  -3.119  0.00  0.00    -0.083 Cl
ENDBRANCH  29  32
ENDBRANCH  25  29
ENDBRANCH   1  26
TORSDOF 4
