REMARK  Name = ZINC43132644
REMARK  4 active torsions:
REMARK  status: ('A' for Active; 'I' for Inactive)
REMARK    1  A    between atoms: C_1  and  C_2
REMARK    2  A    between atoms: C_6  and  C_7
REMARK    3  A    between atoms: C_7  and  N_8
REMARK    4  A    between atoms: N_11  and  C_12
REMARK                            x       y       z     vdW  Elec       q    Type
REMARK                         _______ _______ _______ _____ _____    ______ ____
ROOT
ATOM      1  N   UNL     1      -1.349  -0.013   3.048  0.00  0.00    -0.295 N 
ATOM      2  C   UNL     1      -1.589   0.431   4.297  0.00  0.00    +0.304 C 
ATOM      3  O   UNL     1      -0.661   0.712   5.032  0.00  0.00    -0.252 OA
ATOM      4  N   UNL     1      -2.857   0.564   4.733  0.00  0.00    -0.268 N 
ATOM      5  H   UNL     1      -2.089  -0.237   2.462  0.00  0.00    +0.151 HD
ATOM      6  H   UNL     1      -3.598   0.402   4.127  0.00  0.00    +0.156 HD
ENDROOT
BRANCH   4   7
ATOM      7  C   UNL     1      -3.107   0.934   6.060  0.00  0.00    +0.049 A 
ATOM      8  C   UNL     1      -2.252   1.816   6.708  0.00  0.00    +0.024 A 
ATOM      9  C   UNL     1      -2.501   2.180   8.017  0.00  0.00    +0.002 A 
ATOM     10  C   UNL     1      -3.600   1.667   8.682  0.00  0.00    +0.001 A 
ATOM     11  C   UNL     1      -4.452   0.788   8.040  0.00  0.00    +0.017 A 
ATOM     12  C   UNL     1      -4.212   0.424   6.729  0.00  0.00    +0.039 A 
ATOM     13 BR   UNL     1      -5.383  -0.772   5.849  0.00  0.00    -0.048 Br
ENDBRANCH   4   7
BRANCH   1  14
ATOM     14  C   UNL     1       0.030  -0.157   2.574  0.00  0.00    +0.148 C 
BRANCH  14  20
ATOM     15  C   UNL     1      -0.022   1.543   0.016  0.00  0.00    +0.044 C 
ATOM     16  C   UNL     1       0.001   0.036  -0.003  0.00  0.00    -0.039 A 
ATOM     17  C   UNL     1       0.006  -0.650  -1.203  0.00  0.00    +0.011 A 
ATOM     18  C   UNL     1       0.027  -2.005  -1.185  0.00  0.00    +0.046 A 
ATOM     19  S   UNL     1       0.041  -2.351   0.566  0.00  0.00    -0.100 S 
ATOM     20  C   UNL     1       0.023  -0.666   1.156  0.00  0.00    +0.010 A 
ENDBRANCH  14  20
ENDBRANCH   1  14
TORSDOF 3
