REMARK  Name = ZINC13417664
REMARK  7 active torsions:
REMARK  status: ('A' for Active; 'I' for Inactive)
REMARK    1  A    between atoms: C_2  and  C_3
REMARK    2  A    between atoms: C_3  and  N_4
REMARK    3  A    between atoms: C_5  and  C_22
REMARK    4  A    between atoms: C_8  and  S_9
REMARK    5  A    between atoms: S_9  and  C_10
REMARK    6  A    between atoms: C_10  and  C_11
REMARK    7  A    between atoms: C_18  and  C_20
REMARK                            x       y       z     vdW  Elec       q    Type
REMARK                         _______ _______ _______ _____ _____    ______ ____
ROOT
ATOM      1  N   UNL     1      -9.406   3.985  -3.020  0.00  0.00    -0.299 N 
ATOM      2  C   UNL     1      -9.089   2.730  -2.577  0.00  0.00    +0.179 A 
ATOM      3  N   UNL     1      -9.173   2.745  -1.277  0.00  0.00    -0.129 NA
ATOM      4  N   UNL     1      -9.510   3.917  -0.870  0.00  0.00    -0.122 NA
ATOM      5  C   UNL     1      -9.670   4.717  -1.898  0.00  0.00    +0.192 A 
ENDROOT
BRANCH   2   6
ATOM      6  C   UNL     1      -8.717   1.548  -3.435  0.00  0.00    +0.278 C 
ATOM      7  C   UNL     1      -7.210   1.280  -3.322  0.00  0.00    +0.281 C 
ATOM      8  O   UNL     1      -6.895   0.145  -4.135  0.00  0.00    -0.484 OA
ATOM      9  C   UNL     1      -7.715  -0.936  -4.023  0.00  0.00    +0.162 A 
ATOM     10  C   UNL     1      -7.285  -2.168  -4.492  0.00  0.00    +0.049 A 
ATOM     11  C   UNL     1      -8.109  -3.273  -4.392  0.00  0.00    +0.004 A 
ATOM     12  C   UNL     1      -9.363  -3.153  -3.824  0.00  0.00    +0.004 A 
ATOM     13  C   UNL     1      -9.800  -1.927  -3.359  0.00  0.00    +0.049 A 
ATOM     14  C   UNL     1      -8.975  -0.816  -3.450  0.00  0.00    +0.163 A 
ATOM     15  O   UNL     1      -9.415   0.383  -2.980  0.00  0.00    -0.474 OA
ENDBRANCH   2   6
BRANCH   1  16
ATOM     16  C   UNL     1      -9.452   4.447  -4.409  0.00  0.00    +0.152 C 
BRANCH  16  18
ATOM     17  C   UNL     1     -11.497   5.236  -5.485  0.00  0.00    +0.005 C 
ATOM     18  C   UNL     1     -10.837   4.232  -4.964  0.00  0.00    -0.013 C 
ENDBRANCH  16  18
ENDBRANCH   1  16
BRANCH   5  19
ATOM     19  S   UNL     1     -10.136   6.415  -1.841  0.00  0.00    -0.077 S 
BRANCH  19  20
ATOM     20  C   UNL     1     -10.299   6.637  -0.052  0.00  0.00    +0.173 C 
BRANCH  20  21
ATOM     21  C   UNL     1     -10.704   8.058   0.243  0.00  0.00    +0.227 C 
ATOM     22  O   UNL     1     -10.866   8.844  -0.666  0.00  0.00    -0.275 OA
ATOM     23  N   UNL     1     -10.885   8.456   1.518  0.00  0.00    -0.287 N 
ATOM     24  C   UNL     1     -10.828   7.486   2.620  0.00  0.00    +0.108 C 
ATOM     25  C   UNL     1      -9.811   7.985   3.658  0.00  0.00    +0.019 C 
ATOM     26  C   UNL     1     -10.186   9.405   4.089  0.00  0.00    +0.004 C 
ATOM     27  C   UNL     1     -10.135  10.338   2.877  0.00  0.00    +0.034 C 
ATOM     28  C   UNL     1     -11.150   9.867   1.831  0.00  0.00    +0.189 C 
BRANCH  28  29
ATOM     29  C   UNL     1     -11.013  10.696   0.581  0.00  0.00    +0.376 C 
ATOM     30  O   UNL     1      -9.955  10.743  -0.001  0.00  0.00    -0.244 OA
ATOM     31  O   UNL     1     -12.067  11.383   0.113  0.00  0.00    -0.244 OA
ENDBRANCH  28  29
ENDBRANCH  20  21
ENDBRANCH  19  20
ENDBRANCH   5  19
TORSDOF 7
