REMARK  Name = ZINC06434772
REMARK  7 active torsions:
REMARK  status: ('A' for Active; 'I' for Inactive)
REMARK    1  A    between atoms: C_1  and  O_2
REMARK    2  A    between atoms: O_2  and  C_3
REMARK    3  A    between atoms: C_6  and  S_23
REMARK    4  A    between atoms: C_8  and  C_9
REMARK    5  A    between atoms: N_11  and  C_12
REMARK    6  A    between atoms: C_16  and  C_18
REMARK    7  A    between atoms: S_23  and  N_26
REMARK                            x       y       z     vdW  Elec       q    Type
REMARK                         _______ _______ _______ _____ _____    ______ ____
ROOT
ATOM      1  C   UNL     1      -0.013  -2.830  -0.015  0.00  0.00    +0.252 C 
ATOM      2  O   UNL     1       1.066  -2.270  -0.030  0.00  0.00    -0.270 OA
ATOM      3  N   UNL     1      -0.073  -4.177  -0.020  0.00  0.00    -0.281 N 
ATOM      4  H   UNL     1      -0.930  -4.624   0.060  0.00  0.00    +0.155 HD
ENDROOT
BRANCH   3   5
ATOM      5  C   UNL     1       1.100  -4.929  -0.141  0.00  0.00    +0.034 A 
ATOM      6  C   UNL     1       2.277  -4.482   0.447  0.00  0.00    +0.025 A 
ATOM      7  C   UNL     1       3.433  -5.227   0.327  0.00  0.00    +0.022 A 
ATOM      8  C   UNL     1       3.421  -6.417  -0.379  0.00  0.00    +0.053 A 
ATOM      9  C   UNL     1       2.250  -6.865  -0.966  0.00  0.00    +0.075 A 
ATOM     10  C   UNL     1       1.089  -6.127  -0.843  0.00  0.00    +0.037 A 
ATOM     11 CL   UNL     1       4.877  -7.350  -0.530  0.00  0.00    -0.083 Cl
BRANCH   9  12
ATOM     12  C   UNL     1       2.241  -8.162  -1.733  0.00  0.00    +0.419 C 
ATOM     13  F   UNL     1       0.954  -8.401  -2.228  0.00  0.00    -0.166 F 
ATOM     14  F   UNL     1       3.143  -8.079  -2.799  0.00  0.00    -0.166 F 
ATOM     15  F   UNL     1       2.616  -9.209  -0.885  0.00  0.00    -0.166 F 
ENDBRANCH   9  12
ENDBRANCH   3   5
BRANCH   1  21
ATOM     16  C   UNL     1      -1.198  -0.636   0.015  0.00  0.00    +0.132 A 
ATOM     17  C   UNL     1      -2.374   0.100   0.032  0.00  0.00    +0.048 A 
ATOM     18  C   UNL     1      -3.594  -0.545   0.049  0.00  0.00    +0.032 A 
ATOM     19  C   UNL     1      -3.656  -1.929   0.049  0.00  0.00    +0.106 A 
ATOM     20  C   UNL     1      -2.498  -2.676   0.033  0.00  0.00    +0.045 A 
ATOM     21  C   UNL     1      -1.256  -2.037   0.009  0.00  0.00    +0.080 A 
BRANCH  19  22
ATOM     22  S   UNL     1      -5.221  -2.738   0.071  0.00  0.00    +0.056 S 
ATOM     23  O   UNL     1      -5.003  -4.031   0.618  0.00  0.00    -0.153 OA
ATOM     24  O   UNL     1      -6.146  -1.818   0.635  0.00  0.00    -0.153 OA
BRANCH  22  25
ATOM     25  N   UNL     1      -5.678  -2.962  -1.505  0.00  0.00    -0.204 NA
ATOM     26  H   UNL     1      -6.234  -3.719  -1.745  0.00  0.00    +0.144 HD
ATOM     27  H   UNL     1      -5.391  -2.335  -2.187  0.00  0.00    +0.144 HD
ENDBRANCH  22  25
ENDBRANCH  19  22
BRANCH  16  29
ATOM     28  C   UNL     1      -0.018   1.425   0.005  0.00  0.00    +0.277 C 
ATOM     29  O   UNL     1       0.002  -0.004  -0.002  0.00  0.00    -0.494 OA
ENDBRANCH  16  29
ENDBRANCH   1  21
TORSDOF 6
