REMARK  Name = ZINC40680880
REMARK  5 active torsions:
REMARK  status: ('A' for Active; 'I' for Inactive)
REMARK    1  A    between atoms: C_1  and  C_2
REMARK    2  A    between atoms: C_9  and  N_27
REMARK    3  A    between atoms: C_10  and  N_14
REMARK    4  A    between atoms: C_17  and  C_20
REMARK    5  A    between atoms: C_20  and  C_21
REMARK                            x       y       z     vdW  Elec       q    Type
REMARK                         _______ _______ _______ _____ _____    ______ ____
ROOT
ATOM      1  C   UNL     1       1.137  -1.434  -2.898  0.00  0.00    +0.089 C 
ATOM      2  C   UNL     1      -0.346  -1.240  -3.086  0.00  0.00    +0.136 A 
ATOM      3  C   UNL     1      -1.309  -1.668  -2.250  0.00  0.00    +0.091 A 
ATOM      4  C   UNL     1      -2.559  -1.284  -2.788  0.00  0.00    +0.167 A 
ATOM      5  N   UNL     1      -2.335  -0.647  -3.910  0.00  0.00    -0.063 NA
ATOM      6  O   UNL     1      -0.934  -0.606  -4.112  0.00  0.00    -0.358 OA
ATOM      7  N   UNL     1      -3.806  -1.538  -2.225  0.00  0.00    -0.282 N 
ATOM      8  C   UNL     1      -3.910  -2.354  -1.103  0.00  0.00    +0.127 A 
ATOM      9  C   UNL     1      -4.604  -3.563  -1.168  0.00  0.00    +0.104 A 
ATOM     10  C   UNL     1      -4.677  -4.345  -0.013  0.00  0.00    +0.147 A 
ATOM     11  N   UNL     1      -4.086  -3.911   1.097  0.00  0.00    -0.221 NA
ATOM     12  C   UNL     1      -3.440  -2.763   1.116  0.00  0.00    +0.200 A 
ATOM     13  N   UNL     1      -3.343  -1.998   0.047  0.00  0.00    -0.333 N 
ATOM     14  H   UNL     1      -4.603  -1.146  -2.614  0.00  0.00    +0.155 HD
ATOM     15  H   UNL     1      -2.855  -1.161   0.100  0.00  0.00    +0.168 HD
ENDROOT
BRANCH  10  16
ATOM     16  N   UNL     1      -5.357  -5.557  -0.024  0.00  0.00    -0.314 N 
ATOM     17  C   UNL     1      -4.636  -6.818  -0.242  0.00  0.00    +0.107 C 
ATOM     18  C   UNL     1      -4.965  -7.780   0.904  0.00  0.00    +0.023 C 
ATOM     19  C   UNL     1      -6.484  -7.935   1.013  0.00  0.00    -0.004 C 
ATOM     20  C   UNL     1      -7.116  -6.577   1.325  0.00  0.00    +0.023 C 
ATOM     21  C   UNL     1      -6.810  -5.602   0.190  0.00  0.00    +0.107 C 
BRANCH  19  22
ATOM     22  C   UNL     1      -6.816  -8.922   2.135  0.00  0.00    +0.038 C 
BRANCH  22  23
ATOM     23  C   UNL     1      -8.302  -9.169   2.163  0.00  0.00    -0.047 A 
ATOM     24  C   UNL     1      -9.122  -8.367   2.933  0.00  0.00    +0.003 A 
ATOM     25  C   UNL     1     -10.485  -8.594   2.959  0.00  0.00    +0.000 A 
ATOM     26  C   UNL     1     -11.028  -9.623   2.213  0.00  0.00    +0.000 A 
ATOM     27  C   UNL     1     -10.209 -10.425   1.442  0.00  0.00    +0.000 A 
ATOM     28  C   UNL     1      -8.846 -10.195   1.413  0.00  0.00    +0.003 A 
ENDBRANCH  22  23
ENDBRANCH  19  22
ENDBRANCH  10  16
BRANCH   9  29
ATOM     29  N   UNL     1      -5.214  -3.982  -2.362  0.00  0.00    -0.353 N 
ATOM     30  H   UNL     1      -5.036  -3.508  -3.189  0.00  0.00    +0.143 HD
ATOM     31  H   UNL     1      -5.812  -4.745  -2.360  0.00  0.00    +0.143 HD
ENDBRANCH   9  29
TORSDOF 4
