REMARK  Name = ZINC42270544
REMARK  4 active torsions:
REMARK  status: ('A' for Active; 'I' for Inactive)
REMARK    1  A    between atoms: C_1  and  C_2
REMARK    2  A    between atoms: C_3  and  C_9
REMARK    3  A    between atoms: C_7  and  N_8
REMARK    4  A    between atoms: C_16  and  C_18
REMARK                            x       y       z     vdW  Elec       q    Type
REMARK                         _______ _______ _______ _____ _____    ______ ____
ROOT
ATOM      1  C   UNL     1       0.011  -0.128  -2.584  0.00  0.00    +0.248 C 
ATOM      2  O   UNL     1       0.116   1.079  -2.674  0.00  0.00    -0.270 OA
ATOM      3  N   UNL     1      -0.218  -0.869  -3.687  0.00  0.00    -0.286 N 
ATOM      4  C   UNL     1      -0.436  -2.318  -3.583  0.00  0.00    +0.109 C 
ATOM      5  C   UNL     1      -1.750  -2.671  -4.286  0.00  0.00    +0.019 C 
ATOM      6  C   UNL     1      -1.714  -2.142  -5.722  0.00  0.00    +0.004 C 
ATOM      7  C   UNL     1      -1.570  -0.618  -5.702  0.00  0.00    +0.032 C 
ATOM      8  C   UNL     1      -0.259  -0.241  -5.014  0.00  0.00    +0.162 C 
ENDROOT
BRANCH   1  11
ATOM      9  C   UNL     1      -1.535   0.859  -0.347  0.00  0.00    +0.046 C 
ATOM     10  C   UNL     1      -0.607  -0.317  -0.179  0.00  0.00    -0.018 A 
ATOM     11  C   UNL     1       0.133  -0.785  -1.265  0.00  0.00    +0.042 A 
ATOM     12  C   UNL     1       0.990  -1.874  -1.102  0.00  0.00    +0.013 A 
ATOM     13  C   UNL     1       1.102  -2.486   0.131  0.00  0.00    +0.003 A 
ATOM     14  C   UNL     1       0.368  -2.023   1.206  0.00  0.00    +0.023 A 
ATOM     15  C   UNL     1      -0.483  -0.934   1.056  0.00  0.00    +0.028 A 
BRANCH  15  16
ATOM     16  N   UNL     1      -1.218  -0.466   2.148  0.00  0.00    -0.358 N 
ATOM     17  H   UNL     1      -1.815   0.291   2.042  0.00  0.00    +0.142 HD
ATOM     18  H   UNL     1      -1.131  -0.898   3.012  0.00  0.00    +0.142 HD
ENDBRANCH  15  16
ENDBRANCH   1  11
BRANCH   8  19
ATOM     19  C   UNL     1      -0.180   1.256  -4.868  0.00  0.00    +0.231 C 
ATOM     20  O   UNL     1      -1.101   1.866  -4.368  0.00  0.00    -0.274 OA
ATOM     21  N   UNL     1       0.915   1.918  -5.293  0.00  0.00    -0.328 N 
ATOM     22  H   UNL     1       1.652   1.430  -5.693  0.00  0.00    +0.145 HD
ATOM     23  H   UNL     1       0.966   2.882  -5.199  0.00  0.00    +0.145 HD
ENDBRANCH   8  19
TORSDOF 3
