REMARK  Name = ZINC20565086
REMARK  7 active torsions:
REMARK  status: ('A' for Active; 'I' for Inactive)
REMARK    1  A    between atoms: C_1  and  C_2
REMARK    2  A    between atoms: C_4  and  S_10
REMARK    3  A    between atoms: C_6  and  N_9
REMARK    4  A    between atoms: C_7  and  C_8
REMARK    5  A    between atoms: S_10  and  N_13
REMARK    6  A    between atoms: C_15  and  C_22
REMARK    7  A    between atoms: C_18  and  C_21
REMARK                            x       y       z     vdW  Elec       q    Type
REMARK                         _______ _______ _______ _____ _____    ______ ____
ROOT
ATOM      1  C   UNL     1      -5.634  -5.668   1.907  0.00  0.00    +0.044 C 
ATOM      2  C   UNL     1      -5.357  -4.494   1.004  0.00  0.00    -0.044 A 
ATOM      3  C   UNL     1      -4.083  -4.293   0.505  0.00  0.00    +0.032 A 
ATOM      4  C   UNL     1      -3.823  -3.213  -0.319  0.00  0.00    +0.107 A 
ATOM      5  C   UNL     1      -4.838  -2.339  -0.655  0.00  0.00    +0.051 A 
ATOM      6  C   UNL     1      -6.119  -2.541  -0.160  0.00  0.00    +0.030 A 
ATOM      7  C   UNL     1      -6.376  -3.623   0.673  0.00  0.00    -0.027 A 
ATOM      8  C   UNL     1      -7.765  -3.847   1.214  0.00  0.00    +0.046 C 
ENDROOT
BRANCH   6   9
ATOM      9  N   UNL     1      -7.148  -1.659  -0.497  0.00  0.00    -0.358 N 
ATOM     10  H   UNL     1      -8.162  -1.820  -0.104  0.00  0.00    +0.142 HD
ATOM     11  H   UNL     1      -6.944  -0.802  -1.157  0.00  0.00    +0.142 HD
ENDBRANCH   6   9
BRANCH   4  12
ATOM     12  S   UNL     1      -2.197  -2.958  -0.948  0.00  0.00    +0.061 S 
ATOM     13  O   UNL     1      -2.337  -2.193  -2.137  0.00  0.00    -0.153 OA
ATOM     14  O   UNL     1      -1.550  -4.223  -0.926  0.00  0.00    -0.153 OA
BRANCH  12  15
ATOM     15  N   UNL     1      -1.397  -1.999   0.140  0.00  0.00    -0.176 NA
ATOM     16  C   UNL     1      -0.636  -2.595   1.246  0.00  0.00    +0.112 C 
ATOM     17  C   UNL     1       0.792  -2.041   1.217  0.00  0.00    +0.002 C 
ATOM     18  C   UNL     1       0.742  -0.512   1.242  0.00  0.00    +0.009 C 
ATOM     19  C   UNL     1       0.002  -0.004   0.002  0.00  0.00    +0.002 C 
ATOM     20  C   UNL     1      -1.435  -0.535   0.017  0.00  0.00    +0.112 C 
ATOM     21  C   UNL     1      -0.019   1.526   0.010  0.00  0.00    +0.009 C 
ATOM     22  C   UNL     1       1.496  -2.509  -0.058  0.00  0.00    +0.009 C 
ENDBRANCH  12  15
ENDBRANCH   4  12
TORSDOF 3
