REMARK  Name = ZINC37929624
REMARK  8 active torsions:
REMARK  status: ('A' for Active; 'I' for Inactive)
REMARK    1  A    between atoms: C_1  and  S_2
REMARK    2  A    between atoms: S_2  and  N_5
REMARK    3  A    between atoms: N_5  and  C_6
REMARK    4  A    between atoms: C_6  and  C_7
REMARK    5  A    between atoms: C_7  and  N_8
REMARK    6  A    between atoms: N_8  and  S_9
REMARK    7  A    between atoms: S_9  and  C_12
REMARK    8  A    between atoms: C_17  and  N_18
REMARK                            x       y       z     vdW  Elec       q    Type
REMARK                         _______ _______ _______ _____ _____    ______ ____
ROOT
ATOM      1  S   UNL     1       5.270  -1.542  -3.745  0.00  0.00    +0.060 S 
ATOM      2  O   UNL     1       6.618  -1.094  -3.697  0.00  0.00    -0.153 OA
ATOM      3  O   UNL     1       4.874  -2.819  -3.265  0.00  0.00    -0.153 OA
ENDROOT
BRANCH   1   4
ATOM      4  C   UNL     1       4.773  -1.462  -5.434  0.00  0.00    +0.127 A 
ATOM      5  C   UNL     1       4.167  -2.552  -6.028  0.00  0.00    +0.050 A 
ATOM      6  C   UNL     1       3.776  -2.491  -7.354  0.00  0.00    +0.043 A 
ATOM      7  C   UNL     1       3.992  -1.338  -8.089  0.00  0.00    +0.022 A 
ATOM      8  C   UNL     1       4.599  -0.246  -7.501  0.00  0.00    +0.026 A 
ATOM      9  C   UNL     1       4.986  -0.303  -6.168  0.00  0.00    +0.051 A 
ATOM     10 CL   UNL     1       3.014  -3.862  -8.097  0.00  0.00    -0.083 Cl
BRANCH   9  11
ATOM     11  N   UNL     1       5.595   0.803  -5.568  0.00  0.00    -0.356 N 
ATOM     12  H   UNL     1       5.786   0.795  -4.617  0.00  0.00    +0.142 HD
ATOM     13  H   UNL     1       5.825   1.579  -6.103  0.00  0.00    +0.142 HD
ENDBRANCH   9  11
ENDBRANCH   1   4
BRANCH   1  14
ATOM     14  N   UNL     1       4.371  -0.424  -2.918  0.00  0.00    -0.189 NA
ATOM     15  H   UNL     1       4.805   0.338  -2.503  0.00  0.00    +0.148 HD
BRANCH  14  16
ATOM     16  C   UNL     1       2.919  -0.586  -2.812  0.00  0.00    +0.122 C 
BRANCH  16  17
ATOM     17  C   UNL     1       2.383   0.329  -1.709  0.00  0.00    +0.122 C 
BRANCH  17  18
ATOM     18  N   UNL     1       0.930   0.167  -1.603  0.00  0.00    -0.194 NA
ATOM     19  H   UNL     1       0.439  -0.274  -2.313  0.00  0.00    +0.148 HD
BRANCH  18  21
ATOM     20  C   UNL     1       0.335   2.538  -0.338  0.00  0.00    +0.214 C 
ATOM     21  S   UNL     1       0.129   0.738  -0.271  0.00  0.00    +0.027 S 
ATOM     22  O   UNL     1       0.842   0.204   0.837  0.00  0.00    -0.158 OA
ATOM     23  O   UNL     1      -1.232   0.392  -0.491  0.00  0.00    -0.158 OA
ENDBRANCH  18  21
ENDBRANCH  17  18
ENDBRANCH  16  17
ENDBRANCH  14  16
ENDBRANCH   1  14
TORSDOF 7
