REMARK  Name = ZINC27211916
REMARK  10 active torsions:
REMARK  status: ('A' for Active; 'I' for Inactive)
REMARK    1  A    between atoms: C_1  and  C_2
REMARK    2  A    between atoms: C_2  and  O_3
REMARK    3  A    between atoms: O_3  and  C_4
REMARK    4  A    between atoms: C_4  and  C_6
REMARK    5  A    between atoms: N_8  and  C_30
REMARK    6  A    between atoms: C_11  and  N_18
REMARK    7  A    between atoms: C_12  and  N_17
REMARK    8  A    between atoms: C_30  and  C_31
REMARK    9  A    between atoms: C_30  and  C_32
REMARK   10  A    between atoms: C_30  and  C_33
REMARK                            x       y       z     vdW  Elec       q    Type
REMARK                         _______ _______ _______ _____ _____    ______ ____
ROOT
ATOM      1  C   UNL     1       1.805  13.667  -1.121  0.00  0.00    +0.122 A 
ATOM      2  C   UNL     1       3.026  13.023  -1.149  0.00  0.00    +0.105 A 
ATOM      3  N   UNL     1       3.143  11.707  -0.931  0.00  0.00    -0.340 N 
ATOM      4  C   UNL     1       2.060  10.895  -0.662  0.00  0.00    +0.055 A 
ATOM      5  C   UNL     1       2.240   9.533  -0.443  0.00  0.00    +0.051 A 
ATOM      6  C   UNL     1       1.150   8.726  -0.173  0.00  0.00    +0.053 A 
ATOM      7  C   UNL     1      -0.142   9.267  -0.124  0.00  0.00    +0.047 A 
ATOM      8  C   UNL     1      -0.334  10.617  -0.335  0.00  0.00    +0.038 A 
ATOM      9  C   UNL     1       0.764  11.437  -0.608  0.00  0.00    +0.048 A 
ATOM     10  C   UNL     1       0.592  12.880  -0.842  0.00  0.00    +0.203 A 
ATOM     11  O   UNL     1      -0.509  13.403  -0.807  0.00  0.00    -0.286 OA
ENDROOT
BRANCH   6  12
ATOM     12  N   UNL     1       1.337   7.362   0.046  0.00  0.00    -0.325 N 
ATOM     13  C   UNL     1       0.716   6.567  -1.022  0.00  0.00    +0.124 C 
ATOM     14  C   UNL     1       0.874   5.078  -0.705  0.00  0.00    +0.125 C 
ATOM     15  N   UNL     1       2.302   4.756  -0.574  0.00  0.00    -0.314 N 
ATOM     16  C   UNL     1       2.922   5.551   0.495  0.00  0.00    +0.125 C 
ATOM     17  C   UNL     1       2.764   7.040   0.177  0.00  0.00    +0.124 C 
ATOM     18  C   UNL     1       2.488   3.396  -0.355  0.00  0.00    +0.099 A 
ATOM     19  C   UNL     1       3.777   2.892  -0.205  0.00  0.00    +0.042 A 
ATOM     20  C   UNL     1       3.947   1.538   0.016  0.00  0.00    +0.005 A 
ATOM     21  C   UNL     1       2.820   0.728   0.071  0.00  0.00    +0.018 A 
ATOM     22  C   UNL     1       1.572   1.295  -0.087  0.00  0.00    +0.084 A 
ATOM     23  N   UNL     1       1.439   2.592  -0.292  0.00  0.00    -0.350 N 
ATOM     24  H   UNL     1       0.424   3.001  -0.412  0.00  0.00    +0.166 HD
ENDBRANCH   6  12
BRANCH   3  25
ATOM     25  C   UNL     1       4.477  11.104  -0.979  0.00  0.00    +0.037 C 
ATOM     26  C   UNL     1       5.518  12.191  -1.254  0.00  0.00    +0.034 C 
ATOM     27  C   UNL     1       4.782  10.433   0.362  0.00  0.00    +0.034 C 
ATOM     28  C   UNL     1       4.525  10.059  -2.095  0.00  0.00    +0.034 C 
ENDBRANCH   3  25
BRANCH   7  29
ATOM     29  N   UNL     1      -1.239   8.438   0.144  0.00  0.00    -0.357 N 
ATOM     30  H   UNL     1      -2.253   8.862   0.183  0.00  0.00    +0.142 HD
ATOM     31  H   UNL     1      -1.086   7.362   0.316  0.00  0.00    +0.142 HD
ENDBRANCH   7  29
BRANCH   1  32
ATOM     32  C   UNL     1       1.718  15.113  -1.366  0.00  0.00    +0.344 C 
ATOM     33  O   UNL     1       0.637  15.670  -1.339  0.00  0.00    -0.245 OA
BRANCH  32  34
ATOM     34  O   UNL     1       2.836  15.822  -1.620  0.00  0.00    -0.461 OA
BRANCH  34  36
ATOM     35  C   UNL     1       4.042  17.878  -2.121  0.00  0.00    +0.048 C 
ATOM     36  C   UNL     1       2.674  17.247  -1.852  0.00  0.00    +0.229 C 
ENDBRANCH  34  36
ENDBRANCH  32  34
ENDBRANCH   1  32
TORSDOF 6
