REMARK  Name = ZINC64228964
REMARK  6 active torsions:
REMARK  status: ('A' for Active; 'I' for Inactive)
REMARK    1  A    between atoms: C_1  and  C_2
REMARK    2  A    between atoms: C_2  and  N_3
REMARK    3  A    between atoms: C_4  and  C_6
REMARK    4  A    between atoms: N_14  and  C_15
REMARK    5  A    between atoms: C_18  and  C_25
REMARK    6  A    between atoms: C_18  and  C_26
REMARK                            x       y       z     vdW  Elec       q    Type
REMARK                         _______ _______ _______ _____ _____    ______ ____
ROOT
ATOM      1  C   UNL     1      -3.007  -2.380   0.042  0.00  0.00    +0.092 C 
ATOM      2  C   UNL     1      -2.988  -3.910   0.057  0.00  0.00    +0.016 C 
ATOM      3  C   UNL     1      -4.423  -4.441   0.034  0.00  0.00    +0.020 C 
ATOM      4  C   UNL     1      -5.163  -3.954   1.284  0.00  0.00    +0.109 C 
ATOM      5  N   UNL     1      -5.062  -2.490   1.354  0.00  0.00    -0.285 N 
ATOM      6  C   UNL     1      -3.731  -1.871   1.293  0.00  0.00    +0.122 C 
ATOM      7  C   UNL     1      -6.169  -1.730   1.472  0.00  0.00    +0.303 C 
ATOM      8  O   UNL     1      -6.067  -0.528   1.621  0.00  0.00    -0.253 OA
ATOM      9  N   UNL     1      -7.388  -2.303   1.425  0.00  0.00    -0.292 N 
ATOM     10  H   UNL     1      -7.468  -3.268   1.368  0.00  0.00    +0.151 HD
ENDROOT
BRANCH   9  11
ATOM     11  C   UNL     1      -8.591  -1.468   1.460  0.00  0.00    +0.105 C 
ATOM     12  C   UNL     1      -9.736  -2.206   0.768  0.00  0.00    +0.028 C 
ATOM     13  C   UNL     1     -11.030  -1.420   1.004  0.00  0.00    +0.013 C 
ATOM     14  C   UNL     1     -11.410  -1.549   2.478  0.00  0.00    -0.009 C 
ATOM     15  C   UNL     1     -10.240  -1.199   3.359  0.00  0.00    -0.037 A 
ATOM     16  C   UNL     1      -8.945  -1.166   2.892  0.00  0.00    -0.023 A 
ATOM     17  C   UNL     1      -7.909  -0.842   3.759  0.00  0.00    +0.006 A 
ATOM     18  C   UNL     1      -8.168  -0.550   5.083  0.00  0.00    +0.000 A 
ATOM     19  C   UNL     1      -9.469  -0.579   5.550  0.00  0.00    +0.000 A 
ATOM     20  C   UNL     1     -10.499  -0.903   4.691  0.00  0.00    +0.004 A 
ATOM     21  C   UNL     1     -12.573  -0.602   2.784  0.00  0.00    +0.016 C 
ATOM     22  C   UNL     1     -11.844  -2.988   2.763  0.00  0.00    +0.016 C 
ENDBRANCH   9  11
BRANCH   1  24
ATOM     23  N   UNL     1      -1.364  -0.531   0.022  0.00  0.00    -0.315 N 
ATOM     24  C   UNL     1      -1.593  -1.859   0.033  0.00  0.00    +0.218 C 
ATOM     25  O   UNL     1      -0.661  -2.635   0.034  0.00  0.00    -0.275 OA
ATOM     26  H   UNL     1      -2.110   0.090   0.021  0.00  0.00    +0.149 HD
BRANCH  23  28
ATOM     27  C   UNL     1      -0.010   1.505   0.003  0.00  0.00    +0.024 C 
ATOM     28  C   UNL     1       0.010  -0.024   0.013  0.00  0.00    +0.101 C 
ENDBRANCH  23  28
ENDBRANCH   1  24
TORSDOF 3
