REMARK  Name = ZINC13154047
REMARK  2 active torsions:
REMARK  status: ('A' for Active; 'I' for Inactive)
REMARK    1  A    between atoms: C_4  and  C_7
REMARK    2  A    between atoms: C_15  and  N_17
REMARK                            x       y       z     vdW  Elec       q    Type
REMARK                         _______ _______ _______ _____ _____    ______ ____
ROOT
ATOM      1  C   UNL     1       3.710  -0.690  -0.023  0.00  0.00    +0.084 A 
ATOM      2  C   UNL     1       3.907  -1.914   0.753  0.00  0.00    +0.027 A 
ATOM      3  C   UNL     1       2.900  -2.455   1.558  0.00  0.00    +0.012 A 
ATOM      4  C   UNL     1       3.145  -3.600   2.258  0.00  0.00    +0.001 A 
ATOM      5  C   UNL     1       4.381  -4.236   2.182  0.00  0.00    +0.002 A 
ATOM      6  C   UNL     1       5.384  -3.733   1.407  0.00  0.00    +0.028 A 
ATOM      7  C   UNL     1       5.168  -2.558   0.672  0.00  0.00    +0.077 A 
ATOM      8  N   UNL     1       6.115  -2.021  -0.105  0.00  0.00    -0.211 NA
ATOM      9  C   UNL     1       5.888  -0.911  -0.788  0.00  0.00    +0.254 A 
ATOM     10  N   UNL     1       4.724  -0.259  -0.761  0.00  0.00    -0.210 NA
ENDROOT
BRANCH   9  11
ATOM     11  N   UNL     1       6.889  -0.412  -1.561  0.00  0.00    -0.178 NA
ATOM     12  C   UNL     1       7.788   0.394  -1.035  0.00  0.00    +0.196 C 
ATOM     13  N   UNL     1       7.782   0.639   0.311  0.00  0.00    -0.370 N 
ATOM     14  N   UNL     1       8.729   0.985  -1.834  0.00  0.00    -0.370 N 
ATOM     15  H   UNL     1       7.069   0.286   0.866  0.00  0.00    +0.159 HD
ATOM     16  H   UNL     1       8.733   0.811  -2.788  0.00  0.00    +0.159 HD
ATOM     17  H   UNL     1       9.391   1.579  -1.446  0.00  0.00    +0.159 HD
ATOM     18  H   UNL     1       8.492   1.166   0.712  0.00  0.00    +0.159 HD
ENDBRANCH   9  11
BRANCH   1  22
ATOM     19  C   UNL     1       0.012   1.401   0.070  0.00  0.00    +0.000 A 
ATOM     20  C   UNL     1       0.564   0.925   1.245  0.00  0.00    +0.001 A 
ATOM     21  C   UNL     1       1.764   0.245   1.222  0.00  0.00    +0.010 A 
ATOM     22  C   UNL     1       2.421   0.038   0.009  0.00  0.00    +0.001 A 
ATOM     23  C   UNL     1       1.860   0.521  -1.173  0.00  0.00    +0.010 A 
ATOM     24  C   UNL     1       0.659   1.200  -1.137  0.00  0.00    +0.001 A 
ENDBRANCH   1  22
TORSDOF 2
