REMARK  Name = ZINC05085913
REMARK  7 active torsions:
REMARK  status: ('A' for Active; 'I' for Inactive)
REMARK    1  A    between atoms: C_1  and  C_2
REMARK    2  A    between atoms: C_1  and  O_21
REMARK    3  A    between atoms: C_4  and  O_20
REMARK    4  A    between atoms: C_6  and  O_19
REMARK    5  A    between atoms: C_8  and  N_14
REMARK    6  A    between atoms: C_10  and  O_13
REMARK    7  A    between atoms: C_15  and  C_17
REMARK                            x       y       z     vdW  Elec       q    Type
REMARK                         _______ _______ _______ _____ _____    ______ ____
ROOT
ATOM      1  C   UNL     1      -2.782  -3.018   0.944  0.00  0.00    +0.178 C 
ATOM      2  C   UNL     1      -2.333  -2.941  -0.518  0.00  0.00    +0.176 C 
ATOM      3  C   UNL     1      -1.031  -2.139  -0.603  0.00  0.00    +0.171 C 
ATOM      4  C   UNL     1      -1.256  -0.754   0.010  0.00  0.00    +0.160 C 
ATOM      5  C   UNL     1      -1.747  -0.915   1.451  0.00  0.00    +0.270 C 
ATOM      6  O   UNL     1      -2.943  -1.696   1.461  0.00  0.00    -0.341 OA
ENDROOT
BRANCH   4   7
ATOM      7  N   UNL     1       0.002  -0.004   0.002  0.00  0.00    -0.303 N 
ATOM      8  C   UNL     1      -0.016   1.344   0.009  0.00  0.00    +0.244 C 
ATOM      9  O   UNL     1      -1.075   1.936   0.018  0.00  0.00    -0.273 OA
ATOM     10  H   UNL     1       0.849  -0.478  -0.009  0.00  0.00    +0.149 HD
BRANCH   8  11
ATOM     11  C   UNL     1       1.278   2.115   0.001  0.00  0.00    +0.308 C 
ATOM     12  F   UNL     1       1.004   3.487   0.011  0.00  0.00    -0.239 F 
ENDBRANCH   8  11
ENDBRANCH   4   7
BRANCH   5  13
ATOM     13  O   UNL     1      -0.742  -1.573   2.226  0.00  0.00    -0.365 OA
ATOM     14  H   UNL     1      -0.985  -1.709   3.152  0.00  0.00    +0.213 HD
ENDBRANCH   5  13
BRANCH   3  15
ATOM     15  O   UNL     1      -0.003  -2.820   0.120  0.00  0.00    -0.387 OA
ATOM     16  H   UNL     1       0.193  -3.706  -0.215  0.00  0.00    +0.210 HD
ENDBRANCH   3  15
BRANCH   2  17
ATOM     17  O   UNL     1      -3.344  -2.294  -1.294  0.00  0.00    -0.387 OA
ATOM     18  H   UNL     1      -4.199  -2.746  -1.282  0.00  0.00    +0.210 HD
ENDBRANCH   2  17
BRANCH   1  19
ATOM     19  C   UNL     1      -4.114  -3.767   1.030  0.00  0.00    +0.190 C 
BRANCH  19  20
ATOM     20  O   UNL     1      -4.475  -3.939   2.402  0.00  0.00    -0.392 OA
ATOM     21  H   UNL     1      -5.311  -4.407   2.533  0.00  0.00    +0.210 HD
ENDBRANCH  19  20
ENDBRANCH   1  19
TORSDOF 7
