REMARK  Name = ZINC67610329
REMARK  5 active torsions:
REMARK  status: ('A' for Active; 'I' for Inactive)
REMARK    1  A    between atoms: C_1  and  C_2
REMARK    2  A    between atoms: C_4  and  C_7
REMARK    3  A    between atoms: C_7  and  N_8
REMARK    4  A    between atoms: N_11  and  C_12
REMARK    5  A    between atoms: C_16  and  N_18
REMARK                            x       y       z     vdW  Elec       q    Type
REMARK                         _______ _______ _______ _____ _____    ______ ____
ROOT
ATOM      1  N   UNL     1      -1.195  -4.149  -1.492  0.00  0.00    -0.293 N 
ATOM      2  C   UNL     1      -1.940  -5.244  -1.742  0.00  0.00    +0.304 C 
ATOM      3  O   UNL     1      -2.000  -6.140  -0.922  0.00  0.00    -0.252 OA
ATOM      4  N   UNL     1      -2.619  -5.346  -2.902  0.00  0.00    -0.269 N 
ATOM      5  H   UNL     1      -1.147  -3.435  -2.146  0.00  0.00    +0.151 HD
ATOM      6  H   UNL     1      -2.625  -4.604  -3.527  0.00  0.00    +0.156 HD
ENDROOT
BRANCH   4   7
ATOM      7  C   UNL     1      -3.313  -6.523  -3.205  0.00  0.00    +0.037 A 
ATOM      8  C   UNL     1      -3.938  -7.242  -2.193  0.00  0.00    +0.023 A 
ATOM      9  C   UNL     1      -4.624  -8.403  -2.491  0.00  0.00    +0.004 A 
ATOM     10  C   UNL     1      -4.692  -8.854  -3.796  0.00  0.00    +0.023 A 
ATOM     11  C   UNL     1      -4.070  -8.139  -4.812  0.00  0.00    +0.031 A 
ATOM     12  C   UNL     1      -3.384  -6.969  -4.517  0.00  0.00    +0.046 A 
BRANCH  11  13
ATOM     13  N   UNL     1      -4.138  -8.596  -6.130  0.00  0.00    -0.330 N 
ATOM     14  C   UNL     1      -3.522  -7.944  -7.296  0.00  0.00    +0.105 C 
ATOM     15  C   UNL     1      -3.883  -8.788  -8.536  0.00  0.00    +0.020 C 
ATOM     16  C   UNL     1      -5.153  -9.554  -8.078  0.00  0.00    +0.020 C 
ATOM     17  C   UNL     1      -4.834  -9.814  -6.583  0.00  0.00    +0.105 C 
ENDBRANCH  11  13
ENDBRANCH   4   7
BRANCH   1  18
ATOM     18  C   UNL     1      -0.457  -4.038  -0.231  0.00  0.00    +0.164 C 
BRANCH  18  22
ATOM     19  C   UNL     1       0.715   0.835   0.680  0.00  0.00    +0.089 C 
ATOM     20  C   UNL     1       0.785  -0.595   0.209  0.00  0.00    +0.135 A 
ATOM     21  C   UNL     1      -0.163  -1.535   0.389  0.00  0.00    +0.072 A 
ATOM     22  C   UNL     1       0.289  -2.730  -0.199  0.00  0.00    +0.101 A 
ATOM     23  N   UNL     1       1.467  -2.508  -0.711  0.00  0.00    -0.081 NA
ATOM     24  O   UNL     1       1.800  -1.153  -0.468  0.00  0.00    -0.360 OA
ENDBRANCH  18  22
ENDBRANCH   1  18
TORSDOF 4
