REMARK  Name = ZINC39665297
REMARK  10 active torsions:
REMARK  status: ('A' for Active; 'I' for Inactive)
REMARK    1  A    between atoms: C_1  and  C_2
REMARK    2  A    between atoms: C_2  and  C_4
REMARK    3  A    between atoms: C_2  and  O_33
REMARK    4  A    between atoms: C_4  and  N_5
REMARK    5  A    between atoms: C_6  and  C_8
REMARK    6  A    between atoms: C_19  and  C_21
REMARK    7  A    between atoms: C_24  and  O_31
REMARK    8  A    between atoms: C_25  and  C_27
REMARK    9  A    between atoms: O_31  and  C_32
REMARK   10  A    between atoms: O_33  and  C_34
REMARK                            x       y       z     vdW  Elec       q    Type
REMARK                         _______ _______ _______ _____ _____    ______ ____
ROOT
ATOM      1  C   UNL     1       3.022  -7.118   1.685  0.00  0.00    +0.100 C 
ATOM      2  C   UNL     1       4.267  -6.439   1.069  0.00  0.00    +0.121 C 
ATOM      3  N   UNL     1       4.610  -5.354   2.018  0.00  0.00    -0.296 N 
ATOM      4  C   UNL     1       4.376  -5.948   3.357  0.00  0.00    +0.115 C 
ATOM      5  C   UNL     1       3.100  -6.796   3.186  0.00  0.00    -0.004 C 
ATOM      6  C   UNL     1       1.875  -5.996   3.619  0.00  0.00    -0.010 C 
ATOM      7  C   UNL     1       1.946  -5.737   5.127  0.00  0.00    -0.082 C 
ATOM      8  N   UNL     1       1.998  -7.018   5.843  0.00  0.00    +0.379 N 
ATOM      9  C   UNL     1       3.226  -7.740   5.490  0.00  0.00    -0.082 C 
ATOM     10  C   UNL     1       3.209  -8.083   3.998  0.00  0.00    -0.010 C 
ATOM     11  C   UNL     1       5.038  -4.109   1.730  0.00  0.00    +0.247 C 
ATOM     12  O   UNL     1       5.364  -3.356   2.627  0.00  0.00    -0.270 OA
ATOM     13  H   UNL     1       1.983  -6.846   6.837  0.00  0.00    -0.086 HD
ATOM     14  H   UNL     1       1.196  -7.576   5.589  0.00  0.00    -0.086 HD
ENDROOT
BRANCH  11  15
ATOM     15  C   UNL     1       5.111  -3.660   0.326  0.00  0.00    +0.038 A 
ATOM     16  C   UNL     1       3.941  -3.342  -0.370  0.00  0.00    +0.016 A 
ATOM     17  C   UNL     1       4.014  -2.923  -1.679  0.00  0.00    +0.047 A 
ATOM     18  C   UNL     1       5.248  -2.816  -2.309  0.00  0.00    +0.132 A 
ATOM     19  C   UNL     1       6.414  -3.131  -1.621  0.00  0.00    +0.097 A 
ATOM     20  C   UNL     1       6.350  -3.546  -0.309  0.00  0.00    +0.029 A 
BRANCH  19  21
ATOM     21  C   UNL     1       7.749  -3.014  -2.309  0.00  0.00    +0.421 C 
ATOM     22  F   UNL     1       8.765  -3.382  -1.421  0.00  0.00    -0.166 F 
ATOM     23  F   UNL     1       7.775  -3.859  -3.424  0.00  0.00    -0.166 F 
ATOM     24  F   UNL     1       7.947  -1.692  -2.722  0.00  0.00    -0.166 F 
ENDBRANCH  19  21
BRANCH  18  25
ATOM     25  O   UNL     1       5.315  -2.404  -3.600  0.00  0.00    -0.495 OA
ATOM     26  C   UNL     1       4.093  -1.988  -4.213  0.00  0.00    +0.277 C 
ENDBRANCH  18  25
ENDBRANCH  11  15
BRANCH   1  28
ATOM     27  N   UNL     1       0.645  -7.293   1.024  0.00  0.00    -0.312 N 
ATOM     28  C   UNL     1       1.763  -6.543   1.089  0.00  0.00    +0.218 C 
ATOM     29  O   UNL     1       1.755  -5.406   0.668  0.00  0.00    -0.275 OA
ATOM     30  H   UNL     1       0.666  -8.221   1.307  0.00  0.00    +0.149 HD
BRANCH  27  31
ATOM     31  C   UNL     1      -0.602  -6.708   0.527  0.00  0.00    +0.148 C 
BRANCH  31  33
ATOM     32  C   UNL     1      -3.058  -7.078   0.256  0.00  0.00    +0.053 C 
ATOM     33  C   UNL     1      -1.735  -7.727   0.666  0.00  0.00    +0.187 C 
BRANCH  33  34
ATOM     34  O   UNL     1      -1.473  -8.849  -0.178  0.00  0.00    -0.488 OA
BRANCH  34  35
ATOM     35  C   UNL     1      -2.038 -10.034   0.175  0.00  0.00    +0.121 A 
ATOM     36  C   UNL     1      -2.948 -10.084   1.222  0.00  0.00    +0.045 A 
ATOM     37  C   UNL     1      -3.521 -11.289   1.579  0.00  0.00    +0.004 A 
ATOM     38  C   UNL     1      -3.188 -12.444   0.896  0.00  0.00    +0.000 A 
ATOM     39  C   UNL     1      -2.281 -12.396  -0.147  0.00  0.00    +0.004 A 
ATOM     40  C   UNL     1      -1.710 -11.193  -0.512  0.00  0.00    +0.045 A 
ENDBRANCH  34  35
ENDBRANCH  33  34
ENDBRANCH  31  33
ENDBRANCH  27  31
ENDBRANCH   1  28
TORSDOF 8
