REMARK  Name = ZINC13625377
REMARK  6 active torsions:
REMARK  status: ('A' for Active; 'I' for Inactive)
REMARK    1  A    between atoms: C_1  and  C_2
REMARK    2  A    between atoms: C_7  and  N_8
REMARK    3  A    between atoms: C_9  and  C_11
REMARK    4  A    between atoms: C_11  and  C_12
REMARK    5  A    between atoms: C_12  and  C_13
REMARK    6  A    between atoms: C_13  and  N_14
REMARK                            x       y       z     vdW  Elec       q    Type
REMARK                         _______ _______ _______ _____ _____    ______ ____
ROOT
ATOM      1  N   UNL     1      -0.419  -1.144   8.469  0.00  0.00    -0.299 N 
ATOM      2  C   UNL     1      -0.534  -0.702   9.737  0.00  0.00    +0.307 C 
ATOM      3  O   UNL     1      -0.668   0.487   9.957  0.00  0.00    -0.252 OA
ATOM      4  N   UNL     1      -0.500  -1.577  10.761  0.00  0.00    -0.245 N 
ATOM      5  C   UNL     1      -0.454  -3.026  10.520  0.00  0.00    +0.211 C 
ATOM      6  C   UNL     1      -1.380  -3.716  11.489  0.00  0.00    +0.235 C 
ATOM      7  O   UNL     1      -1.906  -4.763  11.174  0.00  0.00    -0.274 OA
ATOM      8  N   UNL     1      -1.631  -3.184  12.700  0.00  0.00    -0.283 N 
ATOM      9  C   UNL     1      -1.079  -1.953  13.070  0.00  0.00    +0.055 A 
ATOM     10  C   UNL     1      -0.502  -1.133  12.094  0.00  0.00    +0.059 A 
ATOM     11  C   UNL     1       0.048   0.087  12.441  0.00  0.00    +0.025 A 
ATOM     12  C   UNL     1       0.035   0.494  13.764  0.00  0.00    +0.002 A 
ATOM     13  C   UNL     1      -0.526  -0.315  14.735  0.00  0.00    +0.002 A 
ATOM     14  C   UNL     1      -1.092  -1.538  14.391  0.00  0.00    +0.025 A 
ATOM     15  H   UNL     1      -0.384  -2.096   8.289  0.00  0.00    +0.150 HD
ATOM     16  H   UNL     1      -2.202  -3.660  13.324  0.00  0.00    +0.155 HD
ENDROOT
BRANCH   1  17
ATOM     17  C   UNL     1      -0.346  -0.185   7.363  0.00  0.00    +0.106 C 
BRANCH  17  18
ATOM     18  C   UNL     1      -0.220  -0.943   6.040  0.00  0.00    +0.028 C 
BRANCH  18  19
ATOM     19  C   UNL     1      -0.144   0.058   4.885  0.00  0.00    +0.097 C 
BRANCH  19  21
ATOM     20  N   UNL     1       0.064  -0.008   2.421  0.00  0.00    -0.285 N 
ATOM     21  C   UNL     1      -0.019  -0.689   3.581  0.00  0.00    +0.217 C 
ATOM     22  O   UNL     1       0.006  -1.901   3.576  0.00  0.00    -0.275 OA
ATOM     23  H   UNL     1       0.112   0.961   2.429  0.00  0.00    +0.155 HD
BRANCH  20  30
ATOM     24  C   UNL     1      -1.227   1.181   0.181  0.00  0.00    +0.046 C 
ATOM     25  C   UNL     1      -0.537  -0.155   0.086  0.00  0.00    -0.028 A 
ATOM     26  C   UNL     1      -0.514  -0.837  -1.115  0.00  0.00    +0.020 A 
ATOM     27  C   UNL     1       0.119  -2.064  -1.203  0.00  0.00    +0.018 A 
ATOM     28  C   UNL     1       0.730  -2.612  -0.089  0.00  0.00    +0.017 A 
ATOM     29  C   UNL     1       0.710  -1.934   1.114  0.00  0.00    +0.024 A 
ATOM     30  C   UNL     1       0.081  -0.700   1.204  0.00  0.00    +0.036 A 
ATOM     31 BR   UNL     1       0.148  -2.994  -2.849  0.00  0.00    -0.050 Br
ENDBRANCH  20  30
ENDBRANCH  19  21
ENDBRANCH  18  19
ENDBRANCH  17  18
ENDBRANCH   1  17
TORSDOF 5
