REMARK  Name = ZINC48803387
REMARK  8 active torsions:
REMARK  status: ('A' for Active; 'I' for Inactive)
REMARK    1  A    between atoms: C_1  and  C_2
REMARK    2  A    between atoms: C_7  and  C_8
REMARK    3  A    between atoms: C_8  and  C_10
REMARK    4  A    between atoms: C_8  and  N_11
REMARK    5  A    between atoms: C_12  and  C_14
REMARK    6  A    between atoms: N_16  and  C_17
REMARK    7  A    between atoms: C_21  and  N_23
REMARK    8  A    between atoms: C_24  and  C_26
REMARK                            x       y       z     vdW  Elec       q    Type
REMARK                         _______ _______ _______ _____ _____    ______ ____
ROOT
ATOM      1  C   UNL     1       1.829  -1.044   5.680  0.00  0.00    +0.303 C 
ATOM      2  O   UNL     1       1.813  -2.252   5.565  0.00  0.00    -0.265 OA
ATOM      3  N   UNL     1       2.396  -0.478   6.763  0.00  0.00    -0.278 N 
ATOM      4  H   UNL     1       2.469   0.488   6.824  0.00  0.00    +0.155 HD
ENDROOT
BRANCH   3   5
ATOM      5  C   UNL     1       2.879  -1.282   7.800  0.00  0.00    +0.036 A 
ATOM      6  C   UNL     1       3.462  -2.510   7.514  0.00  0.00    +0.026 A 
ATOM      7  C   UNL     1       3.940  -3.305   8.537  0.00  0.00    +0.042 A 
ATOM      8  C   UNL     1       3.840  -2.881   9.850  0.00  0.00    +0.145 A 
ATOM      9  C   UNL     1       3.258  -1.652  10.143  0.00  0.00    +0.071 A 
ATOM     10  C   UNL     1       2.783  -0.850   9.116  0.00  0.00    +0.049 A 
ATOM     11  F   UNL     1       4.308  -3.662  10.849  0.00  0.00    -0.204 F 
BRANCH   9  12
ATOM     12  N   UNL     1       3.157  -1.223  11.472  0.00  0.00    -0.283 N 
ATOM     13  C   UNL     1       2.092  -0.497  11.866  0.00  0.00    +0.214 C 
ATOM     14  O   UNL     1       1.264  -0.144  11.053  0.00  0.00    -0.276 OA
ATOM     15  C   UNL     1       1.932  -0.122  13.317  0.00  0.00    +0.109 C 
ATOM     16  H   UNL     1       3.853  -1.449  12.109  0.00  0.00    +0.155 HD
ENDBRANCH   9  12
ENDBRANCH   3   5
BRANCH   1  18
ATOM     17  N   UNL     1       0.656  -0.751   3.536  0.00  0.00    -0.301 N 
ATOM     18  C   UNL     1       1.222  -0.185   4.620  0.00  0.00    +0.300 C 
ATOM     19  O   UNL     1       1.239   1.023   4.734  0.00  0.00    -0.265 OA
ATOM     20  H   UNL     1       0.642  -1.717   3.444  0.00  0.00    +0.150 HD
BRANCH  17  21
ATOM     21  C   UNL     1       0.060   0.091   2.496  0.00  0.00    +0.101 C 
ATOM     22  C   UNL     1      -1.378   0.440   2.884  0.00  0.00    +0.033 C 
BRANCH  21  29
ATOM     23  C   UNL     1       0.037   1.554   0.005  0.00  0.00    +0.044 C 
ATOM     24  C   UNL     1       0.049   0.047  -0.006  0.00  0.00    -0.046 A 
ATOM     25  C   UNL     1       0.056  -0.635  -1.209  0.00  0.00    +0.004 A 
ATOM     26  C   UNL     1       0.067  -2.017  -1.219  0.00  0.00    +0.000 A 
ATOM     27  C   UNL     1       0.073  -2.717  -0.027  0.00  0.00    +0.000 A 
ATOM     28  C   UNL     1       0.068  -2.035   1.175  0.00  0.00    +0.006 A 
ATOM     29  C   UNL     1       0.061  -0.653   1.185  0.00  0.00    -0.025 A 
ENDBRANCH  21  29
ENDBRANCH  17  21
ENDBRANCH   1  18
TORSDOF 5
