REMARK  Name = ZINC20617290
REMARK  10 active torsions:
REMARK  status: ('A' for Active; 'I' for Inactive)
REMARK    1  A    between atoms: C_1  and  C_2
REMARK    2  A    between atoms: C_2  and  O_3
REMARK    3  A    between atoms: O_3  and  C_4
REMARK    4  A    between atoms: C_7  and  N_10
REMARK    5  A    between atoms: C_12  and  C_24
REMARK    6  A    between atoms: C_15  and  C_22
REMARK    7  A    between atoms: C_18  and  C_21
REMARK    8  A    between atoms: C_22  and  O_23
REMARK    9  A    between atoms: N_26  and  C_27
REMARK   10  A    between atoms: C_31  and  C_33
REMARK                            x       y       z     vdW  Elec       q    Type
REMARK                         _______ _______ _______ _____ _____    ______ ____
ROOT
ATOM      1  N   UNL     1      -0.828  -0.757  -0.708  0.00  0.00    -0.325 N 
ATOM      2  C   UNL     1       0.029  -0.066   0.009  0.00  0.00    +0.212 A 
ATOM      3  C   UNL     1       1.041  -0.745   0.844  0.00  0.00    +0.098 A 
ATOM      4  C   UNL     1       2.206  -0.059   1.105  0.00  0.00    +0.030 A 
ATOM      5  C   UNL     1       2.337   1.284   0.536  0.00  0.00    +0.027 A 
ATOM      6  C   UNL     1       3.564   1.959   0.515  0.00  0.00    +0.007 A 
ATOM      7  C   UNL     1       3.610   3.221  -0.041  0.00  0.00    +0.117 A 
ATOM      8  N   UNL     1       2.529   3.787  -0.545  0.00  0.00    -0.256 NA
ATOM      9  C   UNL     1       1.353   3.192  -0.549  0.00  0.00    +0.081 A 
ATOM     10  C   UNL     1       1.207   1.922  -0.009  0.00  0.00    +0.159 A 
ATOM     11  O   UNL     1       0.009   1.292   0.003  0.00  0.00    -0.437 OA
ATOM     12  C   UNL     1       0.159   3.896  -1.141  0.00  0.00    +0.069 C 
ATOM     13  H   UNL     1      -0.747  -1.853  -0.758  0.00  0.00    +0.169 HD
ENDROOT
BRANCH   1  17
ATOM     14  C   UNL     1      -3.837   1.190  -2.781  0.00  0.00    +0.121 A 
ATOM     15  C   UNL     1      -2.649   0.869  -3.424  0.00  0.00    +0.047 A 
ATOM     16  C   UNL     1      -1.644   0.221  -2.738  0.00  0.00    +0.029 A 
ATOM     17  C   UNL     1      -1.823  -0.114  -1.393  0.00  0.00    +0.042 A 
ATOM     18  C   UNL     1      -3.022   0.206  -0.752  0.00  0.00    +0.029 A 
ATOM     19  C   UNL     1      -4.019   0.860  -1.445  0.00  0.00    +0.047 A 
BRANCH  14  20
ATOM     20  O   UNL     1      -4.825   1.829  -3.462  0.00  0.00    -0.492 OA
BRANCH  20  22
ATOM     21  C   UNL     1      -7.010   2.842  -3.665  0.00  0.00    +0.048 C 
ATOM     22  C   UNL     1      -6.021   2.128  -2.740  0.00  0.00    +0.225 C 
ENDBRANCH  20  22
ENDBRANCH  14  20
ENDBRANCH   1  17
BRANCH   3  23
ATOM     23  C   UNL     1       0.813  -2.101   1.375  0.00  0.00    +0.253 C 
ATOM     24  O   UNL     1       1.664  -2.637   2.059  0.00  0.00    -0.270 OA
ATOM     25  N   UNL     1      -0.337  -2.747   1.101  0.00  0.00    -0.281 N 
ATOM     26  H   UNL     1      -1.074  -2.295   0.421  0.00  0.00    +0.155 HD
BRANCH  25  27
ATOM     27  C   UNL     1      -0.595  -3.993   1.683  0.00  0.00    +0.034 A 
ATOM     28  C   UNL     1       0.445  -4.889   1.897  0.00  0.00    +0.023 A 
ATOM     29  C   UNL     1       0.188  -6.117   2.475  0.00  0.00    +0.002 A 
ATOM     30  C   UNL     1      -1.104  -6.458   2.831  0.00  0.00    +0.012 A 
ATOM     31  C   UNL     1      -2.142  -5.570   2.615  0.00  0.00    +0.057 A 
ATOM     32  C   UNL     1      -1.891  -4.339   2.041  0.00  0.00    +0.035 A 
BRANCH  31  33
ATOM     33  C   UNL     1      -3.548  -5.947   3.004  0.00  0.00    +0.417 C 
ATOM     34  F   UNL     1      -4.176  -6.582   1.927  0.00  0.00    -0.166 F 
ATOM     35  F   UNL     1      -3.512  -6.815   4.100  0.00  0.00    -0.166 F 
ATOM     36  F   UNL     1      -4.262  -4.793   3.346  0.00  0.00    -0.166 F 
ENDBRANCH  31  33
ENDBRANCH  25  27
ENDBRANCH   3  23
BRANCH   6  37
ATOM     37  C   UNL     1       4.804   1.323   1.088  0.00  0.00    +0.193 C 
BRANCH  37  38
ATOM     38  O   UNL     1       5.909   2.217   0.941  0.00  0.00    -0.390 OA
ATOM     39  H   UNL     1       6.905   1.924   1.304  0.00  0.00    +0.210 HD
ENDBRANCH  37  38
ENDBRANCH   6  37
TORSDOF 8
