REMARK  Name = ZINC64127573
REMARK  11 active torsions:
REMARK  status: ('A' for Active; 'I' for Inactive)
REMARK    1  A    between atoms: C_1  and  C_2
REMARK    2  A    between atoms: C_2  and  C_4
REMARK    3  A    between atoms: C_2  and  N_14
REMARK    4  A    between atoms: C_7  and  C_10
REMARK    5  A    between atoms: C_10  and  C_11
REMARK    6  A    between atoms: C_10  and  C_12
REMARK    7  A    between atoms: C_10  and  C_13
REMARK    8  A    between atoms: C_15  and  C_17
REMARK    9  A    between atoms: C_17  and  C_18
REMARK   10  A    between atoms: C_18  and  C_19
REMARK   11  A    between atoms: C_22  and  C_25
REMARK                            x       y       z     vdW  Elec       q    Type
REMARK                         _______ _______ _______ _____ _____    ______ ____
ROOT
ATOM      1  N   UNL     1       0.711  -0.489   1.189  0.00  0.00    -0.309 N 
ATOM      2  C   UNL     1       0.051  -0.633   2.355  0.00  0.00    +0.214 C 
ATOM      3  O   UNL     1      -1.129  -0.361   2.423  0.00  0.00    -0.276 OA
ATOM      4  H   UNL     1       1.654  -0.707   1.135  0.00  0.00    +0.149 HD
ENDROOT
BRANCH   1   6
ATOM      5  C   UNL     1      -0.019   1.526   0.010  0.00  0.00    +0.033 C 
ATOM      6  C   UNL     1       0.002  -0.004   0.002  0.00  0.00    +0.100 C 
BRANCH   6   7
ATOM      7  C   UNL     1       0.707  -0.490  -1.238  0.00  0.00    -0.027 A 
ATOM      8  C   UNL     1       2.089  -0.511  -1.284  0.00  0.00    +0.006 A 
ATOM      9  C   UNL     1       2.736  -0.957  -2.421  0.00  0.00    +0.004 A 
ATOM     10  C   UNL     1       2.002  -1.382  -3.512  0.00  0.00    -0.042 A 
ATOM     11  C   UNL     1       0.620  -1.362  -3.466  0.00  0.00    +0.004 A 
ATOM     12  C   UNL     1      -0.027  -0.920  -2.327  0.00  0.00    +0.006 A 
BRANCH  10  13
ATOM     13  C   UNL     1       2.707  -1.867  -4.753  0.00  0.00    -0.013 C 
ATOM     14  C   UNL     1       3.582  -3.073  -4.403  0.00  0.00    +0.015 C 
ATOM     15  C   UNL     1       1.671  -2.276  -5.802  0.00  0.00    +0.015 C 
ATOM     16  C   UNL     1       3.584  -0.745  -5.312  0.00  0.00    +0.015 C 
ENDBRANCH  10  13
ENDBRANCH   6   7
ENDBRANCH   1   6
BRANCH   2  17
ATOM     17  C   UNL     1       0.780  -1.133   3.576  0.00  0.00    +0.101 C 
BRANCH  17  18
ATOM     18  C   UNL     1      -0.191  -1.204   4.756  0.00  0.00    +0.077 C 
BRANCH  18  19
ATOM     19  C   UNL     1       0.549  -1.711   5.996  0.00  0.00    +0.292 C 
ATOM     20  N   UNL     1      -0.346  -1.712   7.164  0.00  0.00    -0.287 N 
ATOM     21  C   UNL     1      -0.441  -3.025   7.593  0.00  0.00    +0.205 C 
ATOM     22  N   UNL     1       0.269  -3.811   6.851  0.00  0.00    -0.064 NA
ATOM     23  O   UNL     1       0.927  -3.085   5.827  0.00  0.00    -0.369 OA
ATOM     24  H   UNL     1      -0.785  -0.942   7.557  0.00  0.00    +0.151 HD
BRANCH  21  25
ATOM     25  C   UNL     1      -1.247  -3.470   8.749  0.00  0.00    +0.192 A 
ATOM     26  N   UNL     1      -1.360  -4.740   9.201  0.00  0.00    -0.256 N 
ATOM     27  H   UNL     1      -0.931  -5.529   8.834  0.00  0.00    +0.191 HD
ATOM     28  N   UNL     1      -2.221  -4.687  10.309  0.00  0.00    -0.161 NA
ATOM     29  C   UNL     1      -2.570  -3.435  10.462  0.00  0.00    +0.245 A 
ATOM     30  N   UNL     1      -1.981  -2.699   9.526  0.00  0.00    -0.212 NA
ENDBRANCH  21  25
ENDBRANCH  18  19
ENDBRANCH  17  18
ENDBRANCH   2  17
TORSDOF 7
