REMARK  Name = ZINC49009618
REMARK  6 active torsions:
REMARK  status: ('A' for Active; 'I' for Inactive)
REMARK    1  A    between atoms: C_1  and  C_2
REMARK    2  A    between atoms: C_7  and  N_10
REMARK    3  A    between atoms: N_10  and  C_11
REMARK    4  A    between atoms: N_10  and  S_12
REMARK    5  A    between atoms: S_12  and  C_15
REMARK    6  A    between atoms: C_20  and  N_21
REMARK                            x       y       z     vdW  Elec       q    Type
REMARK                         _______ _______ _______ _____ _____    ______ ____
ROOT
ATOM      1  S   UNL     1       2.693  -3.463   2.334  0.00  0.00    +0.063 S 
ATOM      2  O   UNL     1       2.784  -4.333   3.453  0.00  0.00    -0.153 OA
ATOM      3  O   UNL     1       2.477  -3.940   1.013  0.00  0.00    -0.153 OA
ENDROOT
BRANCH   1   4
ATOM      4  C   UNL     1       4.191  -2.535   2.295  0.00  0.00    +0.126 A 
ATOM      5  C   UNL     1       5.155  -2.738   3.264  0.00  0.00    +0.031 A 
ATOM      6  C   UNL     1       6.330  -2.011   3.234  0.00  0.00    +0.017 A 
ATOM      7  C   UNL     1       6.546  -1.078   2.234  0.00  0.00    +0.020 A 
ATOM      8  C   UNL     1       5.585  -0.871   1.263  0.00  0.00    +0.040 A 
ATOM      9  C   UNL     1       4.406  -1.604   1.287  0.00  0.00    +0.052 A 
ATOM     10 BR   UNL     1       8.155  -0.087   2.198  0.00  0.00    -0.050 Br
BRANCH   9  11
ATOM     11  N   UNL     1       3.435  -1.401   0.303  0.00  0.00    -0.356 N 
ATOM     12  H   UNL     1       2.664  -1.988   0.255  0.00  0.00    +0.142 HD
ATOM     13  H   UNL     1       3.533  -0.674  -0.332  0.00  0.00    +0.142 HD
ENDBRANCH   9  11
ENDBRANCH   1   4
BRANCH   1  14
ATOM     14  N   UNL     1       1.467  -2.399   2.659  0.00  0.00    -0.177 NA
ATOM     15  C   UNL     1       1.182  -2.011   4.043  0.00  0.00    +0.132 C 
BRANCH  14  21
ATOM     16  C   UNL     1       0.130   1.778   0.377  0.00  0.00    +0.007 C 
ATOM     17  C   UNL     1      -0.019   0.255   0.398  0.00  0.00    -0.013 C 
ATOM     18  C   UNL     1      -1.490  -0.111   0.605  0.00  0.00    +0.003 C 
ATOM     19  C   UNL     1      -1.639  -1.633   0.626  0.00  0.00    +0.002 C 
ATOM     20  C   UNL     1      -0.804  -2.211   1.771  0.00  0.00    +0.020 C 
ATOM     21  C   UNL     1       0.667  -1.845   1.564  0.00  0.00    +0.080 C 
ATOM     22  C   UNL     1       0.816  -0.323   1.542  0.00  0.00    +0.024 C 
ENDBRANCH  14  21
ENDBRANCH   1  14
TORSDOF 4
