REMARK  Name = ZINC63400689
REMARK  2 active torsions:
REMARK  status: ('A' for Active; 'I' for Inactive)
REMARK    1  A    between atoms: C_5  and  C_21
REMARK    2  A    between atoms: C_10  and  C_11
REMARK                            x       y       z     vdW  Elec       q    Type
REMARK                         _______ _______ _______ _____ _____    ______ ____
ROOT
ATOM      1  C   UNL     1      -0.017   1.402   0.010  0.00  0.00    +0.006 A 
ATOM      2  C   UNL     1       1.108   2.144   0.003  0.00  0.00    +0.028 A 
ATOM      3  C   UNL     1       2.417   1.476  -0.013  0.00  0.00    +0.060 A 
ATOM      4  N   UNL     1       3.639   1.924  -0.022  0.00  0.00    -0.363 N 
ATOM      5  C   UNL     1       4.535   0.761  -0.037  0.00  0.00    +0.180 C 
ATOM      6  N   UNL     1       3.671  -0.427  -0.035  0.00  0.00    -0.363 N 
ATOM      7  C   UNL     1       2.437  -0.012  -0.021  0.00  0.00    +0.060 A 
ATOM      8  C   UNL     1       1.147  -0.715  -0.013  0.00  0.00    +0.031 A 
ATOM      9  C   UNL     1       0.002  -0.004   0.002  0.00  0.00    -0.039 A 
ATOM     10  H   UNL     1       3.909   2.856  -0.020  0.00  0.00    +0.162 HD
ATOM     11  H   UNL     1       3.966  -1.351  -0.043  0.00  0.00    +0.162 HD
ENDROOT
BRANCH   9  12
ATOM     12  C   UNL     1      -1.310  -0.745   0.011  0.00  0.00    -0.003 C 
ATOM     13  C   UNL     1      -1.412  -1.617  -1.242  0.00  0.00    +0.015 C 
ATOM     14  C   UNL     1      -2.744  -2.370  -1.233  0.00  0.00    -0.010 C 
ATOM     15  C   UNL     1      -3.897  -1.365  -1.216  0.00  0.00    +0.007 C 
ATOM     16  C   UNL     1      -3.796  -0.493   0.037  0.00  0.00    -0.010 C 
ATOM     17  C   UNL     1      -2.463   0.260   0.028  0.00  0.00    +0.015 C 
ATOM     18  C   UNL     1      -3.872  -1.379   1.282  0.00  0.00    +0.007 C 
ATOM     19  C   UNL     1      -2.719  -2.384   1.266  0.00  0.00    -0.010 C 
ATOM     20  C   UNL     1      -2.821  -3.256   0.013  0.00  0.00    +0.007 C 
ATOM     21  C   UNL     1      -1.387  -1.631   1.256  0.00  0.00    +0.015 C 
ENDBRANCH   9  12
BRANCH   5  22
ATOM     22  C   UNL     1       5.400   0.780  -1.299  0.00  0.00    +0.010 C 
ATOM     23  C   UNL     1       4.499   0.774  -2.535  0.00  0.00    +0.014 C 
ATOM     24  C   UNL     1       5.364   0.793  -3.797  0.00  0.00    -0.010 C 
ATOM     25  C   UNL     1       6.229   2.055  -3.803  0.00  0.00    +0.007 C 
ATOM     26  C   UNL     1       7.130   2.062  -2.566  0.00  0.00    -0.010 C 
ATOM     27  C   UNL     1       6.265   2.042  -1.305  0.00  0.00    +0.014 C 
ATOM     28  C   UNL     1       8.032   0.826  -2.586  0.00  0.00    +0.007 C 
ATOM     29  C   UNL     1       7.167  -0.436  -2.580  0.00  0.00    -0.010 C 
ATOM     30  C   UNL     1       6.266  -0.443  -3.816  0.00  0.00    +0.007 C 
ATOM     31  C   UNL     1       6.302  -0.456  -1.318  0.00  0.00    +0.014 C 
ENDBRANCH   5  22
TORSDOF 2
