REMARK  Name = ZINC27902646
REMARK  3 active torsions:
REMARK  status: ('A' for Active; 'I' for Inactive)
REMARK    1  A    between atoms: C_4  and  N_7
REMARK    2  A    between atoms: C_11  and  C_12
REMARK    3  A    between atoms: C_21  and  O_22
REMARK                            x       y       z     vdW  Elec       q    Type
REMARK                         _______ _______ _______ _____ _____    ______ ____
ROOT
ATOM      1  N   UNL     1       1.042   2.018  -0.170  0.00  0.00    -0.184 N 
ATOM      2  C   UNL     1      -0.036   1.213  -0.243  0.00  0.00    +0.272 C 
ATOM      3  O   UNL     1      -0.033   0.018  -0.469  0.00  0.00    -0.268 OA
ATOM      4  C   UNL     1      -1.218   2.059  -0.003  0.00  0.00    +0.102 C 
ATOM      5  C   UNL     1      -2.546   1.665   0.012  0.00  0.00    +0.030 C 
ATOM      6  C   UNL     1      -0.683   3.414   0.220  0.00  0.00    +0.266 C 
ATOM      7  O   UNL     1      -1.329   4.418   0.457  0.00  0.00    -0.268 OA
ATOM      8  N   UNL     1       0.655   3.329   0.106  0.00  0.00    -0.223 N 
ATOM      9  H   UNL     1       1.416   4.119   0.199  0.00  0.00    +0.174 HD
ENDROOT
BRANCH   5  10
ATOM     10  C   UNL     1      -3.568   2.631   0.133  0.00  0.00    +0.025 A 
ATOM     11  C   UNL     1      -4.514   2.587   1.252  0.00  0.00    -0.007 A 
ATOM     12  C   UNL     1      -4.436   1.594   2.233  0.00  0.00    +0.009 A 
ATOM     13  C   UNL     1      -5.336   1.588   3.259  0.00  0.00    +0.001 A 
ATOM     14  C   UNL     1      -6.330   2.558   3.343  0.00  0.00    +0.001 A 
ATOM     15  C   UNL     1      -6.432   3.540   2.404  0.00  0.00    +0.008 A 
ATOM     16  C   UNL     1      -5.522   3.576   1.334  0.00  0.00    -0.017 A 
ATOM     17  C   UNL     1      -5.598   4.576   0.346  0.00  0.00    +0.012 A 
ATOM     18  C   UNL     1      -4.715   4.606  -0.687  0.00  0.00    +0.046 A 
ATOM     19  C   UNL     1      -3.699   3.660  -0.813  0.00  0.00    +0.125 A 
BRANCH  19  20
ATOM     20  O   UNL     1      -2.837   3.731  -1.855  0.00  0.00    -0.506 OA
ATOM     21  H   UNL     1      -2.937   4.536  -2.598  0.00  0.00    +0.292 HD
ENDBRANCH  19  20
ENDBRANCH   5  10
BRANCH   1  25
ATOM     22  C   UNL     1       4.979   0.765  -0.697  0.00  0.00    +0.000 A 
ATOM     23  C   UNL     1       4.708   2.093  -0.426  0.00  0.00    +0.002 A 
ATOM     24  C   UNL     1       3.404   2.512  -0.251  0.00  0.00    +0.025 A 
ATOM     25  C   UNL     1       2.364   1.597  -0.347  0.00  0.00    +0.056 A 
ATOM     26  C   UNL     1       2.639   0.262  -0.614  0.00  0.00    +0.025 A 
ATOM     27  C   UNL     1       3.945  -0.149  -0.794  0.00  0.00    +0.002 A 
ENDBRANCH   1  25
TORSDOF 3
