REMARK  Name = ZINC43140504
REMARK  5 active torsions:
REMARK  status: ('A' for Active; 'I' for Inactive)
REMARK    1  A    between atoms: C_1  and  C_2
REMARK    2  A    between atoms: C_2  and  C_4
REMARK    3  A    between atoms: C_2  and  N_12
REMARK    4  A    between atoms: N_15  and  N_16
REMARK    5  A    between atoms: N_19  and  C_20
REMARK                            x       y       z     vdW  Elec       q    Type
REMARK                         _______ _______ _______ _____ _____    ______ ____
ROOT
ATOM      1  N   UNL     1      -1.545  -0.840   0.223  0.00  0.00    -0.292 N 
ATOM      2  C   UNL     1      -2.256  -0.979  -0.914  0.00  0.00    +0.316 C 
ATOM      3  O   UNL     1      -1.790  -0.602  -1.972  0.00  0.00    -0.251 OA
ATOM      4  N   UNL     1      -3.483  -1.534  -0.877  0.00  0.00    -0.217 N 
ATOM      5  H   UNL     1      -1.917  -1.140   1.067  0.00  0.00    +0.151 HD
ATOM      6  H   UNL     1      -3.995  -1.634  -1.695  0.00  0.00    +0.174 HD
ENDROOT
BRANCH   4   7
ATOM      7  N   UNL     1      -4.020  -1.968   0.342  0.00  0.00    -0.217 N 
ATOM      8  C   UNL     1      -5.248  -2.523   0.378  0.00  0.00    +0.320 C 
ATOM      9  O   UNL     1      -5.714  -2.900   1.436  0.00  0.00    -0.251 OA
ATOM     10  N   UNL     1      -5.959  -2.662  -0.758  0.00  0.00    -0.268 N 
ATOM     11  H   UNL     1      -3.509  -1.868   1.160  0.00  0.00    +0.174 HD
ATOM     12  H   UNL     1      -5.558  -2.433  -1.612  0.00  0.00    +0.156 HD
BRANCH  10  13
ATOM     13  C   UNL     1      -7.274  -3.137  -0.708  0.00  0.00    +0.035 A 
ATOM     14  C   UNL     1      -7.772  -3.918  -1.742  0.00  0.00    +0.023 A 
ATOM     15  C   UNL     1      -9.071  -4.385  -1.688  0.00  0.00    +0.002 A 
ATOM     16  C   UNL     1      -9.875  -4.075  -0.607  0.00  0.00    +0.000 A 
ATOM     17  C   UNL     1      -9.382  -3.297   0.424  0.00  0.00    +0.002 A 
ATOM     18  C   UNL     1      -8.082  -2.832   0.380  0.00  0.00    +0.023 A 
ENDBRANCH  10  13
ENDBRANCH   4   7
BRANCH   1  20
ATOM     19  C   UNL     1      -0.333   1.281   0.342  0.00  0.00    +0.033 C 
ATOM     20  C   UNL     1      -0.211  -0.236   0.184  0.00  0.00    +0.103 C 
BRANCH  20  21
ATOM     21  C   UNL     1       0.626  -0.793   1.306  0.00  0.00    -0.009 A 
ATOM     22  C   UNL     1       0.017  -1.254   2.459  0.00  0.00    +0.008 A 
ATOM     23  C   UNL     1       0.784  -1.765   3.489  0.00  0.00    +0.020 A 
ATOM     24  C   UNL     1       2.162  -1.815   3.367  0.00  0.00    +0.042 A 
ATOM     25  C   UNL     1       2.771  -1.354   2.214  0.00  0.00    +0.040 A 
ATOM     26  C   UNL     1       2.002  -0.848   1.181  0.00  0.00    +0.047 A 
ATOM     27 CL   UNL     1       2.766  -0.275  -0.269  0.00  0.00    -0.083 Cl
ATOM     28 CL   UNL     1       3.124  -2.456   4.662  0.00  0.00    -0.083 Cl
ENDBRANCH  20  21
ENDBRANCH   1  20
TORSDOF 4
