REMARK  Name = ZINC51036386
REMARK  7 active torsions:
REMARK  status: ('A' for Active; 'I' for Inactive)
REMARK    1  A    between atoms: C_1  and  C_2
REMARK    2  A    between atoms: C_2  and  C_3
REMARK    3  A    between atoms: C_3  and  C_5
REMARK    4  A    between atoms: C_3  and  N_22
REMARK    5  A    between atoms: C_5  and  C_7
REMARK    6  A    between atoms: C_5  and  S_11
REMARK    7  A    between atoms: S_11  and  C_12
REMARK                            x       y       z     vdW  Elec       q    Type
REMARK                         _______ _______ _______ _____ _____    ______ ____
ROOT
ATOM      1  C   UNL     1       1.105  -1.957  -1.168  0.00  0.00    +0.142 C 
ENDROOT
BRANCH   1   2
ATOM      2  C   UNL     1      -0.169  -2.765  -0.910  0.00  0.00    +0.400 C 
ATOM      3  F   UNL     1      -1.027  -2.648  -2.008  0.00  0.00    -0.170 F 
ATOM      4  F   UNL     1       0.163  -4.111  -0.719  0.00  0.00    -0.170 F 
ATOM      5  F   UNL     1      -0.807  -2.276   0.235  0.00  0.00    -0.170 F 
ENDBRANCH   1   2
BRANCH   1   6
ATOM      6  C   UNL     1       0.732  -0.513  -1.508  0.00  0.00    -0.053 C 
BRANCH   6   7
ATOM      7  N   UNL     1      -0.004   0.081  -0.384  0.00  0.00    +0.381 N 
ATOM      8  H   UNL     1       0.547   0.000   0.458  0.00  0.00    -0.090 HD
ATOM      9  H   UNL     1      -0.183   1.055  -0.576  0.00  0.00    -0.090 HD
ATOM     10  H   UNL     1      -0.880  -0.405  -0.261  0.00  0.00    -0.090 HD
ENDBRANCH   6   7
BRANCH   6  12
ATOM     11  C   UNL     1       1.630   1.704  -2.229  0.00  0.00    +0.002 C 
ATOM     12  C   UNL     1       2.005   0.294  -1.768  0.00  0.00    -0.018 C 
ENDBRANCH   6  12
ENDBRANCH   1   6
BRANCH   1  13
ATOM     13  S   UNL     1       2.014  -2.690  -2.556  0.00  0.00    -0.093 S 
BRANCH  13  14
ATOM     14  C   UNL     1       2.495  -4.277  -1.960  0.00  0.00    +0.126 A 
ATOM     15  C   UNL     1       3.233  -5.149  -2.764  0.00  0.00    +0.117 A 
ATOM     16  C   UNL     1       3.592  -6.402  -2.245  0.00  0.00    +0.182 A 
ATOM     17  N   UNL     1       4.289  -7.038  -3.206  0.00  0.00    -0.216 NA
ATOM     18  H   UNL     1       3.672  -4.365  -4.668  0.00  0.00    +0.167 HD
ATOM     19  C   UNL     1       4.381  -6.277  -4.261  0.00  0.00    +0.199 A 
ATOM     20  N   UNL     1       3.748  -5.102  -4.042  0.00  0.00    -0.341 N 
ATOM     21  N   UNL     1       3.213  -6.713  -1.000  0.00  0.00    -0.214 NA
ATOM     22  C   UNL     1       2.519  -5.861  -0.280  0.00  0.00    +0.224 A 
ATOM     23  N   UNL     1       2.166  -4.671  -0.732  0.00  0.00    -0.227 NA
ENDBRANCH  13  14
ENDBRANCH   1  13
TORSDOF 6
