REMARK  Name = ZINC45405359
REMARK  7 active torsions:
REMARK  status: ('A' for Active; 'I' for Inactive)
REMARK    1  A    between atoms: C_1  and  C_2
REMARK    2  A    between atoms: C_2  and  C_3
REMARK    3  A    between atoms: C_3  and  C_5
REMARK    4  A    between atoms: C_3  and  N_12
REMARK    5  A    between atoms: N_15  and  N_16
REMARK    6  A    between atoms: N_16  and  C_17
REMARK    7  A    between atoms: C_17  and  C_24
REMARK                            x       y       z     vdW  Elec       q    Type
REMARK                         _______ _______ _______ _____ _____    ______ ____
ROOT
ATOM      1  N   UNL     1      -2.082  -0.162   1.273  0.00  0.00    -0.292 N 
ATOM      2  C   UNL     1      -2.664   1.047   1.400  0.00  0.00    +0.314 C 
ATOM      3  O   UNL     1      -2.651   1.829   0.469  0.00  0.00    -0.252 OA
ATOM      4  N   UNL     1      -3.260   1.389   2.559  0.00  0.00    -0.234 N 
ATOM      5  H   UNL     1      -2.092  -0.785   2.016  0.00  0.00    +0.151 HD
ATOM      6  H   UNL     1      -3.679   2.259   2.651  0.00  0.00    +0.171 HD
ENDROOT
BRANCH   4   7
ATOM      7  N   UNL     1      -3.274   0.511   3.605  0.00  0.00    -0.232 NA
ATOM      8  H   UNL     1      -2.338   0.226   3.851  0.00  0.00    +0.145 HD
BRANCH   7   9
ATOM      9  C   UNL     1      -3.972   1.083   4.764  0.00  0.00    +0.054 C 
ATOM     10  C   UNL     1      -5.380   1.495   4.334  0.00  0.00    +0.047 C 
ATOM     11  C   UNL     1      -6.373   0.318   4.544  0.00  0.00    +0.168 C 
ATOM     12  S   UNL     1      -5.741  -0.336   6.151  0.00  0.00    -0.029 S 
ATOM     13  O   UNL     1      -5.912  -1.746   6.182  0.00  0.00    -0.174 OA
ATOM     14  O   UNL     1      -6.253   0.458   7.212  0.00  0.00    -0.174 OA
ATOM     15  C   UNL     1      -3.957   0.052   5.909  0.00  0.00    +0.189 C 
ATOM     16  C   UNL     1      -3.217   2.333   5.221  0.00  0.00    +0.031 C 
ENDBRANCH   7   9
ENDBRANCH   4   7
BRANCH   1  17
ATOM     17  C   UNL     1      -1.433  -0.534   0.013  0.00  0.00    +0.104 C 
BRANCH  17  18
ATOM     18  C   UNL     1      -1.416  -2.035  -0.119  0.00  0.00    -0.027 A 
ATOM     19  C   UNL     1      -1.159  -2.823   0.987  0.00  0.00    +0.007 A 
ATOM     20  C   UNL     1      -1.143  -4.199   0.867  0.00  0.00    +0.020 A 
ATOM     21  C   UNL     1      -1.384  -4.789  -0.361  0.00  0.00    +0.041 A 
ATOM     22  C   UNL     1      -1.641  -4.000  -1.468  0.00  0.00    +0.020 A 
ATOM     23  C   UNL     1      -1.663  -2.623  -1.345  0.00  0.00    +0.007 A 
ATOM     24 CL   UNL     1      -1.363  -6.518  -0.514  0.00  0.00    -0.084 Cl
ENDBRANCH  17  18
BRANCH  17  26
ATOM     25  C   UNL     1      -0.019   1.526   0.010  0.00  0.00    +0.006 C 
ATOM     26  C   UNL     1       0.002  -0.004   0.002  0.00  0.00    +0.024 C 
ENDBRANCH  17  26
ENDBRANCH   1  17
TORSDOF 5
