REMARK  Name = ZINC04090783
REMARK  4 active torsions:
REMARK  status: ('A' for Active; 'I' for Inactive)
REMARK    1  A    between atoms: C_12  and  C_14
REMARK    2  A    between atoms: C_14  and  C_15
REMARK    3  A    between atoms: N_20  and  C_23
REMARK    4  A    between atoms: C_23  and  C_24
REMARK                            x       y       z     vdW  Elec       q    Type
REMARK                         _______ _______ _______ _____ _____    ______ ____
ROOT
ATOM      1  C   UNL     1      -8.306  -2.084   0.079  0.00  0.00    +0.000 A 
ATOM      2  C   UNL     1      -8.155  -3.424  -0.229  0.00  0.00    +0.002 A 
ATOM      3  C   UNL     1      -7.119  -3.841  -1.038  0.00  0.00    +0.023 A 
ATOM      4  C   UNL     1      -6.214  -2.914  -1.551  0.00  0.00    +0.036 A 
ATOM      5  C   UNL     1      -6.376  -1.568  -1.236  0.00  0.00    -0.028 A 
ATOM      6  C   UNL     1      -7.412  -1.157  -0.427  0.00  0.00    +0.004 A 
ATOM      7  C   UNL     1      -5.259  -0.846  -1.933  0.00  0.00    +0.050 C 
ATOM      8  C   UNL     1      -4.376  -0.082  -0.939  0.00  0.00    +0.088 C 
ATOM      9  C   UNL     1      -3.962   1.211  -1.696  0.00  0.00    +0.073 C 
ATOM     10  C   UNL     1      -4.622   1.101  -3.088  0.00  0.00    -0.049 C 
ATOM     11  C   UNL     1      -2.465   1.064  -1.844  0.00  0.00    +0.224 C 
ATOM     12  O   UNL     1      -1.731   1.865  -2.382  0.00  0.00    -0.275 OA
ATOM     13  N   UNL     1      -2.075  -0.089  -1.287  0.00  0.00    -0.239 N 
ATOM     14  C   UNL     1      -3.066  -0.813  -0.756  0.00  0.00    +0.225 C 
ATOM     15  O   UNL     1      -2.935  -1.888  -0.210  0.00  0.00    -0.275 OA
ATOM     16  C   UNL     1      -4.483  -1.920  -2.646  0.00  0.00    +0.211 C 
ATOM     17  O   UNL     1      -3.494  -1.765  -3.330  0.00  0.00    -0.277 OA
ATOM     18  N   UNL     1      -5.101  -3.086  -2.376  0.00  0.00    -0.286 N 
ATOM     19  H   UNL     1      -4.806  -3.946  -2.716  0.00  0.00    +0.155 HD
ATOM     20  N   UNL     1      -5.741   0.162  -2.864  0.00  0.00    +0.394 N 
ATOM     21  H   UNL     1      -6.545   0.658  -2.464  0.00  0.00    -0.083 HD
ATOM     22  H   UNL     1      -6.016  -0.278  -3.750  0.00  0.00    -0.083 HD
ENDROOT
BRANCH  10  23
ATOM     23  C   UNL     1      -5.112   2.474  -3.554  0.00  0.00    +0.080 C 
BRANCH  23  24
ATOM     24  C   UNL     1      -5.640   2.366  -4.962  0.00  0.00    +0.209 C 
ATOM     25  O   UNL     1      -5.625   1.298  -5.536  0.00  0.00    -0.276 OA
ATOM     26  N   UNL     1      -6.128   3.458  -5.584  0.00  0.00    -0.329 N 
ATOM     27  H   UNL     1      -6.140   4.312  -5.125  0.00  0.00    +0.145 HD
ATOM     28  H   UNL     1      -6.468   3.389  -6.490  0.00  0.00    +0.145 HD
ENDBRANCH  23  24
ENDBRANCH  10  23
BRANCH  13  29
ATOM     29  C   UNL     1      -0.676  -0.525  -1.266  0.00  0.00    +0.148 C 
BRANCH  29  30
ATOM     30  C   UNL     1       0.002  -0.004   0.002  0.00  0.00    +0.136 C 
ATOM     31  C   UNL     1       1.480  -0.451   0.029  0.00  0.00    +0.035 C 
ATOM     32  C   UNL     1       2.192   0.804   0.604  0.00  0.00    +0.031 C 
ATOM     33  C   UNL     1       1.326   1.937  -0.000  0.00  0.00    +0.160 C 
ATOM     34  O   UNL     1      -0.017   1.428   0.010  0.00  0.00    -0.375 OA
ENDBRANCH  29  30
ENDBRANCH  13  29
TORSDOF 4
