REMARK  Name = ZINC50265326
REMARK  8 active torsions:
REMARK  status: ('A' for Active; 'I' for Inactive)
REMARK    1  A    between atoms: C_1  and  C_2
REMARK    2  A    between atoms: C_2  and  C_3
REMARK    3  A    between atoms: C_3  and  N_4
REMARK    4  A    between atoms: C_6  and  S_10
REMARK    5  A    between atoms: C_8  and  C_9
REMARK    6  A    between atoms: S_10  and  N_13
REMARK    7  A    between atoms: N_13  and  C_14
REMARK    8  A    between atoms: C_17  and  N_21
REMARK                            x       y       z     vdW  Elec       q    Type
REMARK                         _______ _______ _______ _____ _____    ______ ____
ROOT
ATOM      1  S   UNL     1       2.281  -5.480  -0.593  0.00  0.00    +0.108 S 
ATOM      2  O   UNL     1       3.187  -5.104   0.435  0.00  0.00    -0.147 OA
ATOM      3  O   UNL     1       1.340  -6.532  -0.432  0.00  0.00    -0.147 OA
ENDROOT
BRANCH   1   6
ATOM      4  N   UNL     1       0.738  -1.962  -1.265  0.00  0.00    -0.334 N 
ATOM      5  C   UNL     1       1.750  -2.763  -0.808  0.00  0.00    +0.134 A 
ATOM      6  C   UNL     1       1.357  -4.037  -1.003  0.00  0.00    +0.195 A 
ATOM      7  N   UNL     1       0.139  -4.014  -1.564  0.00  0.00    -0.328 N 
ATOM      8  C   UNL     1      -0.240  -2.775  -1.719  0.00  0.00    +0.085 A 
ATOM      9  C   UNL     1      -1.551  -2.325  -2.311  0.00  0.00    +0.084 C 
ATOM     10  H   UNL     1      -0.380  -4.795  -1.812  0.00  0.00    +0.168 HD
BRANCH   4  11
ATOM     11  C   UNL     1       0.718  -0.497  -1.257  0.00  0.00    +0.123 C 
BRANCH  11  13
ATOM     12  C   UNL     1      -0.019   1.526   0.010  0.00  0.00    +0.005 C 
ATOM     13  C   UNL     1       0.002  -0.004   0.002  0.00  0.00    +0.018 C 
ENDBRANCH  11  13
ENDBRANCH   4  11
ENDBRANCH   1   6
BRANCH   1  14
ATOM     14  N   UNL     1       3.200  -5.865  -1.916  0.00  0.00    -0.095 NA
BRANCH  14  15
ATOM     15  C   UNL     1       4.046  -6.980  -1.880  0.00  0.00    +0.088 A 
ATOM     16  C   UNL     1       4.110  -7.767  -0.738  0.00  0.00    +0.029 A 
ATOM     17  C   UNL     1       4.945  -8.866  -0.702  0.00  0.00    +0.025 A 
ATOM     18  C   UNL     1       5.720  -9.186  -1.809  0.00  0.00    +0.026 A 
ATOM     19  C   UNL     1       5.656  -8.400  -2.952  0.00  0.00    +0.040 A 
ATOM     20  C   UNL     1       4.817  -7.303  -2.990  0.00  0.00    +0.044 A 
ATOM     21 BR   UNL     1       4.723  -6.237  -4.549  0.00  0.00    -0.048 Br
BRANCH  18  22
ATOM     22  N   UNL     1       6.566 -10.301  -1.773  0.00  0.00    -0.358 N 
ATOM     23  H   UNL     1       6.611 -10.850  -0.974  0.00  0.00    +0.142 HD
ATOM     24  H   UNL     1       7.107 -10.524  -2.546  0.00  0.00    +0.142 HD
ENDBRANCH  18  22
ENDBRANCH  14  15
ENDBRANCH   1  14
TORSDOF 6
