REMARK  Name = ZINC36266770
REMARK  5 active torsions:
REMARK  status: ('A' for Active; 'I' for Inactive)
REMARK    1  A    between atoms: C_5  and  C_8
REMARK    2  A    between atoms: C_5  and  N_21
REMARK    3  A    between atoms: C_8  and  N_9
REMARK    4  A    between atoms: N_9  and  S_10
REMARK    5  A    between atoms: S_10  and  C_13
REMARK                            x       y       z     vdW  Elec       q    Type
REMARK                         _______ _______ _______ _____ _____    ______ ____
ROOT
ATOM      1  C   UNL     1       2.481  -0.550  -0.451  0.00  0.00    +0.092 C 
ENDROOT
BRANCH   1   6
ATOM      2  C   UNL     1       0.186   1.674   0.046  0.00  0.00    -0.000 C 
ATOM      3  C   UNL     1       1.655   2.142   0.049  0.00  0.00    -0.000 C 
ATOM      4  C   UNL     1       2.195   2.015   1.448  0.00  0.00    -0.001 C 
ATOM      5  C   UNL     1       2.920   0.676   1.681  0.00  0.00    -0.012 C 
ATOM      6  C   UNL     1       2.183  -0.521   1.050  0.00  0.00    -0.057 C 
ATOM      7  C   UNL     1       0.693  -0.449   1.248  0.00  0.00    -0.012 C 
ATOM      8  C   UNL     1       0.065   0.224   0.010  0.00  0.00    -0.001 C 
BRANCH   6   9
ATOM      9  N   UNL     1       2.684  -1.761   1.656  0.00  0.00    +0.383 N 
ATOM     10  H   UNL     1       2.514  -1.743   2.650  0.00  0.00    -0.089 HD
ATOM     11  H   UNL     1       2.207  -2.551   1.248  0.00  0.00    -0.089 HD
ATOM     12  H   UNL     1       3.675  -1.843   1.485  0.00  0.00    -0.089 HD
ENDBRANCH   6   9
ENDBRANCH   1   6
BRANCH   1  13
ATOM     13  N   UNL     1       2.003  -1.812  -1.019  0.00  0.00    -0.196 NA
ATOM     14  H   UNL     1       1.776  -2.552  -0.435  0.00  0.00    +0.148 HD
BRANCH  13  15
ATOM     15  S   UNL     1       1.850  -1.976  -2.660  0.00  0.00    +0.034 S 
ATOM     16  O   UNL     1       1.349  -3.292  -2.848  0.00  0.00    -0.158 OA
ATOM     17  O   UNL     1       1.090  -0.846  -3.068  0.00  0.00    -0.158 OA
BRANCH  15  18
ATOM     18  C   UNL     1       3.542  -1.855  -3.301  0.00  0.00    +0.170 C 
ATOM     19  C   UNL     1       4.397  -2.985  -2.704  0.00  0.00    +0.052 C 
ATOM     20  C   UNL     1       5.734  -3.052  -3.495  0.00  0.00    +0.168 C 
ATOM     21  S   UNL     1       5.122  -2.790  -5.213  0.00  0.00    -0.029 S 
ATOM     22  O   UNL     1       5.974  -1.863  -5.872  0.00  0.00    -0.174 OA
ATOM     23  O   UNL     1       4.870  -4.054  -5.812  0.00  0.00    -0.174 OA
ATOM     24  C   UNL     1       3.517  -1.972  -4.844  0.00  0.00    +0.193 C 
ENDBRANCH  15  18
ENDBRANCH  13  15
ENDBRANCH   1  13
TORSDOF 5
