REMARK  Name = ZINC59748425
REMARK  5 active torsions:
REMARK  status: ('A' for Active; 'I' for Inactive)
REMARK    1  A    between atoms: C_1  and  C_2
REMARK    2  A    between atoms: C_7  and  C_8
REMARK    3  A    between atoms: N_10  and  C_11
REMARK    4  A    between atoms: C_11  and  C_18
REMARK    5  A    between atoms: C_20  and  C_23
REMARK                            x       y       z     vdW  Elec       q    Type
REMARK                         _______ _______ _______ _____ _____    ______ ____
ROOT
ATOM      1  C   UNL     1       0.578   0.068   4.893  0.00  0.00    +0.098 C 
ATOM      2  C   UNL     1      -0.708   0.890   5.116  0.00  0.00    +0.034 C 
ATOM      3  C   UNL     1      -1.887   0.056   4.694  0.00  0.00    +0.003 C 
ATOM      4  C   UNL     1      -2.517  -0.713   5.872  0.00  0.00    +0.000 C 
ATOM      5  C   UNL     1      -1.465  -1.324   6.817  0.00  0.00    +0.000 C 
ATOM      6  C   UNL     1      -0.310  -1.939   6.073  0.00  0.00    +0.003 C 
ATOM      7  C   UNL     1       0.816  -0.891   5.963  0.00  0.00    +0.034 C 
ENDROOT
BRANCH   1   8
ATOM      8  C   UNL     1       1.751   1.011   4.814  0.00  0.00    +0.195 A 
ATOM      9  N   UNL     1       1.887   2.010   3.934  0.00  0.00    -0.194 NA
ATOM     10  C   UNL     1       3.015   2.633   4.136  0.00  0.00    +0.224 A 
ATOM     11  O   UNL     1       3.641   2.045   5.164  0.00  0.00    -0.338 OA
ATOM     12  N   UNL     1       2.793   0.991   5.595  0.00  0.00    -0.059 NA
ATOM     13  C   UNL     1       3.526   3.812   3.349  0.00  0.00    +0.112 C 
ENDBRANCH   1   8
BRANCH   1  16
ATOM     14  C   UNL     1       0.242   0.022   2.481  0.00  0.00    +0.245 C 
ATOM     15  O   UNL     1       0.135   1.232   2.502  0.00  0.00    -0.270 OA
ATOM     16  N   UNL     1       0.465  -0.655   3.624  0.00  0.00    -0.299 N 
ATOM     17  H   UNL     1       0.551  -1.621   3.607  0.00  0.00    +0.150 HD
BRANCH  14  24
ATOM     18  C   UNL     1      -0.514   1.452   0.082  0.00  0.00    +0.044 C 
ATOM     19  C   UNL     1      -0.236  -0.029   0.037  0.00  0.00    -0.037 A 
ATOM     20  C   UNL     1      -0.335  -0.714  -1.156  0.00  0.00    +0.019 A 
ATOM     21  C   UNL     1      -0.080  -2.074  -1.200  0.00  0.00    +0.018 A 
ATOM     22  C   UNL     1       0.276  -2.755  -0.047  0.00  0.00    +0.016 A 
ATOM     23  C   UNL     1       0.378  -2.081   1.151  0.00  0.00    +0.014 A 
ATOM     24  C   UNL     1       0.128  -0.708   1.200  0.00  0.00    +0.040 A 
ATOM     25 BR   UNL     1      -0.219  -3.006  -2.839  0.00  0.00    -0.050 Br
ENDBRANCH  14  24
ENDBRANCH   1  16
TORSDOF 3
