REMARK  Name = ZINC14955073
REMARK  4 active torsions:
REMARK  status: ('A' for Active; 'I' for Inactive)
REMARK    1  A    between atoms: C_1  and  C_2
REMARK    2  A    between atoms: C_1  and  O_4
REMARK    3  A    between atoms: O_4  and  C_5
REMARK    4  A    between atoms: C_9  and  C_10
REMARK                            x       y       z     vdW  Elec       q    Type
REMARK                         _______ _______ _______ _____ _____    ______ ____
ROOT
ATOM      1  C   UNL     1       2.501   3.713  -0.002  0.00  0.00    +0.158 A 
ATOM      2  C   UNL     1       2.332   5.080   0.007  0.00  0.00    +0.081 A 
ATOM      3  C   UNL     1       1.074   5.592   0.022  0.00  0.00    +0.073 A 
ATOM      4  S   UNL     1       0.066   4.182   0.016  0.00  0.00    -0.070 S 
ATOM      5  C   UNL     1       1.343   2.936   0.005  0.00  0.00    +0.144 A 
ATOM      6 BR   UNL     1       0.548   7.409   0.037  0.00  0.00    -0.041 Br
ATOM      7 BR   UNL     1       3.834   6.229  -0.001  0.00  0.00    -0.045 Br
ENDROOT
BRANCH   5   8
ATOM      8  C   UNL     1       1.214   1.529  -0.001  0.00  0.00    +0.397 C 
ATOM      9  O   UNL     1       2.209   0.827  -0.015  0.00  0.00    -0.240 OA
ATOM     10  O   UNL     1      -0.011   0.963   0.007  0.00  0.00    -0.240 OA
ENDBRANCH   5   8
BRANCH   1  11
ATOM     11  O   UNL     1       3.736   3.148  -0.017  0.00  0.00    -0.478 OA
BRANCH  11  12
ATOM     12  C   UNL     1       4.313   2.886  -1.298  0.00  0.00    +0.353 C 
BRANCH  12  13
ATOM     13  C   UNL     1       5.674   2.264  -1.117  0.00  0.00    +0.393 C 
ATOM     14  O   UNL     1       6.105   2.065  -0.006  0.00  0.00    -0.243 OA
ATOM     15  O   UNL     1       6.407   1.930  -2.191  0.00  0.00    -0.243 OA
ENDBRANCH  12  13
ENDBRANCH  11  12
ENDBRANCH   1  11
TORSDOF 4
