REMARK  Name = ZINC67251028
REMARK  3 active torsions:
REMARK  status: ('A' for Active; 'I' for Inactive)
REMARK    1  A    between atoms: C_6  and  C_7
REMARK    2  A    between atoms: C_7  and  N_8
REMARK    3  A    between atoms: N_11  and  C_12
REMARK                            x       y       z     vdW  Elec       q    Type
REMARK                         _______ _______ _______ _____ _____    ______ ____
ROOT
ATOM      1  N   UNL     1      -1.737  -0.999  -1.367  0.00  0.00    -0.295 N 
ATOM      2  C   UNL     1      -2.873  -1.683  -1.607  0.00  0.00    +0.304 C 
ATOM      3  O   UNL     1      -3.543  -2.095  -0.679  0.00  0.00    -0.252 OA
ATOM      4  N   UNL     1      -3.268  -1.911  -2.876  0.00  0.00    -0.267 N 
ATOM      5  H   UNL     1      -1.203  -0.671  -2.108  0.00  0.00    +0.151 HD
ATOM      6  H   UNL     1      -2.770  -1.529  -3.615  0.00  0.00    +0.156 HD
ENDROOT
BRANCH   4   7
ATOM      7  C   UNL     1      -4.397  -2.701  -3.127  0.00  0.00    +0.073 A 
ATOM      8  C   UNL     1      -5.478  -2.665  -2.257  0.00  0.00    +0.064 A 
ATOM      9  C   UNL     1      -6.592  -3.446  -2.508  0.00  0.00    +0.125 A 
ATOM     10  C   UNL     1      -6.629  -4.263  -3.625  0.00  0.00    +0.041 A 
ATOM     11  C   UNL     1      -5.553  -4.301  -4.493  0.00  0.00    +0.043 A 
ATOM     12  C   UNL     1      -4.439  -3.519  -4.250  0.00  0.00    +0.145 A 
ATOM     13  F   UNL     1      -3.391  -3.553  -5.101  0.00  0.00    -0.204 F 
ATOM     14  F   UNL     1      -7.645  -3.411  -1.662  0.00  0.00    -0.205 F 
ENDBRANCH   4   7
BRANCH   1  15
ATOM     15  C   UNL     1      -1.308  -0.751   0.011  0.00  0.00    +0.141 C 
BRANCH  15  21
ATOM     16  C   UNL     1      -0.048   1.409   0.009  0.00  0.00    +0.009 A 
ATOM     17  C   UNL     1       1.133   2.131   0.002  0.00  0.00    +0.050 A 
ATOM     18  C   UNL     1       2.345   1.463  -0.009  0.00  0.00    +0.162 A 
ATOM     19  C   UNL     1       2.375   0.076  -0.014  0.00  0.00    +0.162 A 
ATOM     20  C   UNL     1       1.192  -0.643  -0.007  0.00  0.00    +0.054 A 
ATOM     21  C   UNL     1      -0.018   0.027   0.004  0.00  0.00    -0.027 A 
ATOM     22  O   UNL     1       3.576  -0.573  -0.024  0.00  0.00    -0.488 OA
ATOM     23  C   UNL     1       4.343  -0.448  -1.223  0.00  0.00    +0.232 C 
ATOM     24  C   UNL     1       5.162   0.834  -1.207  0.00  0.00    +0.082 C 
ATOM     25  C   UNL     1       4.289   2.079  -1.214  0.00  0.00    +0.232 C 
ATOM     26  O   UNL     1       3.517   2.163  -0.015  0.00  0.00    -0.488 OA
ENDBRANCH  15  21
ENDBRANCH   1  15
TORSDOF 3
