REMARK  Name = ZINC00098181
REMARK  4 active torsions:
REMARK  status: ('A' for Active; 'I' for Inactive)
REMARK    1  A    between atoms: C_1  and  C_2
REMARK    2  A    between atoms: C_2  and  C_20
REMARK    3  A    between atoms: N_7  and  C_8
REMARK    4  A    between atoms: C_12  and  C_14
REMARK                            x       y       z     vdW  Elec       q    Type
REMARK                         _______ _______ _______ _____ _____    ______ ____
ROOT
ATOM      1  C   UNL     1      -2.412   5.076  -0.686  0.00  0.00    +0.058 C 
ATOM      2  C   UNL     1      -1.333   5.977  -0.081  0.00  0.00    +0.131 C 
ATOM      3  N   UNL     1      -1.155   7.164  -0.918  0.00  0.00    -0.226 NA
ATOM      4  C   UNL     1       0.022   7.717  -1.040  0.00  0.00    +0.213 C 
ATOM      5  N   UNL     1       1.114   7.207  -0.445  0.00  0.00    -0.185 NA
ATOM      6  C   UNL     1       1.098   5.994   0.077  0.00  0.00    +0.189 C 
ATOM      7  N   UNL     1      -0.055   5.250  -0.024  0.00  0.00    -0.248 N 
ATOM      8  N   UNL     1       2.202   5.489   0.705  0.00  0.00    -0.331 N 
ATOM      9  N   UNL     1       0.149   8.860  -1.803  0.00  0.00    -0.328 N 
ATOM     10  C   UNL     1      -1.747   6.403   1.329  0.00  0.00    +0.058 C 
ATOM     11  H   UNL     1       2.200   4.575   1.029  0.00  0.00    +0.145 HD
ATOM     12  H   UNL     1       2.987   6.045   0.827  0.00  0.00    +0.145 HD
ATOM     13  H   UNL     1       1.017   9.283  -1.903  0.00  0.00    +0.145 HD
ATOM     14  H   UNL     1      -0.629   9.241  -2.239  0.00  0.00    +0.145 HD
ENDROOT
BRANCH   7  15
ATOM     15  C   UNL     1      -0.013   3.853  -0.077  0.00  0.00    +0.039 A 
ATOM     16  C   UNL     1      -0.145   3.108   1.088  0.00  0.00    +0.023 A 
ATOM     17  C   UNL     1      -0.108   1.729   1.031  0.00  0.00    +0.002 A 
ATOM     18  C   UNL     1       0.070   1.089  -0.182  0.00  0.00    +0.012 A 
ATOM     19  C   UNL     1       0.201   1.828  -1.343  0.00  0.00    +0.057 A 
ATOM     20  C   UNL     1       0.160   3.208  -1.294  0.00  0.00    +0.036 A 
BRANCH  19  21
ATOM     21  C   UNL     1       0.389   1.127  -2.664  0.00  0.00    +0.417 C 
ATOM     22  F   UNL     1       0.397  -0.257  -2.460  0.00  0.00    -0.166 F 
ATOM     23  F   UNL     1      -0.661   1.465  -3.525  0.00  0.00    -0.166 F 
ATOM     24  F   UNL     1       1.604   1.522  -3.233  0.00  0.00    -0.166 F 
ENDBRANCH  19  21
ENDBRANCH   7  15
TORSDOF 2
