REMARK  Name = ZINC35957412
REMARK  6 active torsions:
REMARK  status: ('A' for Active; 'I' for Inactive)
REMARK    1  A    between atoms: C_1  and  C_2
REMARK    2  A    between atoms: C_2  and  C_4
REMARK    3  A    between atoms: C_2  and  N_10
REMARK    4  A    between atoms: C_11  and  C_13
REMARK    5  A    between atoms: N_28  and  C_29
REMARK    6  A    between atoms: C_29  and  C_30
REMARK                            x       y       z     vdW  Elec       q    Type
REMARK                         _______ _______ _______ _____ _____    ______ ____
ROOT
ATOM      1  C   UNL     1       0.882  -1.534   3.603  0.00  0.00    +0.092 C 
ATOM      2  C   UNL     1       2.035  -0.576   3.911  0.00  0.00    +0.016 C 
ATOM      3  C   UNL     1       2.746  -1.024   5.190  0.00  0.00    +0.020 C 
ATOM      4  C   UNL     1       1.757  -0.982   6.360  0.00  0.00    +0.108 C 
ATOM      5  N   UNL     1       0.578  -1.786   6.011  0.00  0.00    -0.302 N 
ATOM      6  C   UNL     1      -0.128  -1.499   4.754  0.00  0.00    +0.120 C 
ATOM      7  C   UNL     1       0.141  -2.792   6.847  0.00  0.00    +0.177 A 
ATOM      8  N   UNL     1       0.440  -4.060   6.718  0.00  0.00    -0.327 N 
ATOM      9  C   UNL     1      -0.156  -4.773   7.710  0.00  0.00    +0.065 A 
ATOM     10  C   UNL     1      -0.173  -6.130   8.041  0.00  0.00    +0.028 A 
ATOM     11  C   UNL     1      -0.889  -6.559   9.136  0.00  0.00    +0.002 A 
ATOM     12  C   UNL     1      -1.596  -5.653   9.913  0.00  0.00    +0.002 A 
ATOM     13  C   UNL     1      -1.590  -4.309   9.600  0.00  0.00    +0.028 A 
ATOM     14  C   UNL     1      -0.873  -3.860   8.501  0.00  0.00    +0.068 A 
ATOM     15  N   UNL     1      -0.664  -2.613   7.936  0.00  0.00    -0.313 N 
ATOM     16  H   UNL     1       1.001  -4.434   6.021  0.00  0.00    +0.169 HD
ENDROOT
BRANCH   1  18
ATOM     17  N   UNL     1       0.903  -1.065   1.174  0.00  0.00    -0.308 N 
ATOM     18  C   UNL     1       0.204  -1.111   2.326  0.00  0.00    +0.218 C 
ATOM     19  O   UNL     1      -0.971  -0.811   2.333  0.00  0.00    -0.275 OA
ATOM     20  H   UNL     1       1.843  -1.305   1.168  0.00  0.00    +0.149 HD
BRANCH  17  22
ATOM     21  C   UNL     1       0.257   0.873  -0.170  0.00  0.00    +0.033 C 
ATOM     22  C   UNL     1       0.244  -0.654  -0.067  0.00  0.00    +0.100 C 
BRANCH  22  23
ATOM     23  C   UNL     1       0.978  -1.242  -1.245  0.00  0.00    -0.027 A 
ATOM     24  C   UNL     1       2.359  -1.294  -1.243  0.00  0.00    +0.005 A 
ATOM     25  C   UNL     1       3.032  -1.834  -2.323  0.00  0.00    +0.000 A 
ATOM     26  C   UNL     1       2.324  -2.323  -3.405  0.00  0.00    +0.000 A 
ATOM     27  C   UNL     1       0.942  -2.273  -3.406  0.00  0.00    +0.000 A 
ATOM     28  C   UNL     1       0.269  -1.736  -2.324  0.00  0.00    +0.005 A 
ENDBRANCH  22  23
ENDBRANCH  17  22
ENDBRANCH   1  18
BRANCH  15  29
ATOM     29  C   UNL     1      -1.207  -1.339   8.415  0.00  0.00    +0.128 C 
BRANCH  29  30
ATOM     30  C   UNL     1      -2.628  -1.156   7.878  0.00  0.00    +0.009 C 
ATOM     31  C   UNL     1      -2.585  -1.041   6.353  0.00  0.00    +0.005 C 
ATOM     32  C   UNL     1      -4.006  -0.858   5.815  0.00  0.00    +0.000 C 
ATOM     33  C   UNL     1      -4.615   0.416   6.407  0.00  0.00    +0.000 C 
ATOM     34  C   UNL     1      -4.657   0.300   7.931  0.00  0.00    +0.000 C 
ATOM     35  C   UNL     1      -3.236   0.117   8.469  0.00  0.00    +0.005 C 
ENDBRANCH  29  30
ENDBRANCH  15  29
TORSDOF 5
