REMARK  Name = ZINC09261031
REMARK  6 active torsions:
REMARK  status: ('A' for Active; 'I' for Inactive)
REMARK    1  A    between atoms: C_1  and  O_2
REMARK    2  A    between atoms: O_2  and  C_3
REMARK    3  A    between atoms: C_3  and  C_4
REMARK    4  A    between atoms: C_5  and  C_16
REMARK    5  A    between atoms: C_9  and  C_14
REMARK    6  A    between atoms: C_10  and  N_13
REMARK                            x       y       z     vdW  Elec       q    Type
REMARK                         _______ _______ _______ _____ _____    ______ ____
ROOT
ATOM      1  C   UNL     1       1.141   3.524   0.010  0.00  0.00    +0.099 A 
ATOM      2  C   UNL     1       1.076   4.330   1.155  0.00  0.00    +0.052 A 
ATOM      3  C   UNL     1       0.950   5.655   0.723  0.00  0.00    +0.166 A 
ATOM      4  N   UNL     1       0.849   6.812   1.389  0.00  0.00    -0.234 NA
ATOM      5  C   UNL     1       0.738   7.958   0.760  0.00  0.00    +0.135 A 
ATOM      6  C   UNL     1       0.723   7.992  -0.650  0.00  0.00    +0.109 A 
ATOM      7  C   UNL     1       0.828   6.790  -1.354  0.00  0.00    +0.139 A 
ATOM      8  N   UNL     1       0.941   5.623  -0.647  0.00  0.00    -0.199 N 
ATOM      9  N   UNL     1       1.066   4.289  -1.050  0.00  0.00    -0.165 NA
ENDROOT
BRANCH   2  10
ATOM     10  C   UNL     1       1.132   3.866   2.561  0.00  0.00    -0.012 A 
ATOM     11  C   UNL     1       0.110   3.069   3.075  0.00  0.00    +0.010 A 
ATOM     12  C   UNL     1       0.169   2.636   4.384  0.00  0.00    +0.020 A 
ATOM     13  C   UNL     1       1.235   2.999   5.189  0.00  0.00    +0.041 A 
ATOM     14  C   UNL     1       2.250   3.795   4.684  0.00  0.00    +0.020 A 
ATOM     15  C   UNL     1       2.203   4.230   3.376  0.00  0.00    +0.010 A 
ATOM     16 CL   UNL     1       1.300   2.456   6.836  0.00  0.00    -0.084 Cl
ENDBRANCH   2  10
BRANCH   7  17
ATOM     17  N   UNL     1       0.817   6.778  -2.724  0.00  0.00    -0.342 N 
ATOM     18  H   UNL     1       0.737   7.611  -3.215  0.00  0.00    +0.144 HD
ATOM     19  H   UNL     1       0.890   5.938  -3.202  0.00  0.00    +0.144 HD
ENDBRANCH   7  17
BRANCH   6  20
ATOM     20  C   UNL     1       0.602   9.237  -1.347  0.00  0.00    +0.104 C 
ATOM     21  N   UNL     1       0.506  10.225  -1.900  0.00  0.00    -0.191 NA
ENDBRANCH   6  20
BRANCH   1  22
ATOM     22  C   UNL     1       1.280   2.024   0.001  0.00  0.00    +0.217 C 
BRANCH  22  24
ATOM     23  C   UNL     1       0.002  -0.004   0.002  0.00  0.00    +0.194 C 
ATOM     24  O   UNL     1      -0.017   1.425   0.010  0.00  0.00    -0.377 OA
ENDBRANCH  22  24
ENDBRANCH   1  22
TORSDOF 5
