REMARK  Name = ZINC39678341
REMARK  7 active torsions:
REMARK  status: ('A' for Active; 'I' for Inactive)
REMARK    1  A    between atoms: C_1  and  O_2
REMARK    2  A    between atoms: O_2  and  C_3
REMARK    3  A    between atoms: C_4  and  C_9
REMARK    4  A    between atoms: C_13  and  C_22
REMARK    5  A    between atoms: N_24  and  C_25
REMARK    6  A    between atoms: C_25  and  C_26
REMARK    7  A    between atoms: C_31  and  N_32
REMARK                            x       y       z     vdW  Elec       q    Type
REMARK                         _______ _______ _______ _____ _____    ______ ____
ROOT
ATOM      1  C   UNL     1      -1.323  -0.808   2.326  0.00  0.00    +0.251 C 
ATOM      2  O   UNL     1      -0.240  -0.279   2.487  0.00  0.00    -0.270 OA
ATOM      3  N   UNL     1      -2.125  -1.038   3.385  0.00  0.00    -0.296 N 
ATOM      4  C   UNL     1      -3.408  -1.779   3.409  0.00  0.00    +0.121 C 
ATOM      5  C   UNL     1      -3.372  -2.579   4.730  0.00  0.00    +0.100 C 
ATOM      6  C   UNL     1      -2.396  -1.804   5.632  0.00  0.00    -0.004 C 
ATOM      7  C   UNL     1      -1.918  -0.613   4.790  0.00  0.00    +0.115 C 
ATOM      8  C   UNL     1      -1.210  -2.687   6.008  0.00  0.00    -0.010 C 
ATOM      9  C   UNL     1      -0.283  -1.914   6.951  0.00  0.00    -0.082 C 
ATOM     10  N   UNL     1      -1.026  -1.518   8.154  0.00  0.00    +0.379 N 
ATOM     11  C   UNL     1      -2.109  -0.596   7.794  0.00  0.00    -0.082 C 
ATOM     12  C   UNL     1      -3.112  -1.313   6.886  0.00  0.00    -0.010 C 
ATOM     13  H   UNL     1      -1.416  -2.340   8.591  0.00  0.00    -0.086 HD
ATOM     14  H   UNL     1      -0.398  -1.063   8.800  0.00  0.00    -0.086 HD
ENDROOT
BRANCH   1  16
ATOM     15  C   UNL     1      -0.835  -1.240  -0.134  0.00  0.00    +0.158 A 
ATOM     16  C   UNL     1      -1.759  -1.197   0.976  0.00  0.00    +0.087 A 
ATOM     17  C   UNL     1      -3.067  -1.537   0.710  0.00  0.00    +0.063 A 
ATOM     18  S   UNL     1      -3.076  -1.897  -0.928  0.00  0.00    -0.081 S 
ATOM     19  C   UNL     1      -1.365  -1.608  -1.322  0.00  0.00    +0.120 A 
ATOM     20 CL   UNL     1      -0.570  -1.764  -2.857  0.00  0.00    -0.072 Cl
BRANCH  15  22
ATOM     21  C   UNL     1       0.846   0.444  -0.188  0.00  0.00    +0.277 C 
ATOM     22  O   UNL     1       0.482  -0.924   0.006  0.00  0.00    -0.492 OA
ENDBRANCH  15  22
ENDBRANCH   1  16
BRANCH   5  23
ATOM     23  C   UNL     1      -2.865  -3.977   4.484  0.00  0.00    +0.218 C 
ATOM     24  O   UNL     1      -2.035  -4.178   3.622  0.00  0.00    -0.275 OA
ATOM     25  N   UNL     1      -3.333  -5.004   5.221  0.00  0.00    -0.311 N 
ATOM     26  H   UNL     1      -3.938  -4.834   5.959  0.00  0.00    +0.149 HD
BRANCH  25  27
ATOM     27  C   UNL     1      -2.927  -6.376   4.906  0.00  0.00    +0.141 C 
BRANCH  27  28
ATOM     28  C   UNL     1      -3.679  -7.337   5.791  0.00  0.00    -0.009 A 
ATOM     29  C   UNL     1      -3.055  -7.897   6.889  0.00  0.00    +0.007 A 
ATOM     30  C   UNL     1      -3.744  -8.779   7.701  0.00  0.00    +0.000 A 
ATOM     31  C   UNL     1      -5.058  -9.104   7.418  0.00  0.00    +0.002 A 
ATOM     32  C   UNL     1      -5.687  -8.547   6.322  0.00  0.00    +0.023 A 
ATOM     33  C   UNL     1      -5.000  -7.656   5.506  0.00  0.00    +0.034 A 
BRANCH  33  34
ATOM     34  N   UNL     1      -5.635  -7.087   4.400  0.00  0.00    -0.330 N 
ATOM     35  C   UNL     1      -5.665  -7.790   3.111  0.00  0.00    +0.105 C 
ATOM     36  C   UNL     1      -7.119  -7.895   2.639  0.00  0.00    +0.019 C 
ATOM     37  C   UNL     1      -7.742  -6.498   2.608  0.00  0.00    +0.003 C 
ATOM     38  C   UNL     1      -7.733  -5.901   4.017  0.00  0.00    +0.019 C 
ATOM     39  C   UNL     1      -6.291  -5.777   4.505  0.00  0.00    +0.105 C 
ENDBRANCH  33  34
ENDBRANCH  27  28
ENDBRANCH  25  27
ENDBRANCH   5  23
TORSDOF 6
