REMARK  Name = ZINC39673808
REMARK  10 active torsions:
REMARK  status: ('A' for Active; 'I' for Inactive)
REMARK    1  A    between atoms: C_1  and  C_2
REMARK    2  A    between atoms: C_2  and  C_3
REMARK    3  A    between atoms: C_3  and  C_4
REMARK    4  A    between atoms: C_4  and  C_6
REMARK    5  A    between atoms: C_4  and  N_7
REMARK    6  A    between atoms: C_8  and  C_10
REMARK    7  A    between atoms: C_21  and  C_23
REMARK    8  A    between atoms: C_29  and  O_31
REMARK    9  A    between atoms: O_31  and  C_32
REMARK   10  A    between atoms: C_32  and  C_33
REMARK                            x       y       z     vdW  Elec       q    Type
REMARK                         _______ _______ _______ _____ _____    ______ ____
ROOT
ATOM      1  C   UNL     1       2.161  -4.236   1.519  0.00  0.00    +0.100 C 
ATOM      2  C   UNL     1       2.037  -3.278   2.725  0.00  0.00    +0.121 C 
ATOM      3  N   UNL     1       0.969  -3.870   3.565  0.00  0.00    -0.300 N 
ATOM      4  C   UNL     1       1.210  -5.331   3.493  0.00  0.00    +0.115 C 
ATOM      5  C   UNL     1       1.621  -5.583   2.028  0.00  0.00    -0.004 C 
ATOM      6  C   UNL     1       2.710  -6.649   1.961  0.00  0.00    -0.010 C 
ATOM      7  C   UNL     1       2.133  -7.992   2.417  0.00  0.00    -0.082 C 
ATOM      8  N   UNL     1       1.006  -8.361   1.552  0.00  0.00    +0.379 N 
ATOM      9  C   UNL     1      -0.076  -7.379   1.693  0.00  0.00    -0.082 C 
ATOM     10  C   UNL     1       0.408  -6.010   1.207  0.00  0.00    -0.010 C 
ATOM     11  C   UNL     1      -0.001  -3.225   4.243  0.00  0.00    +0.219 C 
ATOM     12  O   UNL     1      -0.809  -3.855   4.892  0.00  0.00    -0.275 OA
ATOM     13  H   UNL     1       1.314  -8.384   0.592  0.00  0.00    -0.086 HD
ATOM     14  H   UNL     1       0.666  -9.274   1.815  0.00  0.00    -0.086 HD
ENDROOT
BRANCH  11  15
ATOM     15  C   UNL     1      -0.083  -1.721   4.194  0.00  0.00    +0.078 C 
ATOM     16  C   UNL     1       1.214  -1.122   4.743  0.00  0.00    +0.032 C 
ATOM     17  C   UNL     1       1.141   0.406   4.659  0.00  0.00    +0.112 C 
ATOM     18  N   UNL     1      -0.073   0.860   5.351  0.00  0.00    -0.267 N 
ATOM     19  C   UNL     1      -1.366   0.280   4.962  0.00  0.00    +0.112 C 
ATOM     20  C   UNL     1      -1.265  -1.247   5.042  0.00  0.00    +0.032 C 
ATOM     21  C   UNL     1      -0.002   1.791   6.323  0.00  0.00    +0.403 C 
ATOM     22  O   UNL     1       1.073   2.263   6.635  0.00  0.00    -0.226 OA
BRANCH  21  23
ATOM     23  O   UNL     1      -1.123   2.198   6.948  0.00  0.00    -0.445 OA
BRANCH  23  24
ATOM     24  C   UNL     1      -0.975   3.187   7.968  0.00  0.00    +0.269 C 
BRANCH  24  25
ATOM     25  C   UNL     1      -2.325   3.516   8.550  0.00  0.00    -0.010 A 
ATOM     26  C   UNL     1      -3.089   4.526   7.997  0.00  0.00    +0.007 A 
ATOM     27  C   UNL     1      -4.328   4.828   8.531  0.00  0.00    +0.000 A 
ATOM     28  C   UNL     1      -4.803   4.118   9.618  0.00  0.00    +0.000 A 
ATOM     29  C   UNL     1      -4.040   3.107  10.171  0.00  0.00    +0.000 A 
ATOM     30  C   UNL     1      -2.803   2.803   9.634  0.00  0.00    +0.007 A 
ENDBRANCH  24  25
ENDBRANCH  23  24
ENDBRANCH  21  23
ENDBRANCH  11  15
BRANCH   1  32
ATOM     31  N   UNL     1       1.688  -4.029  -0.900  0.00  0.00    -0.312 N 
ATOM     32  C   UNL     1       1.328  -3.739   0.366  0.00  0.00    +0.218 C 
ATOM     33  O   UNL     1       0.334  -3.078   0.577  0.00  0.00    -0.275 OA
ATOM     34  H   UNL     1       2.484  -4.558  -1.069  0.00  0.00    +0.149 HD
BRANCH  31  35
ATOM     35  C   UNL     1       0.879  -3.545  -2.021  0.00  0.00    +0.070 C 
ATOM     36  C   UNL     1      -0.269  -4.522  -2.280  0.00  0.00    +0.028 C 
BRANCH  35  37
ATOM     37  C   UNL     1       1.752  -3.441  -3.273  0.00  0.00    +0.022 C 
BRANCH  37  39
ATOM     38  C   UNL     1       3.699  -2.269  -4.311  0.00  0.00    +0.004 C 
ATOM     39  C   UNL     1       2.826  -2.373  -3.059  0.00  0.00    -0.002 C 
ENDBRANCH  37  39
ENDBRANCH  35  37
ENDBRANCH  31  35
ENDBRANCH   1  32
TORSDOF 8
