REMARK  Name = ZINC42191737
REMARK  4 active torsions:
REMARK  status: ('A' for Active; 'I' for Inactive)
REMARK    1  A    between atoms: C_8  and  O_23
REMARK    2  A    between atoms: C_10  and  N_12
REMARK    3  A    between atoms: N_12  and  S_13
REMARK    4  A    between atoms: S_13  and  C_16
REMARK                            x       y       z     vdW  Elec       q    Type
REMARK                         _______ _______ _______ _____ _____    ______ ____
ROOT
ATOM      1  N   UNL     1       4.114  -0.945   1.207  0.00  0.00    -0.180 NA
ATOM      2  H   UNL     1       3.663  -1.565   1.800  0.00  0.00    +0.149 HD
ENDROOT
BRANCH   1  11
ATOM      3  C   UNL     1       0.242   2.061   0.260  0.00  0.00    +0.000 A 
ATOM      4  C   UNL     1       1.503   2.627   0.297  0.00  0.00    +0.000 A 
ATOM      5  C   UNL     1       2.622   1.824   0.187  0.00  0.00    +0.005 A 
ATOM      6  C   UNL     1       2.484   0.453   0.039  0.00  0.00    -0.023 A 
ATOM      7  C   UNL     1       1.223  -0.112   0.003  0.00  0.00    -0.040 A 
ATOM      8  C   UNL     1       0.103   0.695   0.113  0.00  0.00    +0.004 A 
ATOM      9  C   UNL     1       1.339  -1.611  -0.165  0.00  0.00    +0.068 C 
ATOM     10  C   UNL     1       2.780  -1.852  -0.663  0.00  0.00    +0.142 C 
ATOM     11  C   UNL     1       3.534  -0.628  -0.100  0.00  0.00    +0.135 C 
BRANCH  10  12
ATOM     12  O   UNL     1       3.307  -3.068  -0.127  0.00  0.00    -0.390 OA
ATOM     13  H   UNL     1       2.812  -3.858  -0.385  0.00  0.00    +0.210 HD
ENDBRANCH  10  12
ENDBRANCH   1  11
BRANCH   1  14
ATOM     14  S   UNL     1       5.542  -0.245   1.671  0.00  0.00    +0.061 S 
ATOM     15  O   UNL     1       5.404   1.150   1.437  0.00  0.00    -0.153 OA
ATOM     16  O   UNL     1       5.857  -0.775   2.951  0.00  0.00    -0.153 OA
BRANCH  14  17
ATOM     17  C   UNL     1       6.788  -0.821   0.566  0.00  0.00    +0.132 A 
ATOM     18  C   UNL     1       7.429   0.058  -0.288  0.00  0.00    +0.057 A 
ATOM     19  C   UNL     1       8.384  -0.418  -1.125  0.00  0.00    +0.081 A 
ATOM     20  S   UNL     1       8.399  -2.156  -0.717  0.00  0.00    -0.063 S 
ATOM     21  C   UNL     1       7.137  -2.131   0.545  0.00  0.00    +0.106 A 
ATOM     22 CL   UNL     1       6.515  -3.443   1.496  0.00  0.00    -0.074 Cl
ATOM     23 CL   UNL     1       9.342   0.439  -2.291  0.00  0.00    -0.076 Cl
ENDBRANCH  14  17
ENDBRANCH   1  14
TORSDOF 4
