REMARK  Name = ZINC35746046
REMARK  8 active torsions:
REMARK  status: ('A' for Active; 'I' for Inactive)
REMARK    1  A    between atoms: C_1  and  C_2
REMARK    2  A    between atoms: C_6  and  N_9
REMARK    3  A    between atoms: C_7  and  C_8
REMARK    4  A    between atoms: N_12  and  C_13
REMARK    5  A    between atoms: C_16  and  C_19
REMARK    6  A    between atoms: C_21  and  C_31
REMARK    7  A    between atoms: C_22  and  C_30
REMARK    8  A    between atoms: N_33  and  C_34
REMARK                            x       y       z     vdW  Elec       q    Type
REMARK                         _______ _______ _______ _____ _____    ______ ____
ROOT
ATOM      1  C   UNL     1       0.596  -6.008   5.095  0.00  0.00    +0.035 A 
ATOM      2  C   UNL     1       0.718  -6.309   3.745  0.00  0.00    +0.024 A 
ATOM      3  C   UNL     1       0.601  -7.618   3.318  0.00  0.00    +0.007 A 
ATOM      4  C   UNL     1       0.362  -8.627   4.233  0.00  0.00    -0.022 A 
ATOM      5  C   UNL     1       0.241  -8.330   5.578  0.00  0.00    +0.007 A 
ATOM      6  C   UNL     1       0.363  -7.024   6.012  0.00  0.00    +0.024 A 
ENDROOT
BRANCH   4   7
ATOM      7  C   UNL     1       0.234 -10.053   3.763  0.00  0.00    +0.142 C 
ATOM      8  C   UNL     1       1.528 -10.791   4.015  0.00  0.00    +0.058 C 
ATOM      9  C   UNL     1       1.690 -11.482   5.178  0.00  0.00    +0.025 C 
ATOM     10  N   UNL     1       0.706 -11.549   6.075  0.00  0.00    -0.341 N 
ATOM     11  C   UNL     1      -0.526 -11.197   5.768  0.00  0.00    +0.135 C 
ATOM     12  N   UNL     1      -0.836 -10.732   4.518  0.00  0.00    -0.300 N 
ATOM     13  C   UNL     1      -2.130 -10.919   3.892  0.00  0.00    +0.109 C 
ATOM     14  C   UNL     1      -3.329 -10.790   4.802  0.00  0.00    +0.030 C 
ATOM     15  C   UNL     1      -3.252 -11.752   5.989  0.00  0.00    +0.078 C 
ATOM     16  S   UNL     1      -1.802 -11.279   6.990  0.00  0.00    -0.092 S 
ATOM     17  C   UNL     1       2.998 -12.178   5.454  0.00  0.00    +0.064 C 
ATOM     18  H   UNL     1       0.901 -11.865   6.972  0.00  0.00    +0.167 HD
BRANCH   8  19
ATOM     19  C   UNL     1       2.558 -10.765   3.056  0.00  0.00    +0.244 C 
ATOM     20  O   UNL     1       3.642 -11.258   3.313  0.00  0.00    -0.270 OA
ATOM     21  N   UNL     1       2.344 -10.196   1.853  0.00  0.00    -0.315 N 
ATOM     22  C   UNL     1       3.416 -10.170   0.855  0.00  0.00    +0.128 C 
ATOM     23  H   UNL     1       1.481  -9.804   1.649  0.00  0.00    +0.149 HD
ENDBRANCH   8  19
ENDBRANCH   4   7
BRANCH   1  27
ATOM     24  N   UNL     1       0.443  -2.399   5.136  0.00  0.00    -0.269 N 
ATOM     25  C   UNL     1       0.227  -3.679   4.775  0.00  0.00    +0.308 C 
ATOM     26  O   UNL     1      -0.406  -3.929   3.768  0.00  0.00    -0.252 OA
ATOM     27  N   UNL     1       0.714  -4.684   5.532  0.00  0.00    -0.269 N 
ATOM     28  H   UNL     1       1.020  -2.198   5.890  0.00  0.00    +0.156 HD
ATOM     29  H   UNL     1       1.145  -4.488   6.378  0.00  0.00    +0.156 HD
BRANCH  24  35
ATOM     30  C   UNL     1       0.330   2.341   3.835  0.00  0.00    +0.044 C 
ATOM     31  C   UNL     1      -0.242   0.948   3.776  0.00  0.00    -0.046 A 
ATOM     32  C   UNL     1      -1.371   0.696   3.017  0.00  0.00    +0.004 A 
ATOM     33  C   UNL     1      -1.899  -0.581   2.961  0.00  0.00    +0.002 A 
ATOM     34  C   UNL     1      -1.300  -1.609   3.662  0.00  0.00    +0.023 A 
ATOM     35  C   UNL     1      -0.166  -1.359   4.425  0.00  0.00    +0.038 A 
ATOM     36  C   UNL     1       0.365  -0.077   4.475  0.00  0.00    -0.026 A 
ATOM     37  C   UNL     1       1.598   0.197   5.296  0.00  0.00    +0.046 C 
ENDBRANCH  24  35
ENDBRANCH   1  27
TORSDOF 4
