REMARK  Name = ZINC18102391
REMARK  10 active torsions:
REMARK  status: ('A' for Active; 'I' for Inactive)
REMARK    1  A    between atoms: C_1  and  C_2
REMARK    2  A    between atoms: C_6  and  O_9
REMARK    3  A    between atoms: C_7  and  C_8
REMARK    4  A    between atoms: O_9  and  C_10
REMARK    5  A    between atoms: C_10  and  C_12
REMARK    6  A    between atoms: C_10  and  C_13
REMARK    7  A    between atoms: N_15  and  N_16
REMARK    8  A    between atoms: C_17  and  C_19
REMARK    9  A    between atoms: C_19  and  N_20
REMARK   10  A    between atoms: C_28  and  C_30
REMARK                            x       y       z     vdW  Elec       q    Type
REMARK                         _______ _______ _______ _____ _____    ______ ____
ROOT
ATOM      1  N   UNL     1       2.073   0.624   3.602  0.00  0.00    -0.233 N 
ATOM      2  C   UNL     1       3.341   1.005   3.855  0.00  0.00    +0.247 C 
ATOM      3  O   UNL     1       3.841   1.907   3.217  0.00  0.00    -0.273 OA
ATOM      4  H   UNL     1       1.673  -0.098   4.112  0.00  0.00    +0.173 HD
ENDROOT
BRANCH   1   7
ATOM      5  C   UNL     1       0.066   0.888   2.350  0.00  0.00    +0.270 C 
ATOM      6  O   UNL     1      -0.435  -0.014   2.988  0.00  0.00    -0.270 OA
ATOM      7  N   UNL     1       1.333   1.269   2.603  0.00  0.00    -0.231 N 
ATOM      8  H   UNL     1       1.734   1.991   2.093  0.00  0.00    +0.173 HD
BRANCH   5   9
ATOM      9  C   UNL     1      -0.730   1.583   1.275  0.00  0.00    +0.257 C 
ATOM     10  C   UNL     1      -0.088   1.316  -0.087  0.00  0.00    +0.062 C 
BRANCH   9  11
ATOM     11  O   UNL     1      -2.070   1.085   1.277  0.00  0.00    -0.480 OA
BRANCH  11  17
ATOM     12  C   UNL     1      -6.796   1.966   0.435  0.00  0.00    +0.044 C 
ATOM     13  C   UNL     1      -5.345   2.368   0.350  0.00  0.00    -0.044 A 
ATOM     14  C   UNL     1      -4.994   3.570  -0.236  0.00  0.00    +0.004 A 
ATOM     15  C   UNL     1      -3.665   3.940  -0.316  0.00  0.00    +0.004 A 
ATOM     16  C   UNL     1      -2.684   3.113   0.196  0.00  0.00    +0.046 A 
ATOM     17  C   UNL     1      -3.033   1.903   0.779  0.00  0.00    +0.125 A 
ATOM     18  C   UNL     1      -4.368   1.534   0.857  0.00  0.00    -0.006 A 
ATOM     19  C   UNL     1      -4.751   0.223   1.495  0.00  0.00    +0.048 C 
ENDBRANCH  11  17
ENDBRANCH   9  11
ENDBRANCH   5   9
ENDBRANCH   1   7
BRANCH   2  20
ATOM     20  C   UNL     1       4.137   0.310   4.929  0.00  0.00    +0.215 C 
BRANCH  20  21
ATOM     21  N   UNL     1       5.474   0.903   5.008  0.00  0.00    -0.215 N 
ATOM     22  C   UNL     1       6.538   0.470   4.301  0.00  0.00    +0.247 C 
ATOM     23  O   UNL     1       6.570  -0.448   3.511  0.00  0.00    -0.273 OA
ATOM     24  C   UNL     1       7.683   1.373   4.701  0.00  0.00    +0.115 C 
ATOM     25  C   UNL     1       8.799   0.558   5.345  0.00  0.00    +0.035 C 
ATOM     26  C   UNL     1       9.931   1.493   5.776  0.00  0.00    +0.003 C 
ATOM     27  C   UNL     1      10.465   2.244   4.555  0.00  0.00    +0.000 C 
ATOM     28  C   UNL     1       9.340   3.073   3.932  0.00  0.00    +0.006 C 
ATOM     29  C   UNL     1       8.205   2.144   3.494  0.00  0.00    +0.018 C 
ATOM     30  C   UNL     1       7.071   2.975   2.890  0.00  0.00    +0.010 C 
ATOM     31  N   UNL     1       7.087   2.292   5.680  0.00  0.00    -0.285 N 
ATOM     32  C   UNL     1       5.792   1.939   5.794  0.00  0.00    +0.310 C 
ATOM     33  O   UNL     1       5.002   2.499   6.527  0.00  0.00    -0.252 OA
ATOM     34  H   UNL     1       7.537   3.010   6.151  0.00  0.00    +0.151 HD
ENDBRANCH  20  21
ENDBRANCH   2  20
TORSDOF 6
