REMARK  Name = ZINC37205552
REMARK  4 active torsions:
REMARK  status: ('A' for Active; 'I' for Inactive)
REMARK    1  A    between atoms: C_3  and  S_9
REMARK    2  A    between atoms: C_4  and  N_8
REMARK    3  A    between atoms: S_9  and  C_10
REMARK    4  A    between atoms: C_10  and  C_11
REMARK                            x       y       z     vdW  Elec       q    Type
REMARK                         _______ _______ _______ _____ _____    ______ ____
ROOT
ATOM      1  S   UNL     1       3.894   2.322  -0.023  0.00  0.00    -0.117 S 
ENDROOT
BRANCH   1   4
ATOM      2  C   UNL     1      -0.017   1.379   0.010  0.00  0.00    +0.016 A 
ATOM      3  C   UNL     1       1.169   2.090   0.002  0.00  0.00    +0.017 A 
ATOM      4  C   UNL     1       2.382   1.417  -0.013  0.00  0.00    +0.029 A 
ATOM      5  C   UNL     1       2.401   0.022  -0.021  0.00  0.00    +0.039 A 
ATOM      6  C   UNL     1       1.208  -0.684  -0.013  0.00  0.00    +0.039 A 
ATOM      7  C   UNL     1       0.002  -0.004   0.002  0.00  0.00    +0.020 A 
ATOM      8 BR   UNL     1      -1.624  -0.969   0.013  0.00  0.00    -0.050 Br
BRANCH   5   9
ATOM      9  N   UNL     1       3.621  -0.663  -0.036  0.00  0.00    -0.357 N 
ATOM     10  H   UNL     1       4.455  -0.168  -0.042  0.00  0.00    +0.142 HD
ATOM     11  H   UNL     1       3.633  -1.633  -0.042  0.00  0.00    +0.142 HD
ENDBRANCH   5   9
ENDBRANCH   1   4
BRANCH   1  12
ATOM     12  C   UNL     1       3.367   4.058  -0.009  0.00  0.00    +0.130 C 
BRANCH  12  13
ATOM     13  C   UNL     1       4.581   4.951  -0.017  0.00  0.00    +0.059 A 
ATOM     14  C   UNL     1       4.949   5.624  -1.162  0.00  0.00    +0.095 A 
ATOM     15  C   UNL     1       6.076   6.447  -1.149  0.00  0.00    +0.259 A 
ATOM     16  O   UNL     1       6.407   7.046  -2.160  0.00  0.00    -0.267 OA
ATOM     17  N   UNL     1       6.809   6.582  -0.004  0.00  0.00    -0.262 N 
ATOM     18  C   UNL     1       7.935   7.351   0.166  0.00  0.00    +0.104 A 
ATOM     19  C   UNL     1       8.565   7.400   1.340  0.00  0.00    +0.067 A 
ATOM     20  S   UNL     1       7.561   6.311   2.338  0.00  0.00    -0.058 S 
ATOM     21  C   UNL     1       6.372   5.878   1.087  0.00  0.00    +0.180 A 
ATOM     22  N   UNL     1       5.313   5.108   1.083  0.00  0.00    -0.227 NA
ENDBRANCH  12  13
ENDBRANCH   1  12
TORSDOF 4
