REMARK  Name = ZINC01217857
REMARK  7 active torsions:
REMARK  status: ('A' for Active; 'I' for Inactive)
REMARK    1  A    between atoms: C_1  and  C_2
REMARK    2  A    between atoms: C_3  and  N_9
REMARK    3  A    between atoms: C_10  and  C_12
REMARK    4  A    between atoms: C_13  and  C_28
REMARK    5  A    between atoms: C_18  and  C_20
REMARK    6  A    between atoms: C_25  and  O_26
REMARK    7  A    between atoms: O_26  and  C_27
REMARK                            x       y       z     vdW  Elec       q    Type
REMARK                         _______ _______ _______ _____ _____    ______ ____
ROOT
ATOM      1  C   UNL     1      -0.177   5.608   0.271  0.00  0.00    +0.056 C 
ATOM      2  C   UNL     1      -1.372   6.236   0.279  0.00  0.00    +0.017 C 
ATOM      3  N   UNL     1      -1.461   7.579   0.508  0.00  0.00    -0.300 N 
ATOM      4  C   UNL     1      -0.400   8.367   0.727  0.00  0.00    +0.135 C 
ATOM      5  S   UNL     1      -0.652  10.039   0.994  0.00  0.00    -0.019 S 
ATOM      6  N   UNL     1       0.859   7.886   0.744  0.00  0.00    -0.315 N 
ATOM      7  C   UNL     1       1.062   6.446   0.513  0.00  0.00    +0.143 C 
ATOM      8  C   UNL     1      -2.628   5.440   0.037  0.00  0.00    +0.061 C 
ATOM      9  H   UNL     1      -2.341   7.986   0.508  0.00  0.00    +0.154 HD
ATOM     10  H   UNL     1       1.613   8.475   0.904  0.00  0.00    +0.149 HD
ENDROOT
BRANCH   7  11
ATOM     11  C   UNL     1       1.968   6.291  -0.682  0.00  0.00    +0.019 A 
ATOM     12  C   UNL     1       1.951   7.237  -1.690  0.00  0.00    +0.009 A 
ATOM     13  C   UNL     1       2.782   7.096  -2.785  0.00  0.00    +0.001 A 
ATOM     14  C   UNL     1       3.632   6.009  -2.876  0.00  0.00    +0.004 A 
ATOM     15  C   UNL     1       3.653   5.061  -1.871  0.00  0.00    +0.046 A 
ATOM     16  C   UNL     1       2.824   5.203  -0.768  0.00  0.00    +0.125 A 
BRANCH  16  17
ATOM     17  O   UNL     1       2.846   4.275   0.225  0.00  0.00    -0.495 OA
ATOM     18  C   UNL     1       3.827   3.240   0.123  0.00  0.00    +0.277 C 
ENDBRANCH  16  17
ENDBRANCH   7  11
BRANCH   1  20
ATOM     19  N   UNL     1      -0.129   3.735  -1.220  0.00  0.00    -0.281 N 
ATOM     20  C   UNL     1      -0.084   4.214   0.039  0.00  0.00    +0.248 C 
ATOM     21  O   UNL     1       0.037   3.447   0.978  0.00  0.00    -0.270 OA
ATOM     22  H   UNL     1      -0.172   4.349  -1.970  0.00  0.00    +0.155 HD
BRANCH  19  25
ATOM     23  C   UNL     1       0.647   2.801  -3.793  0.00  0.00    +0.047 C 
ATOM     24  C   UNL     1       0.257   1.856  -2.686  0.00  0.00    -0.011 A 
ATOM     25  C   UNL     1      -0.115   2.355  -1.444  0.00  0.00    +0.038 A 
ATOM     26  C   UNL     1      -0.474   1.481  -0.427  0.00  0.00    +0.023 A 
ATOM     27  C   UNL     1      -0.460   0.118  -0.651  0.00  0.00    +0.003 A 
ATOM     28  C   UNL     1      -0.089  -0.377  -1.888  0.00  0.00    +0.020 A 
ATOM     29  C   UNL     1       0.270   0.491  -2.905  0.00  0.00    +0.046 A 
ATOM     30 CL   UNL     1       0.735  -0.134  -4.456  0.00  0.00    -0.083 Cl
ENDBRANCH  19  25
ENDBRANCH   1  20
TORSDOF 4
