REMARK  Name = ZINC40954989
REMARK  12 active torsions:
REMARK  status: ('A' for Active; 'I' for Inactive)
REMARK    1  A    between atoms: C_1  and  C_2
REMARK    2  A    between atoms: C_2  and  C_3
REMARK    3  A    between atoms: C_2  and  N_4
REMARK    4  A    between atoms: C_13  and  N_29
REMARK    5  A    between atoms: C_14  and  C_15
REMARK    6  A    between atoms: C_15  and  C_17
REMARK    7  A    between atoms: C_19  and  O_27
REMARK    8  A    between atoms: C_20  and  O_25
REMARK    9  A    between atoms: C_21  and  O_23
REMARK   10  A    between atoms: O_23  and  C_24
REMARK   11  A    between atoms: O_25  and  C_26
REMARK   12  A    between atoms: O_27  and  C_28
REMARK                            x       y       z     vdW  Elec       q    Type
REMARK                         _______ _______ _______ _____ _____    ______ ____
ROOT
ATOM      1  N   UNL     1      -1.427  -0.491   0.011  0.00  0.00    -0.297 N 
ATOM      2  C   UNL     1      -1.694  -1.715  -0.487  0.00  0.00    +0.303 C 
ATOM      3  O   UNL     1      -0.796  -2.393  -0.948  0.00  0.00    -0.253 OA
ATOM      4  N   UNL     1      -2.956  -2.188  -0.473  0.00  0.00    -0.280 N 
ATOM      5  C   UNL     1      -3.276  -3.522  -1.003  0.00  0.00    +0.114 C 
ATOM      6  C   UNL     1      -3.783  -4.416   0.130  0.00  0.00    +0.056 C 
ATOM      7  C   UNL     1      -4.831  -3.658   0.932  0.00  0.00    -0.022 A 
ATOM      8  C   UNL     1      -4.923  -2.313   0.884  0.00  0.00    +0.013 A 
ATOM      9  S   UNL     1      -6.262  -1.910   1.967  0.00  0.00    -0.076 S 
ATOM     10  C   UNL     1      -6.697  -3.452   2.471  0.00  0.00    +0.074 A 
ATOM     11  C   UNL     1      -5.809  -4.289   1.805  0.00  0.00    +0.054 A 
ATOM     12  C   UNL     1      -4.066  -1.388   0.081  0.00  0.00    +0.152 C 
ATOM     13  H   UNL     1      -2.143   0.049   0.379  0.00  0.00    +0.150 HD
ENDROOT
BRANCH   1  15
ATOM     14  C   UNL     1      -0.083   1.552   0.007  0.00  0.00    +0.027 C 
ATOM     15  C   UNL     1      -0.055   0.023  -0.004  0.00  0.00    +0.068 C 
ATOM     16  C   UNL     1       0.692  -0.482   1.232  0.00  0.00    +0.027 C 
ENDBRANCH   1  15
BRANCH  10  17
ATOM     17  N   UNL     1      -7.705  -3.807   3.345  0.00  0.00    -0.352 N 
ATOM     18  H   UNL     1      -8.214  -3.120   3.803  0.00  0.00    +0.143 HD
ATOM     19  H   UNL     1      -7.905  -4.743   3.501  0.00  0.00    +0.143 HD
ENDBRANCH  10  17
BRANCH  11  20
ATOM     20  C   UNL     1      -5.855  -5.741   1.976  0.00  0.00    +0.196 C 
ATOM     21  O   UNL     1      -6.479  -6.428   1.188  0.00  0.00    -0.287 OA
BRANCH  20  22
ATOM     22  C   UNL     1      -5.144  -6.375   3.105  0.00  0.00    +0.029 A 
ATOM     23  C   UNL     1      -4.521  -5.583   4.073  0.00  0.00    +0.061 A 
ATOM     24  C   UNL     1      -3.856  -6.179   5.128  0.00  0.00    +0.166 A 
ATOM     25  C   UNL     1      -3.807  -7.567   5.228  0.00  0.00    +0.204 A 
ATOM     26  C   UNL     1      -4.427  -8.358   4.265  0.00  0.00    +0.166 A 
ATOM     27  C   UNL     1      -5.098  -7.767   3.211  0.00  0.00    +0.061 A 
BRANCH  26  28
ATOM     28  O   UNL     1      -4.377  -9.714   4.364  0.00  0.00    -0.491 OA
ATOM     29  C   UNL     1      -5.035 -10.464   3.341  0.00  0.00    +0.277 C 
ENDBRANCH  26  28
BRANCH  25  30
ATOM     30  O   UNL     1      -3.152  -8.150   6.266  0.00  0.00    -0.488 OA
ATOM     31  C   UNL     1      -3.914  -8.417   7.445  0.00  0.00    +0.277 C 
ENDBRANCH  25  30
BRANCH  24  32
ATOM     32  O   UNL     1      -3.249  -5.408   6.070  0.00  0.00    -0.491 OA
ATOM     33  C   UNL     1      -3.236  -3.997   5.845  0.00  0.00    +0.277 C 
ENDBRANCH  24  32
ENDBRANCH  20  22
ENDBRANCH  11  20
TORSDOF 7
