REMARK  Name = ZINC65617449
REMARK  8 active torsions:
REMARK  status: ('A' for Active; 'I' for Inactive)
REMARK    1  A    between atoms: C_1  and  C_2
REMARK    2  A    between atoms: C_6  and  N_9
REMARK    3  A    between atoms: C_7  and  C_8
REMARK    4  A    between atoms: N_9  and  C_10
REMARK    5  A    between atoms: C_10  and  N_12
REMARK    6  A    between atoms: N_12  and  N_13
REMARK    7  A    between atoms: C_14  and  C_16
REMARK    8  A    between atoms: C_21  and  O_22
REMARK                            x       y       z     vdW  Elec       q    Type
REMARK                         _______ _______ _______ _____ _____    ______ ____
ROOT
ATOM      1  N   UNL     1      -0.123  -4.123   4.764  0.00  0.00    -0.231 N 
ATOM      2  C   UNL     1      -0.209  -4.799   5.927  0.00  0.00    +0.264 C 
ATOM      3  O   UNL     1      -0.285  -6.013   5.920  0.00  0.00    -0.269 OA
ATOM      4  H   UNL     1      -0.062  -3.155   4.769  0.00  0.00    +0.173 HD
ENDROOT
BRANCH   2   5
ATOM      5  C   UNL     1      -0.213  -4.066   7.207  0.00  0.00    +0.080 A 
ATOM      6  C   UNL     1      -0.133  -2.675   7.222  0.00  0.00    +0.020 A 
ATOM      7  C   UNL     1      -0.138  -1.983   8.422  0.00  0.00    -0.043 A 
ATOM      8  C   UNL     1      -0.226  -2.672   9.615  0.00  0.00    -0.041 A 
ATOM      9  C   UNL     1      -0.302  -4.058   9.611  0.00  0.00    +0.050 A 
ATOM     10  C   UNL     1      -0.303  -4.763   8.420  0.00  0.00    +0.129 A 
ATOM     11  C   UNL     1      -0.253  -1.976  10.951  0.00  0.00    +0.035 C 
ATOM     12  C   UNL     1       0.264  -0.545  10.822  0.00  0.00    +0.005 C 
ATOM     13  C   UNL     1      -0.493   0.142   9.680  0.00  0.00    +0.005 C 
ATOM     14  C   UNL     1      -0.041  -0.480   8.360  0.00  0.00    +0.035 C 
BRANCH  10  15
ATOM     15  O   UNL     1      -0.385  -6.117   8.427  0.00  0.00    -0.506 OA
ATOM     16  H   UNL     1       0.472  -6.562   8.464  0.00  0.00    +0.292 HD
ENDBRANCH  10  15
ENDBRANCH   2   5
BRANCH   1  17
ATOM     17  N   UNL     1      -0.119  -4.819   3.548  0.00  0.00    -0.245 N 
ATOM     18  H   UNL     1      -0.179  -5.787   3.542  0.00  0.00    +0.172 HD
BRANCH  17  19
ATOM     19  C   UNL     1      -0.032  -4.143   2.385  0.00  0.00    +0.151 C 
ATOM     20  S   UNL     1      -0.028  -4.992   0.899  0.00  0.00    -0.017 S 
BRANCH  19  21
ATOM     21  N   UNL     1       0.051  -2.797   2.392  0.00  0.00    -0.296 N 
ATOM     22  H   UNL     1       0.129  -2.321   3.233  0.00  0.00    +0.154 HD
BRANCH  21  28
ATOM     23  C   UNL     1       1.865   0.777  -0.455  0.00  0.00    +0.044 C 
ATOM     24  C   UNL     1       0.894  -0.351  -0.220  0.00  0.00    -0.046 A 
ATOM     25  C   UNL     1      -0.025  -0.686  -1.198  0.00  0.00    +0.004 A 
ATOM     26  C   UNL     1      -0.918  -1.720  -0.987  0.00  0.00    +0.002 A 
ATOM     27  C   UNL     1      -0.895  -2.422   0.202  0.00  0.00    +0.023 A 
ATOM     28  C   UNL     1       0.026  -2.088   1.187  0.00  0.00    +0.036 A 
ATOM     29  C   UNL     1       0.925  -1.053   0.969  0.00  0.00    -0.026 A 
ATOM     30  C   UNL     1       1.931  -0.691   2.031  0.00  0.00    +0.046 C 
ENDBRANCH  21  28
ENDBRANCH  19  21
ENDBRANCH  17  19
ENDBRANCH   1  17
TORSDOF 6
