REMARK  Name = ZINC09639004
REMARK  7 active torsions:
REMARK  status: ('A' for Active; 'I' for Inactive)
REMARK    1  A    between atoms: C_1  and  C_2
REMARK    2  A    between atoms: C_2  and  O_3
REMARK    3  A    between atoms: O_3  and  C_4
REMARK    4  A    between atoms: C_12  and  N_17
REMARK    5  A    between atoms: C_13  and  C_14
REMARK    6  A    between atoms: C_18  and  C_20
REMARK    7  A    between atoms: C_21  and  C_22
REMARK                            x       y       z     vdW  Elec       q    Type
REMARK                         _______ _______ _______ _____ _____    ______ ____
ROOT
ATOM      1  C   UNL     1       3.697 -12.295  -1.151  0.00  0.00    +0.403 C 
ATOM      2  O   UNL     1       4.644 -13.032  -1.340  0.00  0.00    -0.226 OA
ATOM      3  N   UNL     1       3.819 -11.242  -0.319  0.00  0.00    -0.262 N 
ATOM      4  C   UNL     1       5.085 -10.959   0.373  0.00  0.00    +0.116 C 
ATOM      5  C   UNL     1       5.645  -9.619  -0.110  0.00  0.00    +0.056 C 
ATOM      6  C   UNL     1       4.537  -8.575  -0.086  0.00  0.00    -0.020 A 
ATOM      7  C   UNL     1       3.235  -8.933  -0.072  0.00  0.00    +0.013 A 
ATOM      8  S   UNL     1       2.341  -7.406  -0.050  0.00  0.00    -0.076 S 
ATOM      9  C   UNL     1       3.676  -6.301  -0.065  0.00  0.00    +0.085 A 
ATOM     10  C   UNL     1       4.781  -7.142  -0.080  0.00  0.00    +0.068 A 
ATOM     11  C   UNL     1       2.686 -10.328  -0.068  0.00  0.00    +0.153 C 
ENDROOT
BRANCH  10  12
ATOM     12  C   UNL     1       6.145  -6.603  -0.090  0.00  0.00    +0.244 C 
ATOM     13  O   UNL     1       6.721  -6.385   0.960  0.00  0.00    -0.270 OA
ATOM     14  N   UNL     1       6.761  -6.350  -1.262  0.00  0.00    -0.325 N 
ATOM     15  H   UNL     1       6.302  -6.524  -2.099  0.00  0.00    +0.145 HD
ATOM     16  H   UNL     1       7.663  -5.994  -1.268  0.00  0.00    +0.145 HD
ENDBRANCH  10  12
BRANCH   9  17
ATOM     17  N   UNL     1       3.648  -4.917  -0.058  0.00  0.00    -0.276 N 
ATOM     18  C   UNL     1       2.467  -4.267  -0.043  0.00  0.00    +0.241 C 
ATOM     19  O   UNL     1       1.426  -4.897  -0.036  0.00  0.00    -0.270 OA
ATOM     20  H   UNL     1       4.478  -4.415  -0.064  0.00  0.00    +0.156 HD
BRANCH  18  21
ATOM     21  C   UNL     1       2.438  -2.804  -0.036  0.00  0.00    +0.068 C 
ATOM     22  C   UNL     1       1.256  -2.154  -0.021  0.00  0.00    +0.014 C 
BRANCH  22  23
ATOM     23  C   UNL     1       1.226  -0.683  -0.013  0.00  0.00    -0.007 A 
ATOM     24  C   UNL     1       2.421   0.045  -0.021  0.00  0.00    +0.009 A 
ATOM     25  C   UNL     1       2.384   1.423  -0.013  0.00  0.00    +0.001 A 
ATOM     26  C   UNL     1       1.170   2.088   0.002  0.00  0.00    +0.001 A 
ATOM     27  C   UNL     1      -0.017   1.377   0.010  0.00  0.00    +0.020 A 
ATOM     28  C   UNL     1       0.002  -0.004   0.002  0.00  0.00    +0.048 A 
ATOM     29 CL   UNL     1      -1.488  -0.895   0.011  0.00  0.00    -0.083 Cl
ENDBRANCH  22  23
ENDBRANCH  18  21
ENDBRANCH   9  17
BRANCH   1  30
ATOM     30  O   UNL     1       2.526 -12.531  -1.771  0.00  0.00    -0.451 OA
BRANCH  30  32
ATOM     31  C   UNL     1       1.068 -13.788  -3.263  0.00  0.00    +0.048 C 
ATOM     32  C   UNL     1       2.467 -13.683  -2.653  0.00  0.00    +0.230 C 
ENDBRANCH  30  32
ENDBRANCH   1  30
TORSDOF 6
