REMARK  Name = ZINC63573379
REMARK  6 active torsions:
REMARK  status: ('A' for Active; 'I' for Inactive)
REMARK    1  A    between atoms: C_1  and  C_2
REMARK    2  A    between atoms: C_5  and  C_8
REMARK    3  A    between atoms: C_15  and  O_20
REMARK    4  A    between atoms: O_20  and  C_21
REMARK    5  A    between atoms: N_27  and  C_28
REMARK    6  A    between atoms: C_33  and  C_34
REMARK                            x       y       z     vdW  Elec       q    Type
REMARK                         _______ _______ _______ _____ _____    ______ ____
ROOT
ATOM      1  C   UNL     1      -0.790  -4.596  -0.415  0.00  0.00    +0.134 C 
ATOM      2  C   UNL     1       0.723  -4.782  -0.578  0.00  0.00    +0.131 C 
ATOM      3  C   UNL     1       1.048  -6.175  -0.053  0.00  0.00    -0.035 C 
ATOM      4  C   UNL     1       1.663  -6.814  -1.041  0.00  0.00    +0.003 A 
ATOM      5  C   UNL     1       2.271  -8.151  -1.117  0.00  0.00    +0.055 A 
ATOM      6  C   UNL     1       2.819  -8.505  -2.312  0.00  0.00    +0.121 A 
ATOM      7  C   UNL     1       2.831  -7.678  -3.445  0.00  0.00    +0.047 A 
ATOM      8  C   UNL     1       2.304  -6.428  -3.484  0.00  0.00    +0.029 A 
ATOM      9  C   UNL     1       1.685  -5.930  -2.247  0.00  0.00    +0.043 A 
ATOM     10  N   UNL     1       1.124  -4.764  -1.986  0.00  0.00    -0.375 N 
ATOM     11  C   UNL     1       0.626  -6.643   1.318  0.00  0.00    +0.052 C 
ATOM     12  C   UNL     1      -0.879  -6.343   1.444  0.00  0.00    +0.114 C 
ATOM     13  N   UNL     1      -1.148  -4.986   0.958  0.00  0.00    -0.276 N 
ATOM     14  C   UNL     1      -1.727  -4.086   1.778  0.00  0.00    +0.307 C 
ATOM     15  O   UNL     1      -2.077  -3.005   1.344  0.00  0.00    -0.252 OA
ATOM     16  N   UNL     1      -1.919  -4.385   3.078  0.00  0.00    -0.269 N 
ATOM     17  H   UNL     1      -1.567  -5.212   3.443  0.00  0.00    +0.156 HD
ATOM     18  H   UNL     1       0.992  -4.029  -2.604  0.00  0.00    +0.160 HD
ENDROOT
BRANCH  16  19
ATOM     19  C   UNL     1      -2.626  -3.501   3.901  0.00  0.00    +0.039 A 
ATOM     20  C   UNL     1      -2.611  -2.139   3.635  0.00  0.00    +0.043 A 
ATOM     21  C   UNL     1      -3.311  -1.269   4.450  0.00  0.00    +0.043 A 
ATOM     22  C   UNL     1      -4.025  -1.756   5.531  0.00  0.00    +0.020 A 
ATOM     23  C   UNL     1      -4.042  -3.112   5.798  0.00  0.00    +0.006 A 
ATOM     24  C   UNL     1      -3.349  -3.986   4.984  0.00  0.00    -0.029 A 
ATOM     25  C   UNL     1      -3.372  -5.465   5.272  0.00  0.00    +0.045 C 
ATOM     26 CL   UNL     1      -3.292   0.435   4.119  0.00  0.00    -0.083 Cl
ENDBRANCH  16  19
BRANCH   1  31
ATOM     27  C   UNL     1      -2.184   0.940  -1.306  0.00  0.00    +0.044 C 
ATOM     28  C   UNL     1      -1.821  -0.503  -1.074  0.00  0.00    -0.050 A 
ATOM     29  C   UNL     1      -0.709  -0.823  -0.316  0.00  0.00    +0.004 A 
ATOM     30  C   UNL     1      -0.376  -2.147  -0.103  0.00  0.00    +0.006 A 
ATOM     31  C   UNL     1      -1.154  -3.152  -0.647  0.00  0.00    -0.025 A 
ATOM     32  C   UNL     1      -2.266  -2.833  -1.403  0.00  0.00    +0.006 A 
ATOM     33  C   UNL     1      -2.602  -1.508  -1.613  0.00  0.00    +0.004 A 
ENDBRANCH   1  31
BRANCH   6  34
ATOM     34  O   UNL     1       3.389  -9.735  -2.414  0.00  0.00    -0.495 OA
ATOM     35  C   UNL     1       3.958 -10.084  -3.678  0.00  0.00    +0.277 C 
ENDBRANCH   6  34
TORSDOF 3
