REMARK  Name = ZINC48834510
REMARK  3 active torsions:
REMARK  status: ('A' for Active; 'I' for Inactive)
REMARK    1  A    between atoms: C_1  and  C_2
REMARK    2  A    between atoms: C_7  and  C_9
REMARK    3  A    between atoms: C_7  and  N_12
REMARK                            x       y       z     vdW  Elec       q    Type
REMARK                         _______ _______ _______ _____ _____    ______ ____
ROOT
ATOM      1  N   UNL     1      -0.087   1.446   2.704  0.00  0.00    -0.283 N 
ATOM      2  C   UNL     1      -0.490   2.107   3.807  0.00  0.00    +0.303 C 
ATOM      3  O   UNL     1      -0.751   1.493   4.824  0.00  0.00    -0.253 OA
ATOM      4  N   UNL     1      -0.605   3.450   3.783  0.00  0.00    -0.287 N 
ATOM      5  C   UNL     1      -0.188   4.178   2.567  0.00  0.00    +0.107 C 
ATOM      6  C   UNL     1      -1.184   5.302   2.226  0.00  0.00    -0.000 C 
ATOM      7  C   UNL     1      -2.595   4.816   2.473  0.00  0.00    -0.081 C 
ATOM      8  N   UNL     1      -3.005   5.191   3.824  0.00  0.00    +0.380 N 
ATOM      9  C   UNL     1      -2.670   4.256   4.829  0.00  0.00    -0.063 C 
ATOM     10  C   UNL     1      -1.139   4.127   4.947  0.00  0.00    +0.090 C 
ATOM     11  H   UNL     1       0.194   1.939   1.918  0.00  0.00    +0.151 HD
ATOM     12  H   UNL     1      -2.574   6.073   4.054  0.00  0.00    -0.086 HD
ATOM     13  H   UNL     1      -4.006   5.319   3.829  0.00  0.00    -0.086 HD
ENDROOT
BRANCH   1  19
ATOM     14  C   UNL     1       2.288   1.528   3.478  0.00  0.00    +0.007 C 
ATOM     15  C   UNL     1       2.303  -0.002   3.467  0.00  0.00    -0.012 C 
ATOM     16  C   UNL     1       2.755  -0.497   2.092  0.00  0.00    +0.003 C 
ATOM     17  C   UNL     1       1.785   0.011   1.023  0.00  0.00    +0.003 C 
ATOM     18  C   UNL     1       0.379  -0.515   1.319  0.00  0.00    +0.037 C 
ATOM     19  C   UNL     1      -0.072  -0.019   2.694  0.00  0.00    +0.137 C 
ATOM     20  C   UNL     1       0.897  -0.528   3.763  0.00  0.00    +0.040 C 
BRANCH  19  21
ATOM     21  C   UNL     1      -1.457  -0.538   2.985  0.00  0.00    +0.379 C 
ATOM     22  O   UNL     1      -1.663  -1.739   3.022  0.00  0.00    -0.244 OA
ATOM     23  O   UNL     1      -2.372   0.244   3.183  0.00  0.00    -0.244 OA
ENDBRANCH  19  21
ENDBRANCH   1  19
TORSDOF 2
