REMARK  Name = ZINC39512540
REMARK  2 active torsions:
REMARK  status: ('A' for Active; 'I' for Inactive)
REMARK    1  A    between atoms: C_3  and  O_15
REMARK    2  A    between atoms: N_12  and  O_14
REMARK                            x       y       z     vdW  Elec       q    Type
REMARK                         _______ _______ _______ _____ _____    ______ ____
ROOT
ATOM      1  C   UNL     1      -0.019   1.526   0.010  0.00  0.00    +0.020 C 
ATOM      2  C   UNL     1       1.419   2.052  -0.001  0.00  0.00    +0.034 C 
ATOM      3  C   UNL     1       2.143   1.511  -1.237  0.00  0.00    +0.137 C 
ATOM      4  C   UNL     1       2.089  -0.015  -1.226  0.00  0.00    +0.074 C 
ATOM      5  C   UNL     1       2.841  -0.553   0.005  0.00  0.00    +0.029 C 
ATOM      6  C   UNL     1       3.545  -1.834  -0.510  0.00  0.00    +0.021 C 
ATOM      7  C   UNL     1       3.976  -1.435  -1.943  0.00  0.00    +0.082 C 
ATOM      8  C   UNL     1       2.806  -0.574  -2.465  0.00  0.00    +0.046 C 
ATOM      9 CL   UNL     1       5.501  -0.473  -1.898  0.00  0.00    -0.122 Cl
ATOM     10  N   UNL     1       0.700  -0.478  -1.201  0.00  0.00    -0.182 NA
ATOM     11  C   UNL     1       0.002  -0.004   0.002  0.00  0.00    +0.115 C 
ENDROOT
BRANCH  10  12
ATOM     12  O   UNL     1       0.630  -1.936  -1.306  0.00  0.00    -0.312 OA
ATOM     13  H   UNL     1      -0.270  -2.289  -1.294  0.00  0.00    +0.237 HD
ENDBRANCH  10  12
BRANCH   3  14
ATOM     14  O   UNL     1       1.503   2.002  -2.417  0.00  0.00    -0.390 OA
ATOM     15  H   UNL     1       1.498   2.967  -2.489  0.00  0.00    +0.210 HD
ENDBRANCH   3  14
TORSDOF 2
