REMARK  Name = ZINC62430641
REMARK  5 active torsions:
REMARK  status: ('A' for Active; 'I' for Inactive)
REMARK    1  A    between atoms: C_4  and  S_7
REMARK    2  A    between atoms: S_7  and  C_10
REMARK    3  A    between atoms: C_11  and  N_22
REMARK    4  A    between atoms: N_12  and  C_15
REMARK    5  A    between atoms: C_18  and  N_21
REMARK                            x       y       z     vdW  Elec       q    Type
REMARK                         _______ _______ _______ _____ _____    ______ ____
ROOT
ATOM      1  C   UNL     1       4.406  -1.094   1.637  0.00  0.00    +0.244 A 
ATOM      2  C   UNL     1       5.153  -0.245   2.390  0.00  0.00    +0.166 A 
ATOM      3  N   UNL     1       5.284  -0.826   3.618  0.00  0.00    -0.197 N 
ATOM      4  N   UNL     1       4.588  -2.042   3.554  0.00  0.00    -0.057 NA
ATOM      5  N   UNL     1       4.084  -2.156   2.376  0.00  0.00    -0.108 NA
ENDROOT
BRANCH   3   6
ATOM      6  C   UNL     1       5.977  -0.309   4.724  0.00  0.00    +0.069 A 
ATOM      7  C   UNL     1       7.137   0.429   4.533  0.00  0.00    +0.030 A 
ATOM      8  C   UNL     1       7.819   0.938   5.620  0.00  0.00    +0.025 A 
ATOM      9  C   UNL     1       7.344   0.711   6.905  0.00  0.00    +0.025 A 
ATOM     10  C   UNL     1       6.183  -0.027   7.096  0.00  0.00    +0.025 A 
ATOM     11  C   UNL     1       5.499  -0.531   6.008  0.00  0.00    +0.030 A 
BRANCH   9  12
ATOM     12  N   UNL     1       8.034   1.226   8.007  0.00  0.00    -0.358 N 
ATOM     13  H   UNL     1       8.845   1.741   7.874  0.00  0.00    +0.142 HD
ATOM     14  H   UNL     1       7.703   1.067   8.905  0.00  0.00    +0.142 HD
ENDBRANCH   9  12
ENDBRANCH   3   6
BRANCH   1  15
ATOM     15  S   UNL     1       3.934  -0.832  -0.041  0.00  0.00    +0.047 S 
ATOM     16  O   UNL     1       3.674  -2.114  -0.595  0.00  0.00    -0.163 OA
ATOM     17  O   UNL     1       4.890   0.060  -0.597  0.00  0.00    -0.163 OA
BRANCH  15  21
ATOM     18  C   UNL     1      -0.017   1.378   0.010  0.00  0.00    +0.000 A 
ATOM     19  C   UNL     1       1.171   2.086   0.002  0.00  0.00    +0.002 A 
ATOM     20  C   UNL     1       2.377   1.411  -0.013  0.00  0.00    +0.027 A 
ATOM     21  C   UNL     1       2.396   0.029  -0.020  0.00  0.00    +0.095 A 
ATOM     22  C   UNL     1       1.208  -0.679  -0.012  0.00  0.00    +0.027 A 
ATOM     23  C   UNL     1       0.002  -0.004   0.002  0.00  0.00    +0.002 A 
ENDBRANCH  15  21
ENDBRANCH   1  15
BRANCH   2  24
ATOM     24  N   UNL     1       5.682   0.979   1.987  0.00  0.00    -0.340 N 
ATOM     25  H   UNL     1       5.528   1.300   1.085  0.00  0.00    +0.144 HD
ATOM     26  H   UNL     1       6.204   1.510   2.608  0.00  0.00    +0.144 HD
ENDBRANCH   2  24
TORSDOF 5
