REMARK  Name = ZINC32575616
REMARK  8 active torsions:
REMARK  status: ('A' for Active; 'I' for Inactive)
REMARK    1  A    between atoms: C_1  and  C_2
REMARK    2  A    between atoms: C_5  and  S_9
REMARK    3  A    between atoms: C_7  and  C_8
REMARK    4  A    between atoms: S_9  and  N_12
REMARK    5  A    between atoms: N_12  and  N_13
REMARK    6  A    between atoms: C_14  and  C_15
REMARK    7  A    between atoms: C_19  and  O_22
REMARK    8  A    between atoms: C_20  and  O_21
REMARK                            x       y       z     vdW  Elec       q    Type
REMARK                         _______ _______ _______ _____ _____    ______ ____
ROOT
ATOM      1  N   UNL     1       1.190   5.910  -0.078  0.00  0.00    -0.137 N 
ATOM      2  H   UNL     1       0.362   5.427   0.073  0.00  0.00    +0.197 HD
ENDROOT
BRANCH   1   3
ATOM      3  S   UNL     1       1.161   7.548  -0.319  0.00  0.00    +0.086 S 
ATOM      4  O   UNL     1      -0.208   7.923  -0.392  0.00  0.00    -0.149 OA
ATOM      5  O   UNL     1       2.057   8.113   0.628  0.00  0.00    -0.149 OA
BRANCH   3  10
ATOM      6  C   UNL     1       3.527   8.591  -5.770  0.00  0.00    +0.044 C 
ATOM      7  C   UNL     1       2.936   8.331  -4.409  0.00  0.00    -0.047 A 
ATOM      8  C   UNL     1       3.753   8.303  -3.294  0.00  0.00    +0.005 A 
ATOM      9  C   UNL     1       3.211   8.069  -2.045  0.00  0.00    +0.029 A 
ATOM     10  C   UNL     1       1.852   7.853  -1.911  0.00  0.00    +0.110 A 
ATOM     11  C   UNL     1       1.034   7.881  -3.025  0.00  0.00    +0.032 A 
ATOM     12  C   UNL     1       1.577   8.120  -4.274  0.00  0.00    -0.046 A 
ATOM     13  C   UNL     1       0.686   8.151  -5.489  0.00  0.00    +0.044 C 
ENDBRANCH   3  10
ENDBRANCH   1   3
BRANCH   1  14
ATOM     14  N   UNL     1       2.410   5.221  -0.093  0.00  0.00    -0.174 NA
ATOM     15  C   UNL     1       2.423   3.924  -0.071  0.00  0.00    +0.143 C 
BRANCH  15  16
ATOM     16  C   UNL     1       1.229   3.167  -0.491  0.00  0.00    +0.040 A 
ATOM     17  C   UNL     1       0.309   3.740  -1.373  0.00  0.00    +0.013 A 
ATOM     18  C   UNL     1      -0.806   3.030  -1.764  0.00  0.00    +0.004 A 
ATOM     19  C   UNL     1      -1.024   1.751  -1.281  0.00  0.00    +0.049 A 
ATOM     20  C   UNL     1      -0.118   1.168  -0.408  0.00  0.00    +0.159 A 
ATOM     21  C   UNL     1       1.011   1.872  -0.007  0.00  0.00    +0.167 A 
BRANCH  21  22
ATOM     22  O   UNL     1       1.899   1.306   0.852  0.00  0.00    -0.503 OA
ATOM     23  H   UNL     1       1.725   0.288   1.231  0.00  0.00    +0.292 HD
ENDBRANCH  21  22
BRANCH  20  24
ATOM     24  O   UNL     1      -0.336  -0.090   0.058  0.00  0.00    -0.503 OA
ATOM     25  H   UNL     1       0.383  -0.553   0.750  0.00  0.00    +0.292 HD
ENDBRANCH  20  24
ENDBRANCH  15  16
ENDBRANCH   1  14
TORSDOF 6
