REMARK  Name = ZINC50703124
REMARK  4 active torsions:
REMARK  status: ('A' for Active; 'I' for Inactive)
REMARK    1  A    between atoms: C_3  and  N_19
REMARK    2  A    between atoms: C_4  and  C_8
REMARK    3  A    between atoms: C_6  and  N_7
REMARK    4  A    between atoms: N_10  and  C_11
REMARK                            x       y       z     vdW  Elec       q    Type
REMARK                         _______ _______ _______ _____ _____    ______ ____
ROOT
ATOM      1  C   UNL     1      -0.021   1.428   0.084  0.00  0.00    +0.025 A 
ATOM      2  C   UNL     1       0.833   1.625  -0.985  0.00  0.00    +0.035 A 
ATOM      3  C   UNL     1       2.041   0.960  -1.042  0.00  0.00    +0.138 A 
ATOM      4  C   UNL     1       2.403   0.083  -0.018  0.00  0.00    +0.069 A 
ATOM      5  C   UNL     1       1.542  -0.116   1.061  0.00  0.00    +0.038 A 
ATOM      6  C   UNL     1       0.331   0.557   1.109  0.00  0.00    +0.025 A 
ENDROOT
BRANCH   4   7
ATOM      7  C   UNL     1       3.696  -0.633  -0.077  0.00  0.00    +0.251 C 
ATOM      8  O   UNL     1       4.738  -0.009  -0.034  0.00  0.00    -0.270 OA
ATOM      9  N   UNL     1       3.718  -1.976  -0.178  0.00  0.00    -0.279 N 
ATOM     10  H   UNL     1       2.890  -2.468  -0.297  0.00  0.00    +0.155 HD
BRANCH   9  11
ATOM     11  C   UNL     1       4.936  -2.663  -0.113  0.00  0.00    +0.070 A 
ATOM     12  C   UNL     1       6.020  -2.096   0.543  0.00  0.00    +0.041 A 
ATOM     13  C   UNL     1       7.221  -2.776   0.606  0.00  0.00    +0.020 A 
ATOM     14  C   UNL     1       7.345  -4.021   0.015  0.00  0.00    +0.018 A 
ATOM     15  C   UNL     1       6.268  -4.590  -0.639  0.00  0.00    +0.041 A 
ATOM     16  C   UNL     1       5.061  -3.917  -0.700  0.00  0.00    +0.145 A 
ATOM     17  F   UNL     1       4.007  -4.475  -1.335  0.00  0.00    -0.204 F 
ATOM     18 BR   UNL     1       8.698  -2.004   1.499  0.00  0.00    -0.050 Br
ENDBRANCH   9  11
ENDBRANCH   4   7
BRANCH   6  19
ATOM     19  N   UNL     1      -0.535   0.361   2.187  0.00  0.00    -0.358 N 
ATOM     20  H   UNL     1      -1.383   0.833   2.221  0.00  0.00    +0.142 HD
ATOM     21  H   UNL     1      -0.290  -0.246   2.903  0.00  0.00    +0.142 HD
ENDBRANCH   6  19
BRANCH   3  22
ATOM     22  N   UNL     1       2.951   1.175  -2.189  0.00  0.00    +0.057 N 
ATOM     23  O   UNL     1       2.600   1.864  -3.118  0.00  0.00    -0.126 OA
ATOM     24  O   UNL     1       4.045   0.661  -2.197  0.00  0.00    -0.126 OA
ENDBRANCH   3  22
TORSDOF 4
