REMARK  Name = ZINC37338069
REMARK  7 active torsions:
REMARK  status: ('A' for Active; 'I' for Inactive)
REMARK    1  A    between atoms: C_1  and  C_2
REMARK    2  A    between atoms: C_2  and  C_4
REMARK    3  A    between atoms: C_2  and  N_12
REMARK    4  A    between atoms: N_12  and  S_13
REMARK    5  A    between atoms: S_13  and  C_16
REMARK    6  A    between atoms: C_19  and  C_21
REMARK    7  A    between atoms: C_21  and  N_22
REMARK                            x       y       z     vdW  Elec       q    Type
REMARK                         _______ _______ _______ _____ _____    ______ ____
ROOT
ATOM      1  S   UNL     1       2.301  -0.986  -1.031  0.00  0.00    +0.065 S 
ATOM      2  O   UNL     1       2.708  -1.425  -2.320  0.00  0.00    -0.153 OA
ATOM      3  O   UNL     1       2.984   0.041  -0.325  0.00  0.00    -0.153 OA
ENDROOT
BRANCH   1   4
ATOM      4  C   UNL     1       2.311  -2.406   0.011  0.00  0.00    +0.143 A 
ATOM      5  C   UNL     1       2.205  -3.715  -0.327  0.00  0.00    +0.036 A 
ATOM      6  C   UNL     1       2.239  -4.670   0.671  0.00  0.00    +0.011 A 
ATOM      7  C   UNL     1       2.378  -4.271   1.959  0.00  0.00    -0.026 A 
ATOM      8  S   UNL     1       2.472  -2.497   1.787  0.00  0.00    -0.075 S 
BRANCH   7   9
ATOM      9  C   UNL     1       2.442  -5.108   3.210  0.00  0.00    -0.043 C 
BRANCH   9  10
ATOM     10  N   UNL     1       3.840  -5.460   3.493  0.00  0.00    +0.381 N 
ATOM     11  H   UNL     1       4.218  -5.984   2.718  0.00  0.00    -0.090 HD
ATOM     12  H   UNL     1       4.379  -4.617   3.624  0.00  0.00    -0.090 HD
ATOM     13  H   UNL     1       3.883  -6.021   4.331  0.00  0.00    -0.090 HD
ENDBRANCH   9  10
ENDBRANCH   7   9
ENDBRANCH   1   4
BRANCH   1  14
ATOM     14  N   UNL     1       0.726  -0.495  -1.173  0.00  0.00    -0.182 NA
ATOM     15  H   UNL     1       0.282  -0.532  -2.035  0.00  0.00    +0.149 HD
BRANCH  14  17
ATOM     16  C   UNL     1       0.055   1.525   0.032  0.00  0.00    +0.031 C 
ATOM     17  C   UNL     1       0.002  -0.004   0.002  0.00  0.00    +0.105 C 
BRANCH  17  18
ATOM     18  C   UNL     1      -1.434  -0.456  -0.067  0.00  0.00    -0.011 A 
ATOM     19  C   UNL     1      -2.021  -0.706  -1.293  0.00  0.00    +0.008 A 
ATOM     20  C   UNL     1      -3.338  -1.121  -1.357  0.00  0.00    +0.020 A 
ATOM     21  C   UNL     1      -4.069  -1.286  -0.194  0.00  0.00    +0.042 A 
ATOM     22  C   UNL     1      -3.482  -1.037   1.033  0.00  0.00    +0.040 A 
ATOM     23  C   UNL     1      -2.162  -0.626   1.097  0.00  0.00    +0.047 A 
ATOM     24 CL   UNL     1      -1.422  -0.319   2.637  0.00  0.00    -0.083 Cl
ATOM     25 CL   UNL     1      -5.723  -1.806  -0.275  0.00  0.00    -0.083 Cl
ENDBRANCH  17  18
ENDBRANCH  14  17
ENDBRANCH   1  14
TORSDOF 6
