REMARK  Name = ZINC10785160
REMARK  8 active torsions:
REMARK  status: ('A' for Active; 'I' for Inactive)
REMARK    1  A    between atoms: C_1  and  C_2
REMARK    2  A    between atoms: C_5  and  C_8
REMARK    3  A    between atoms: C_11  and  S_14
REMARK    4  A    between atoms: N_12  and  N_13
REMARK    5  A    between atoms: S_14  and  C_15
REMARK    6  A    between atoms: C_15  and  C_16
REMARK    7  A    between atoms: N_21  and  C_22
REMARK    8  A    between atoms: C_28  and  C_30
REMARK                            x       y       z     vdW  Elec       q    Type
REMARK                         _______ _______ _______ _____ _____    ______ ____
ROOT
ATOM      1  S   UNL     1       6.884   6.751  -3.242  0.00  0.00    -0.075 S 
ENDROOT
BRANCH   1   5
ATOM      2  C   UNL     1      10.278   8.647  -2.856  0.00  0.00    +0.182 A 
ATOM      3  N   UNL     1      10.575   7.438  -2.442  0.00  0.00    -0.127 NA
ATOM      4  N   UNL     1       9.536   6.684  -2.506  0.00  0.00    -0.121 NA
ATOM      5  C   UNL     1       8.514   7.365  -2.975  0.00  0.00    +0.209 A 
ATOM      6  N   UNL     1       8.949   8.638  -3.211  0.00  0.00    -0.224 N 
BRANCH   2  11
ATOM      7  C   UNL     1      13.862  13.140  -3.139  0.00  0.00    +0.044 C 
ATOM      8  C   UNL     1      12.924  11.964  -3.066  0.00  0.00    -0.050 A 
ATOM      9  C   UNL     1      11.556  12.169  -3.112  0.00  0.00    +0.004 A 
ATOM     10  C   UNL     1      10.692  11.097  -3.045  0.00  0.00    +0.012 A 
ATOM     11  C   UNL     1      11.199   9.801  -2.929  0.00  0.00    +0.021 A 
ATOM     12  C   UNL     1      12.580   9.601  -2.877  0.00  0.00    +0.012 A 
ATOM     13  C   UNL     1      13.433  10.682  -2.951  0.00  0.00    +0.004 A 
ENDBRANCH   2  11
BRANCH   6  14
ATOM     14  N   UNL     1       8.217   9.683  -3.697  0.00  0.00    -0.295 N 
ATOM     15  H   UNL     1       7.863  10.257  -2.947  0.00  0.00    +0.163 HD
ATOM     16  H   UNL     1       8.759  10.233  -4.347  0.00  0.00    +0.163 HD
ENDBRANCH   6  14
ENDBRANCH   1   5
BRANCH   1  17
ATOM     17  C   UNL     1       7.102   5.036  -2.709  0.00  0.00    +0.173 C 
BRANCH  17  18
ATOM     18  C   UNL     1       5.798   4.295  -2.853  0.00  0.00    +0.231 C 
ATOM     19  O   UNL     1       4.818   4.870  -3.275  0.00  0.00    -0.274 OA
ATOM     20  N   UNL     1       5.721   2.993  -2.513  0.00  0.00    -0.239 N 
ATOM     21  C   UNL     1       4.555   2.330  -2.643  0.00  0.00    +0.306 C 
ATOM     22  O   UNL     1       3.572   2.907  -3.066  0.00  0.00    -0.252 OA
ATOM     23  N   UNL     1       4.478   1.028  -2.303  0.00  0.00    -0.296 N 
ATOM     24  H   UNL     1       6.506   2.533  -2.175  0.00  0.00    +0.159 HD
ATOM     25  H   UNL     1       5.263   0.568  -1.965  0.00  0.00    +0.151 HD
BRANCH  23  26
ATOM     26  C   UNL     1       3.210   0.308  -2.443  0.00  0.00    +0.077 C 
ATOM     27  C   UNL     1       2.355   0.533  -1.195  0.00  0.00    +0.022 C 
ATOM     28  C   UNL     1       1.030  -0.219  -1.341  0.00  0.00    +0.002 C 
ATOM     29  C   UNL     1       1.309  -1.715  -1.506  0.00  0.00    +0.000 C 
ATOM     30  C   UNL     1       2.165  -1.940  -2.754  0.00  0.00    +0.005 C 
ATOM     31  C   UNL     1       3.489  -1.188  -2.607  0.00  0.00    +0.006 C 
ATOM     32  C   UNL     1       4.344  -1.413  -3.856  0.00  0.00    +0.009 C 
ENDBRANCH  23  26
ENDBRANCH  17  18
ENDBRANCH   1  17
TORSDOF 6
