REMARK  Name = ZINC39205062
REMARK  3 active torsions:
REMARK  status: ('A' for Active; 'I' for Inactive)
REMARK    1  A    between atoms: C_3  and  C_6
REMARK    2  A    between atoms: N_7  and  C_8
REMARK    3  A    between atoms: C_13  and  C_18
REMARK                            x       y       z     vdW  Elec       q    Type
REMARK                         _______ _______ _______ _____ _____    ______ ____
ROOT
ATOM      1  C   UNL     1       5.885   0.906   0.214  0.00  0.00    +0.066 A 
ATOM      2  C   UNL     1       6.215   1.937  -0.773  0.00  0.00    +0.030 A 
ATOM      3  C   UNL     1       7.474   2.389  -0.913  0.00  0.00    +0.029 A 
ATOM      4  C   UNL     1       8.541   1.839  -0.061  0.00  0.00    +0.061 A 
ATOM      5  N   UNL     1       9.816   2.095   0.007  0.00  0.00    -0.360 N 
ATOM      6  C   UNL     1      10.386   1.235   1.051  0.00  0.00    +0.207 C 
ATOM      7  N   UNL     1       9.273   0.441   1.587  0.00  0.00    -0.360 N 
ATOM      8  C   UNL     1       8.193   0.794   0.936  0.00  0.00    +0.062 A 
ATOM      9  C   UNL     1       6.847   0.365   1.038  0.00  0.00    +0.055 A 
ATOM     10  H   UNL     1      10.302   2.736  -0.534  0.00  0.00    +0.162 HD
ATOM     11  H   UNL     1       9.329  -0.223   2.292  0.00  0.00    +0.162 HD
ENDROOT
BRANCH   6  12
ATOM     12  C   UNL     1      11.433   0.327   0.460  0.00  0.00    +0.013 A 
ATOM     13  C   UNL     1      11.092  -0.951   0.057  0.00  0.00    +0.010 A 
ATOM     14  C   UNL     1      12.052  -1.784  -0.486  0.00  0.00    +0.020 A 
ATOM     15  C   UNL     1      13.354  -1.340  -0.627  0.00  0.00    +0.042 A 
ATOM     16  C   UNL     1      13.696  -0.061  -0.224  0.00  0.00    +0.040 A 
ATOM     17  C   UNL     1      12.734   0.774   0.315  0.00  0.00    +0.049 A 
ATOM     18 CL   UNL     1      13.161   2.381   0.815  0.00  0.00    -0.083 Cl
ATOM     19 CL   UNL     1      14.560  -2.387  -1.308  0.00  0.00    -0.083 Cl
ENDBRANCH   6  12
BRANCH   1  21
ATOM     20  C   UNL     1       3.617   1.347   0.334  0.00  0.00    +0.126 C 
ATOM     21  N   UNL     1       4.600   0.478   0.324  0.00  0.00    -0.254 NA
BRANCH  20  24
ATOM     22  C   UNL     1      -0.055   0.926   0.597  0.00  0.00    +0.008 A 
ATOM     23  C   UNL     1       1.106   1.649   0.479  0.00  0.00    +0.017 A 
ATOM     24  C   UNL     1       2.281   0.902   0.448  0.00  0.00    +0.030 A 
ATOM     25  S   UNL     1       1.659  -0.763   0.589  0.00  0.00    -0.096 S 
ATOM     26  C   UNL     1       0.015  -0.427   0.675  0.00  0.00    +0.046 A 
ENDBRANCH  20  24
ENDBRANCH   1  21
TORSDOF 3
