REMARK  Name = ZINC58479547
REMARK  3 active torsions:
REMARK  status: ('A' for Active; 'I' for Inactive)
REMARK    1  A    between atoms: C_3  and  N_11
REMARK    2  A    between atoms: C_4  and  C_8
REMARK    3  A    between atoms: C_6  and  N_7
REMARK                            x       y       z     vdW  Elec       q    Type
REMARK                         _______ _______ _______ _____ _____    ______ ____
ROOT
ATOM      1  C   UNL     1       1.396  -0.655  -0.003  0.00  0.00    +0.024 A 
ATOM      2  C   UNL     1       2.480   0.198   0.023  0.00  0.00    +0.026 A 
ATOM      3  C   UNL     1       2.285   1.573   0.022  0.00  0.00    +0.042 A 
ATOM      4  C   UNL     1       0.982   2.092  -0.006  0.00  0.00    +0.059 A 
ATOM      5  C   UNL     1      -0.110   1.221  -0.032  0.00  0.00    +0.037 A 
ATOM      6  C   UNL     1       0.101  -0.147  -0.030  0.00  0.00    +0.025 A 
ENDROOT
BRANCH   3   7
ATOM      7  N   UNL     1       3.379   2.433   0.049  0.00  0.00    -0.326 N 
ATOM      8  C   UNL     1       4.052   2.838  -1.195  0.00  0.00    +0.105 C 
ATOM      9  C   UNL     1       5.550   2.545  -1.073  0.00  0.00    +0.019 C 
ATOM     10  C   UNL     1       6.104   3.205   0.193  0.00  0.00    +0.007 C 
ATOM     11  C   UNL     1       5.385   2.632   1.413  0.00  0.00    +0.009 C 
ATOM     12  C   UNL     1       3.888   2.965   1.317  0.00  0.00    +0.077 C 
ATOM     13  C   UNL     1       3.156   2.330   2.498  0.00  0.00    +0.023 C 
ATOM     14  C   UNL     1       3.710   2.914   3.801  0.00  0.00    +0.002 C 
ATOM     15  C   UNL     1       5.208   2.627   3.904  0.00  0.00    +0.000 C 
ATOM     16  C   UNL     1       5.941   3.238   2.701  0.00  0.00    +0.005 C 
ENDBRANCH   3   7
BRANCH   4  17
ATOM     17  C   UNL     1       0.765   3.551  -0.007  0.00  0.00    +0.243 C 
ATOM     18  O   UNL     1       1.715   4.306  -0.090  0.00  0.00    -0.270 OA
ATOM     19  N   UNL     1      -0.485   4.047   0.083  0.00  0.00    -0.325 N 
ATOM     20  H   UNL     1      -1.242   3.444   0.149  0.00  0.00    +0.145 HD
ATOM     21  H   UNL     1      -0.627   5.006   0.082  0.00  0.00    +0.145 HD
ENDBRANCH   4  17
BRANCH   6  22
ATOM     22  N   UNL     1      -0.992  -1.022  -0.057  0.00  0.00    -0.358 N 
ATOM     23  H   UNL     1      -0.846  -1.981  -0.056  0.00  0.00    +0.142 HD
ATOM     24  H   UNL     1      -1.895  -0.669  -0.076  0.00  0.00    +0.142 HD
ENDBRANCH   6  22
TORSDOF 3
