REMARK  Name = ZINC07052293
REMARK  6 active torsions:
REMARK  status: ('A' for Active; 'I' for Inactive)
REMARK    1  A    between atoms: C_3  and  S_11
REMARK    2  A    between atoms: C_6  and  C_7
REMARK    3  A    between atoms: S_11  and  N_14
REMARK    4  A    between atoms: N_14  and  C_15
REMARK    5  A    between atoms: C_18  and  S_21
REMARK    6  A    between atoms: S_21  and  N_24
REMARK                            x       y       z     vdW  Elec       q    Type
REMARK                         _______ _______ _______ _____ _____    ______ ____
ROOT
ATOM      1  N   UNL     1      -0.031   0.030  -0.278  0.00  0.00    -0.216 N 
ATOM      2  H   UNL     1      -0.447  -0.318  -1.082  0.00  0.00    +0.174 HD
ENDROOT
BRANCH   1   3
ATOM      3  C   UNL     1       0.646  -0.832   0.588  0.00  0.00    +0.048 A 
ATOM      4  C   UNL     1       1.901  -1.319   0.244  0.00  0.00    +0.026 A 
ATOM      5  C   UNL     1       2.570  -2.168   1.104  0.00  0.00    +0.030 A 
ATOM      6  C   UNL     1       1.988  -2.541   2.301  0.00  0.00    +0.105 A 
ATOM      7  C   UNL     1       0.737  -2.062   2.645  0.00  0.00    +0.030 A 
ATOM      8  C   UNL     1       0.065  -1.209   1.792  0.00  0.00    +0.026 A 
BRANCH   6   9
ATOM      9  S   UNL     1       2.843  -3.628   3.393  0.00  0.00    +0.056 S 
ATOM     10  O   UNL     1       4.226  -3.501   3.092  0.00  0.00    -0.153 OA
ATOM     11  O   UNL     1       2.322  -3.391   4.693  0.00  0.00    -0.153 OA
BRANCH   9  12
ATOM     12  N   UNL     1       2.409  -5.173   2.984  0.00  0.00    -0.204 NA
ATOM     13  H   UNL     1       1.788  -5.325   2.255  0.00  0.00    +0.144 HD
ATOM     14  H   UNL     1       2.777  -5.926   3.473  0.00  0.00    +0.144 HD
ENDBRANCH   9  12
ENDBRANCH   6   9
ENDBRANCH   1   3
BRANCH   1  15
ATOM     15  S   UNL     1      -0.125   1.646   0.070  0.00  0.00    +0.072 S 
ATOM     16  O   UNL     1      -0.818   2.254  -1.012  0.00  0.00    -0.150 OA
ATOM     17  O   UNL     1      -0.572   1.748   1.414  0.00  0.00    -0.150 OA
BRANCH  15  20
ATOM     18  C   UNL     1       3.372   3.175  -1.190  0.00  0.00    +0.014 A 
ATOM     19  C   UNL     1       2.083   2.676  -1.163  0.00  0.00    +0.029 A 
ATOM     20  C   UNL     1       1.518   2.282   0.036  0.00  0.00    +0.109 A 
ATOM     21  C   UNL     1       2.241   2.393   1.209  0.00  0.00    +0.029 A 
ATOM     22  C   UNL     1       3.532   2.887   1.182  0.00  0.00    +0.014 A 
ATOM     23  C   UNL     1       4.096   3.281  -0.017  0.00  0.00    +0.055 A 
BRANCH  23  24
ATOM     24  C   UNL     1       5.501   3.824  -0.046  0.00  0.00    +0.417 C 
ATOM     25  F   UNL     1       5.468   5.213   0.124  0.00  0.00    -0.166 F 
ATOM     26  F   UNL     1       6.246   3.246   0.987  0.00  0.00    -0.166 F 
ATOM     27  F   UNL     1       6.094   3.520  -1.276  0.00  0.00    -0.166 F 
ENDBRANCH  23  24
ENDBRANCH  15  20
ENDBRANCH   1  15
TORSDOF 6
