REMARK  Name = ZINC00719867
REMARK  5 active torsions:
REMARK  status: ('A' for Active; 'I' for Inactive)
REMARK    1  A    between atoms: C_4  and  N_7
REMARK    2  A    between atoms: C_9  and  C_24
REMARK    3  A    between atoms: C_13  and  C_15
REMARK    4  A    between atoms: C_15  and  O_16
REMARK    5  A    between atoms: O_16  and  C_17
REMARK                            x       y       z     vdW  Elec       q    Type
REMARK                         _______ _______ _______ _____ _____    ______ ____
ROOT
ATOM      1  N   UNL     1       2.188   9.820   0.032  0.00  0.00    -0.148 N 
ATOM      2  N   UNL     1       3.463   9.991   0.020  0.00  0.00    -0.140 NA
ATOM      3  C   UNL     1       4.067   8.816   0.015  0.00  0.00    +0.189 A 
ATOM      4  C   UNL     1       3.068   7.817   0.013  0.00  0.00    +0.180 A 
ATOM      5  N   UNL     1       1.911   8.447   0.028  0.00  0.00    -0.131 NA
ATOM      6  N   UNL     1       3.268   6.435   0.004  0.00  0.00    -0.264 N 
ATOM      7  C   UNL     1       2.209   5.601   0.010  0.00  0.00    +0.256 C 
ATOM      8  O   UNL     1       1.083   6.051   0.023  0.00  0.00    -0.272 OA
ATOM      9  H   UNL     1       4.169   6.075  -0.006  0.00  0.00    +0.156 HD
ENDROOT
BRANCH   1  13
ATOM     10  C   UNL     1      -0.661  12.862   0.073  0.00  0.00    +0.000 A 
ATOM     11  C   UNL     1       0.686  13.178   0.062  0.00  0.00    +0.002 A 
ATOM     12  C   UNL     1       1.632  12.172   0.049  0.00  0.00    +0.029 A 
ATOM     13  C   UNL     1       1.230  10.843   0.046  0.00  0.00    +0.086 A 
ATOM     14  C   UNL     1      -0.122  10.529   0.051  0.00  0.00    +0.029 A 
ATOM     15  C   UNL     1      -1.064  11.539   0.070  0.00  0.00    +0.002 A 
ENDBRANCH   1  13
BRANCH   3  16
ATOM     16  C   UNL     1       5.524   8.587   0.008  0.00  0.00    +0.265 C 
ATOM     17  O   UNL     1       5.962   7.453   0.000  0.00  0.00    -0.269 OA
ATOM     18  N   UNL     1       6.371   9.636   0.010  0.00  0.00    -0.324 N 
ATOM     19  H   UNL     1       6.022  10.541   0.016  0.00  0.00    +0.145 HD
ATOM     20  H   UNL     1       7.329   9.486   0.005  0.00  0.00    +0.145 HD
ENDBRANCH   3  16
BRANCH   7  21
ATOM     21  C   UNL     1       2.425   4.109   0.001  0.00  0.00    +0.324 C 
BRANCH  21  22
ATOM     22  O   UNL     1       1.159   3.445   0.009  0.00  0.00    -0.483 OA
BRANCH  22  23
ATOM     23  C   UNL     1       1.176   2.086   0.002  0.00  0.00    +0.121 A 
ATOM     24  C   UNL     1      -0.017   1.377   0.010  0.00  0.00    +0.047 A 
ATOM     25  C   UNL     1       0.002  -0.004   0.002  0.00  0.00    +0.023 A 
ATOM     26  C   UNL     1       1.209  -0.680  -0.013  0.00  0.00    +0.041 A 
ATOM     27  C   UNL     1       2.399   0.025  -0.020  0.00  0.00    +0.023 A 
ATOM     28  C   UNL     1       2.385   1.406  -0.012  0.00  0.00    +0.047 A 
ATOM     29 CL   UNL     1       1.230  -2.416  -0.023  0.00  0.00    -0.084 Cl
ENDBRANCH  22  23
ENDBRANCH  21  22
ENDBRANCH   7  21
TORSDOF 5
