REMARK  Name = ZINC60845296
REMARK  7 active torsions:
REMARK  status: ('A' for Active; 'I' for Inactive)
REMARK    1  A    between atoms: C_4  and  N_7
REMARK    2  A    between atoms: C_11  and  C_13
REMARK    3  A    between atoms: C_13  and  C_14
REMARK    4  A    between atoms: C_14  and  N_15
REMARK    5  A    between atoms: N_24  and  C_25
REMARK    6  A    between atoms: C_25  and  C_26
REMARK    7  A    between atoms: C_26  and  O_27
REMARK                            x       y       z     vdW  Elec       q    Type
REMARK                         _______ _______ _______ _____ _____    ______ ____
ROOT
ATOM      1  C   UNL     1       5.909  -6.220   0.429  0.00  0.00    +0.134 C 
ENDROOT
BRANCH   1   2
ATOM      2  N   UNL     1       7.190  -6.926   0.522  0.00  0.00    -0.313 N 
ATOM      3  C   UNL     1       7.949  -7.394  -0.538  0.00  0.00    +0.068 A 
ATOM      4  C   UNL     1       7.794  -7.371  -1.915  0.00  0.00    +0.028 A 
ATOM      5  C   UNL     1       8.756  -7.941  -2.724  0.00  0.00    +0.002 A 
ATOM      6  C   UNL     1       9.877  -8.538  -2.168  0.00  0.00    +0.002 A 
ATOM      7  C   UNL     1      10.047  -8.571  -0.802  0.00  0.00    +0.028 A 
ATOM      8  C   UNL     1       9.083  -7.998   0.031  0.00  0.00    +0.065 A 
ATOM      9  N   UNL     1       8.968  -7.874   1.379  0.00  0.00    -0.327 N 
ATOM     10  C   UNL     1       7.860  -7.240   1.670  0.00  0.00    +0.174 A 
ATOM     11  N   UNL     1       7.432  -6.936   2.945  0.00  0.00    -0.314 N 
ATOM     12  H   UNL     1       6.594  -6.465   3.076  0.00  0.00    +0.149 HD
ATOM     13  H   UNL     1       9.611  -8.202   2.027  0.00  0.00    +0.169 HD
BRANCH  11  14
ATOM     14  C   UNL     1       8.241  -7.327   4.102  0.00  0.00    +0.132 C 
BRANCH  14  15
ATOM     15  C   UNL     1       7.546  -6.875   5.388  0.00  0.00    +0.174 C 
BRANCH  15  16
ATOM     16  O   UNL     1       6.311  -7.580   5.535  0.00  0.00    -0.393 OA
ATOM     17  H   UNL     1       5.816  -7.343   6.330  0.00  0.00    +0.209 HD
ENDBRANCH  15  16
ENDBRANCH  14  15
ENDBRANCH  11  14
ENDBRANCH   1   2
BRANCH   1  18
ATOM     18  C   UNL     1       6.163  -4.715   0.333  0.00  0.00    +0.118 C 
BRANCH  18  23
ATOM     19  N   UNL     1       3.622  -0.651  -0.037  0.00  0.00    -0.269 N 
ATOM     20  C   UNL     1       3.645  -1.995   0.057  0.00  0.00    +0.310 C 
ATOM     21  O   UNL     1       2.603  -2.622   0.064  0.00  0.00    -0.252 OA
ATOM     22  N   UNL     1       4.823  -2.644   0.143  0.00  0.00    -0.240 N 
ATOM     23  C   UNL     1       4.846  -3.989   0.237  0.00  0.00    +0.222 C 
ATOM     24  O   UNL     1       3.807  -4.614   0.244  0.00  0.00    -0.275 OA
ATOM     25  H   UNL     1       4.452  -0.156  -0.121  0.00  0.00    +0.156 HD
ATOM     26  H   UNL     1       5.654  -2.144   0.137  0.00  0.00    +0.159 HD
BRANCH  19  30
ATOM     27  C   UNL     1      -0.015   1.381   0.032  0.00  0.00    +0.000 A 
ATOM     28  C   UNL     1       0.140   0.218   0.765  0.00  0.00    +0.002 A 
ATOM     29  C   UNL     1       1.344  -0.457   0.744  0.00  0.00    +0.023 A 
ATOM     30  C   UNL     1       2.400   0.031  -0.015  0.00  0.00    +0.035 A 
ATOM     31  C   UNL     1       2.241   1.198  -0.750  0.00  0.00    +0.023 A 
ATOM     32  C   UNL     1       1.034   1.870  -0.725  0.00  0.00    +0.002 A 
ENDBRANCH  19  30
ENDBRANCH  18  23
ENDBRANCH   1  18
TORSDOF 7
