REMARK  Name = ZINC66968353
REMARK  8 active torsions:
REMARK  status: ('A' for Active; 'I' for Inactive)
REMARK    1  A    between atoms: C_1  and  C_2
REMARK    2  A    between atoms: C_2  and  C_3
REMARK    3  A    between atoms: C_3  and  N_4
REMARK    4  A    between atoms: C_10  and  N_13
REMARK    5  A    between atoms: N_13  and  C_14
REMARK    6  A    between atoms: C_14  and  C_16
REMARK    7  A    between atoms: C_14  and  C_17
REMARK    8  A    between atoms: N_19  and  C_20
REMARK                            x       y       z     vdW  Elec       q    Type
REMARK                         _______ _______ _______ _____ _____    ______ ____
ROOT
ATOM      1  N   UNL     1       4.878  -4.604  -6.225  0.00  0.00    -0.333 N 
ATOM      2  H   UNL     1       5.163  -4.374  -7.123  0.00  0.00    +0.147 HD
ENDROOT
BRANCH   1   9
ATOM      3  N   UNL     1       7.268  -0.849  -6.220  0.00  0.00    +0.385 N 
ATOM      4  C   UNL     1       7.556  -0.960  -4.772  0.00  0.00    -0.042 C 
ATOM      5  C   UNL     1       6.642  -2.049  -4.256  0.00  0.00    -0.061 A 
ATOM      6  C   UNL     1       6.233  -2.378  -2.977  0.00  0.00    +0.002 A 
ATOM      7  C   UNL     1       5.376  -3.444  -2.774  0.00  0.00    +0.002 A 
ATOM      8  C   UNL     1       4.924  -4.184  -3.849  0.00  0.00    +0.023 A 
ATOM      9  C   UNL     1       5.332  -3.857  -5.135  0.00  0.00    +0.029 A 
ATOM     10  C   UNL     1       6.193  -2.786  -5.337  0.00  0.00    -0.042 A 
ATOM     11  C   UNL     1       6.799  -2.203  -6.593  0.00  0.00    -0.040 C 
ATOM     12  H   UNL     1       6.545  -0.166  -6.388  0.00  0.00    -0.081 HD
BRANCH   3  13
ATOM     13  C   UNL     1       8.487  -0.503  -6.963  0.00  0.00    -0.078 C 
BRANCH  13  15
ATOM     14  C   UNL     1      10.149   1.304  -7.427  0.00  0.00    +0.002 C 
ATOM     15  C   UNL     1       8.879   0.943  -6.653  0.00  0.00    -0.022 C 
ENDBRANCH  13  15
ENDBRANCH   3  13
ENDBRANCH   1   9
BRANCH   1  16
ATOM     16  C   UNL     1       3.969  -5.733  -6.011  0.00  0.00    +0.154 C 
ATOM     17  C   UNL     1       4.783  -6.986  -5.679  0.00  0.00    +0.038 C 
BRANCH  16  18
ATOM     18  C   UNL     1       3.164  -5.974  -7.261  0.00  0.00    +0.237 C 
ATOM     19  O   UNL     1       3.332  -5.271  -8.236  0.00  0.00    -0.273 OA
ATOM     20  N   UNL     1       2.257  -6.970  -7.297  0.00  0.00    -0.279 N 
ATOM     21  H   UNL     1       2.175  -7.578  -6.546  0.00  0.00    +0.155 HD
BRANCH  20  22
ATOM     22  C   UNL     1       1.432  -7.127  -8.420  0.00  0.00    +0.105 A 
ATOM     23  C   UNL     1       1.815  -7.973  -9.453  0.00  0.00    +0.147 A 
ATOM     24  C   UNL     1       0.999  -8.126 -10.559  0.00  0.00    +0.040 A 
ATOM     25  C   UNL     1      -0.197  -7.436 -10.638  0.00  0.00    +0.006 A 
ATOM     26  C   UNL     1      -0.582  -6.593  -9.612  0.00  0.00    +0.040 A 
ATOM     27  C   UNL     1       0.226  -6.440  -8.500  0.00  0.00    +0.147 A 
ATOM     28  F   UNL     1      -0.153  -5.620  -7.495  0.00  0.00    -0.203 F 
ATOM     29  F   UNL     1       2.984  -8.647  -9.377  0.00  0.00    -0.203 F 
ENDBRANCH  20  22
ENDBRANCH  16  18
ENDBRANCH   1  16
TORSDOF 6
