REMARK  Name = ZINC40680608
REMARK  7 active torsions:
REMARK  status: ('A' for Active; 'I' for Inactive)
REMARK    1  A    between atoms: C_1  and  C_2
REMARK    2  A    between atoms: C_2  and  C_3
REMARK    3  A    between atoms: C_2  and  C_4
REMARK    4  A    between atoms: C_2  and  N_5
REMARK    5  A    between atoms: C_7  and  N_21
REMARK    6  A    between atoms: C_8  and  N_12
REMARK    7  A    between atoms: N_12  and  C_13
REMARK                            x       y       z     vdW  Elec       q    Type
REMARK                         _______ _______ _______ _____ _____    ______ ____
ROOT
ATOM      1  N   UNL     1       1.057  -1.268  -0.792  0.00  0.00    -0.323 N 
ATOM      2  C   UNL     1       2.284  -0.708  -1.128  0.00  0.00    +0.145 A 
ATOM      3  C   UNL     1       2.859  -0.957  -2.376  0.00  0.00    +0.105 A 
ATOM      4  C   UNL     1       4.092  -0.370  -2.663  0.00  0.00    +0.149 A 
ATOM      5  N   UNL     1       4.669   0.400  -1.742  0.00  0.00    -0.219 NA
ATOM      6  C   UNL     1       4.093   0.609  -0.577  0.00  0.00    +0.225 A 
ATOM      7  N   UNL     1       2.927   0.078  -0.268  0.00  0.00    -0.219 NA
ATOM      8  H   UNL     1       0.595  -1.839  -1.425  0.00  0.00    +0.148 HD
ENDROOT
BRANCH   1  10
ATOM      9  C   UNL     1       0.236   0.511   0.671  0.00  0.00    +0.031 C 
ATOM     10  C   UNL     1       0.462  -0.994   0.518  0.00  0.00    +0.025 C 
ATOM     11  C   UNL     1       1.405  -1.483   1.619  0.00  0.00    +0.031 C 
ATOM     12  C   UNL     1      -0.878  -1.725   0.632  0.00  0.00    +0.031 C 
ENDBRANCH   1  10
BRANCH   3  13
ATOM     13  N   UNL     1       2.214  -1.776  -3.317  0.00  0.00    -0.353 N 
ATOM     14  H   UNL     1       1.357  -2.178  -3.104  0.00  0.00    +0.143 HD
ATOM     15  H   UNL     1       2.625  -1.940  -4.180  0.00  0.00    +0.143 HD
ENDBRANCH   3  13
BRANCH   4  16
ATOM     16  N   UNL     1       4.708  -0.585  -3.890  0.00  0.00    -0.297 N 
ATOM     17  H   UNL     1       4.240  -1.066  -4.590  0.00  0.00    +0.154 HD
BRANCH  16  18
ATOM     18  C   UNL     1       6.004  -0.108  -4.116  0.00  0.00    +0.051 A 
ATOM     19  C   UNL     1       6.855   0.127  -3.044  0.00  0.00    +0.026 A 
ATOM     20  C   UNL     1       8.133   0.599  -3.270  0.00  0.00    +0.022 A 
ATOM     21  C   UNL     1       8.567   0.837  -4.562  0.00  0.00    +0.042 A 
ATOM     22  C   UNL     1       7.722   0.604  -5.633  0.00  0.00    +0.041 A 
ATOM     23  C   UNL     1       6.443   0.126  -5.413  0.00  0.00    +0.063 A 
ATOM     24 CL   UNL     1       5.386  -0.173  -6.757  0.00  0.00    -0.082 Cl
ATOM     25 CL   UNL     1      10.175   1.429  -4.841  0.00  0.00    -0.083 Cl
ENDBRANCH  16  18
ENDBRANCH   4  16
TORSDOF 4
