REMARK  Name = ZINC58904518
REMARK  11 active torsions:
REMARK  status: ('A' for Active; 'I' for Inactive)
REMARK    1  A    between atoms: C_1  and  C_2
REMARK    2  A    between atoms: C_4  and  C_27
REMARK    3  A    between atoms: N_6  and  C_8
REMARK    4  A    between atoms: C_8  and  C_9
REMARK    5  A    between atoms: C_12  and  C_15
REMARK    6  A    between atoms: C_15  and  N_16
REMARK    7  A    between atoms: C_17  and  C_19
REMARK    8  A    between atoms: C_19  and  C_20
REMARK    9  A    between atoms: C_19  and  N_23
REMARK   10  A    between atoms: C_20  and  C_21
REMARK   11  A    between atoms: C_20  and  C_22
REMARK                            x       y       z     vdW  Elec       q    Type
REMARK                         _______ _______ _______ _____ _____    ______ ____
ROOT
ATOM      1  C   UNL     1       2.382   0.538   3.630  0.00  0.00    -0.064 A 
ATOM      2  C   UNL     1       2.753   1.774   4.125  0.00  0.00    +0.002 A 
ATOM      3  C   UNL     1       2.093   2.307   5.216  0.00  0.00    +0.005 A 
ATOM      4  C   UNL     1       1.062   1.605   5.812  0.00  0.00    -0.030 A 
ATOM      5  C   UNL     1       0.691   0.369   5.316  0.00  0.00    +0.005 A 
ATOM      6  C   UNL     1       1.348  -0.163   4.222  0.00  0.00    +0.002 A 
ENDROOT
BRANCH   1   7
ATOM      7  C   UNL     1       3.102  -0.044   2.440  0.00  0.00    -0.043 C 
BRANCH   7  13
ATOM      8  C   UNL     1       0.260   1.857  -0.034  0.00  0.00    +0.005 C 
ATOM      9  C   UNL     1       0.346   0.330  -0.080  0.00  0.00    -0.031 C 
ATOM     10  C   UNL     1       1.118  -0.101  -1.331  0.00  0.00    +0.003 C 
ATOM     11  C   UNL     1       2.551   0.431  -1.242  0.00  0.00    -0.031 C 
ATOM     12  C   UNL     1       3.201  -0.082   0.045  0.00  0.00    -0.075 C 
ATOM     13  N   UNL     1       2.432   0.385   1.205  0.00  0.00    +0.383 N 
ATOM     14  C   UNL     1       1.077  -0.179   1.164  0.00  0.00    -0.075 C 
ATOM     15  C   UNL     1       3.354  -0.059  -2.449  0.00  0.00    +0.005 C 
ATOM     16  H   UNL     1       2.376   1.392   1.187  0.00  0.00    -0.081 HD
ENDBRANCH   7  13
ENDBRANCH   1   7
BRANCH   4  17
ATOM     17  C   UNL     1       0.344   2.185   7.002  0.00  0.00    +0.139 C 
BRANCH  17  18
ATOM     18  N   UNL     1      -0.795   2.985   6.543  0.00  0.00    -0.310 N 
ATOM     19  C   UNL     1      -1.588   3.605   7.439  0.00  0.00    +0.234 C 
ATOM     20  O   UNL     1      -1.417   3.427   8.626  0.00  0.00    -0.274 OA
ATOM     21  H   UNL     1      -0.977   3.069   5.594  0.00  0.00    +0.149 HD
BRANCH  19  22
ATOM     22  C   UNL     1      -2.688   4.520   6.965  0.00  0.00    +0.163 C 
BRANCH  22  23
ATOM     23  N   UNL     1      -2.934   5.551   7.976  0.00  0.00    -0.288 N 
ATOM     24  C   UNL     1      -3.469   6.735   7.615  0.00  0.00    +0.298 C 
ATOM     25  O   UNL     1      -3.747   6.946   6.450  0.00  0.00    -0.253 OA
ATOM     26  N   UNL     1      -3.696   7.684   8.544  0.00  0.00    -0.313 N 
ATOM     27  H   UNL     1      -2.712   5.383   8.905  0.00  0.00    +0.151 HD
ATOM     28  H   UNL     1      -3.474   7.515   9.473  0.00  0.00    +0.146 HD
ATOM     29  H   UNL     1      -4.080   8.535   8.284  0.00  0.00    +0.146 HD
ENDBRANCH  22  23
BRANCH  22  30
ATOM     30  C   UNL     1      -3.966   3.708   6.744  0.00  0.00    +0.012 C 
ATOM     31  C   UNL     1      -5.055   4.617   6.170  0.00  0.00    +0.009 C 
ATOM     32  C   UNL     1      -3.683   2.570   5.761  0.00  0.00    +0.009 C 
ENDBRANCH  22  30
ENDBRANCH  19  22
ENDBRANCH  17  18
ENDBRANCH   4  17
TORSDOF 7
