REMARK  Name = ZINC43592798
REMARK  7 active torsions:
REMARK  status: ('A' for Active; 'I' for Inactive)
REMARK    1  A    between atoms: C_1  and  N_2
REMARK    2  A    between atoms: N_2  and  C_3
REMARK    3  A    between atoms: N_2  and  S_11
REMARK    4  A    between atoms: C_3  and  C_4
REMARK    5  A    between atoms: C_9  and  O_10
REMARK    6  A    between atoms: S_11  and  C_14
REMARK    7  A    between atoms: C_17  and  N_21
REMARK                            x       y       z     vdW  Elec       q    Type
REMARK                         _______ _______ _______ _____ _____    ______ ____
ROOT
ATOM      1  S   UNL     1      -0.150  -0.770  -1.448  0.00  0.00    +0.064 S 
ATOM      2  O   UNL     1      -0.863  -1.973  -1.196  0.00  0.00    -0.153 OA
ATOM      3  O   UNL     1      -0.598   0.199  -2.386  0.00  0.00    -0.153 OA
ENDROOT
BRANCH   1   4
ATOM      4  C   UNL     1       1.473  -1.240  -1.946  0.00  0.00    +0.141 A 
ATOM      5  C   UNL     1       1.802  -2.579  -2.048  0.00  0.00    +0.033 A 
ATOM      6  C   UNL     1       3.074  -2.952  -2.439  0.00  0.00    +0.025 A 
ATOM      7  C   UNL     1       4.024  -1.981  -2.728  0.00  0.00    +0.027 A 
ATOM      8  C   UNL     1       3.692  -0.636  -2.625  0.00  0.00    +0.063 A 
ATOM      9  C   UNL     1       2.416  -0.269  -2.239  0.00  0.00    +0.151 A 
ATOM     10  F   UNL     1       2.090   1.039  -2.142  0.00  0.00    -0.203 F 
BRANCH   7  11
ATOM     11  N   UNL     1       5.310  -2.356  -3.123  0.00  0.00    -0.358 N 
ATOM     12  H   UNL     1       5.541  -3.295  -3.195  0.00  0.00    +0.142 HD
ATOM     13  H   UNL     1       5.973  -1.677  -3.325  0.00  0.00    +0.142 HD
ENDBRANCH   7  11
ENDBRANCH   1   4
BRANCH   1  15
ATOM     14  C   UNL     1       0.066   1.472   0.049  0.00  0.00    +0.132 C 
ATOM     15  N   UNL     1      -0.009   0.010   0.007  0.00  0.00    -0.175 NA
BRANCH  15  16
ATOM     16  C   UNL     1       0.040  -0.763   1.250  0.00  0.00    +0.147 C 
BRANCH  16  17
ATOM     17  C   UNL     1      -1.340  -0.835   1.852  0.00  0.00    +0.010 A 
ATOM     18  C   UNL     1      -2.421  -0.318   1.165  0.00  0.00    +0.008 A 
ATOM     19  C   UNL     1      -3.687  -0.384   1.717  0.00  0.00    +0.001 A 
ATOM     20  C   UNL     1      -3.874  -0.967   2.957  0.00  0.00    +0.004 A 
ATOM     21  C   UNL     1      -2.796  -1.485   3.647  0.00  0.00    +0.046 A 
ATOM     22  C   UNL     1      -1.525  -1.425   3.093  0.00  0.00    +0.121 A 
BRANCH  22  23
ATOM     23  O   UNL     1      -0.464  -1.940   3.768  0.00  0.00    -0.506 OA
ATOM     24  H   UNL     1      -0.027  -1.307   4.355  0.00  0.00    +0.292 HD
ENDBRANCH  22  23
ENDBRANCH  16  17
ENDBRANCH  15  16
ENDBRANCH   1  15
TORSDOF 6
