REMARK  Name = ZINC12949165
REMARK  10 active torsions:
REMARK  status: ('A' for Active; 'I' for Inactive)
REMARK    1  A    between atoms: C_1  and  C_2
REMARK    2  A    between atoms: C_8  and  C_10
REMARK    3  A    between atoms: C_12  and  C_27
REMARK    4  A    between atoms: N_17  and  C_21
REMARK    5  A    between atoms: C_18  and  C_19
REMARK    6  A    between atoms: C_18  and  O_20
REMARK    7  A    between atoms: C_21  and  C_23
REMARK    8  A    between atoms: C_21  and  C_24
REMARK    9  A    between atoms: C_24  and  O_25
REMARK   10  A    between atoms: O_25  and  C_26
REMARK                            x       y       z     vdW  Elec       q    Type
REMARK                         _______ _______ _______ _____ _____    ______ ____
ROOT
ATOM      1  C   UNL     1      -0.182   3.954   4.250  0.00  0.00    +0.150 C 
ATOM      2  C   UNL     1      -0.266   5.182   3.338  0.00  0.00    +0.121 C 
ATOM      3  N   UNL     1      -1.062   4.849   2.155  0.00  0.00    -0.319 N 
ATOM      4  C   UNL     1      -1.108   3.598   1.675  0.00  0.00    +0.136 C 
ATOM      5  S   UNL     1      -2.043   3.288   0.275  0.00  0.00    -0.019 S 
ATOM      6  N   UNL     1      -0.453   2.578   2.250  0.00  0.00    -0.279 N 
ATOM      7  C   UNL     1       0.378   2.781   3.438  0.00  0.00    +0.145 C 
ATOM      8  C   UNL     1       1.813   3.095   3.010  0.00  0.00    +0.064 C 
ATOM      9  H   UNL     1      -1.565   5.548   1.709  0.00  0.00    +0.148 HD
ENDROOT
BRANCH   1  17
ATOM     10  C   UNL     1      -6.526   2.154   6.529  0.00  0.00    +0.089 C 
ATOM     11  C   UNL     1      -5.389   3.137   6.424  0.00  0.00    +0.136 A 
ATOM     12  C   UNL     1      -4.223   2.956   5.764  0.00  0.00    +0.091 A 
ATOM     13  C   UNL     1      -3.515   4.169   5.980  0.00  0.00    +0.168 A 
ATOM     14  N   UNL     1      -4.297   4.923   6.708  0.00  0.00    -0.063 NA
ATOM     15  O   UNL     1      -5.339   4.365   6.962  0.00  0.00    -0.358 OA
ATOM     16  N   UNL     1      -2.244   4.492   5.506  0.00  0.00    -0.267 N 
ATOM     17  C   UNL     1      -1.556   3.604   4.762  0.00  0.00    +0.228 C 
ATOM     18  O   UNL     1      -2.042   2.523   4.505  0.00  0.00    -0.275 OA
ATOM     19  H   UNL     1      -1.855   5.357   5.712  0.00  0.00    +0.156 HD
ENDBRANCH   1  17
BRANCH   2  20
ATOM     20  C   UNL     1       1.121   5.590   2.914  0.00  0.00    +0.009 A 
ATOM     21  C   UNL     1       1.537   5.377   1.613  0.00  0.00    +0.008 A 
ATOM     22  C   UNL     1       2.808   5.757   1.222  0.00  0.00    +0.000 A 
ATOM     23  C   UNL     1       3.668   6.340   2.135  0.00  0.00    +0.003 A 
ATOM     24  C   UNL     1       3.256   6.549   3.437  0.00  0.00    +0.039 A 
ATOM     25  C   UNL     1       1.981   6.174   3.828  0.00  0.00    +0.128 A 
ATOM     26  F   UNL     1       1.577   6.378   5.101  0.00  0.00    -0.205 F 
ENDBRANCH   2  20
BRANCH   7  27
ATOM     27  O   UNL     1       0.366   1.596   4.237  0.00  0.00    -0.371 OA
ATOM     28  H   UNL     1       0.704   0.812   3.783  0.00  0.00    +0.212 HD
ENDBRANCH   7  27
BRANCH   6  29
ATOM     29  C   UNL     1      -0.567   1.236   1.675  0.00  0.00    +0.100 C 
ATOM     30  C   UNL     1      -2.039   0.922   1.402  0.00  0.00    +0.030 C 
BRANCH  29  31
ATOM     31  C   UNL     1       0.219   1.175   0.363  0.00  0.00    +0.181 C 
BRANCH  31  32
ATOM     32  O   UNL     1      -0.352   2.086  -0.577  0.00  0.00    -0.381 OA
ATOM     33  C   UNL     1       0.311   2.107  -1.843  0.00  0.00    +0.194 C 
ENDBRANCH  31  32
ENDBRANCH  29  31
ENDBRANCH   6  29
TORSDOF 6
