REMARK  Name = ZINC23866719
REMARK  4 active torsions:
REMARK  status: ('A' for Active; 'I' for Inactive)
REMARK    1  A    between atoms: C_6  and  S_7
REMARK    2  A    between atoms: S_7  and  N_10
REMARK    3  A    between atoms: C_19  and  S_22
REMARK    4  A    between atoms: S_22  and  N_25
REMARK                            x       y       z     vdW  Elec       q    Type
REMARK                         _______ _______ _______ _____ _____    ______ ____
ROOT
ATOM      1  N   UNL     1       0.002  -0.004   0.002  0.00  0.00    -0.174 NA
ATOM      2  C   UNL     1       1.174  -0.746   0.492  0.00  0.00    +0.128 C 
ATOM      3  C   UNL     1       0.692  -1.790   1.512  0.00  0.00    +0.123 C 
ATOM      4  N   UNL     1      -0.355  -2.618   0.899  0.00  0.00    -0.313 N 
ATOM      5  C   UNL     1      -1.535  -1.815   0.552  0.00  0.00    +0.123 C 
ATOM      6  C   UNL     1      -1.147  -0.772  -0.502  0.00  0.00    +0.128 C 
ATOM      7  C   UNL     1      -0.702  -3.678   1.730  0.00  0.00    +0.121 A 
ATOM      8  C   UNL     1       0.281  -4.561   2.166  0.00  0.00    +0.045 A 
ATOM      9  C   UNL     1      -0.076  -5.608   2.996  0.00  0.00    +0.033 A 
ATOM     10  C   UNL     1      -1.411  -5.743   3.355  0.00  0.00    +0.123 A 
ATOM     11  C   UNL     1      -2.334  -4.834   2.880  0.00  0.00    +0.141 A 
ATOM     12  N   UNL     1      -1.964  -3.841   2.094  0.00  0.00    -0.238 NA
ENDROOT
BRANCH   1  13
ATOM     13  S   UNL     1      -0.020   1.652   0.011  0.00  0.00    +0.061 S 
ATOM     14  O   UNL     1       1.336   2.076   0.001  0.00  0.00    -0.153 OA
ATOM     15  O   UNL     1      -0.952   2.051  -0.985  0.00  0.00    -0.153 OA
BRANCH  13  21
ATOM     16  C   UNL     1      -2.056   2.346   1.694  0.00  0.00    +0.029 A 
ATOM     17  C   UNL     1      -2.576   2.738   2.911  0.00  0.00    +0.006 A 
ATOM     18  C   UNL     1      -1.740   2.953   3.999  0.00  0.00    -0.044 A 
ATOM     19  C   UNL     1      -0.383   2.764   3.865  0.00  0.00    -0.042 A 
ATOM     20  C   UNL     1       0.138   2.365   2.641  0.00  0.00    +0.032 A 
ATOM     21  C   UNL     1      -0.694   2.155   1.560  0.00  0.00    +0.106 A 
ATOM     22  C   UNL     1       0.581   2.968   5.004  0.00  0.00    +0.035 C 
ATOM     23  C   UNL     1      -0.065   3.798   6.112  0.00  0.00    +0.005 C 
ATOM     24  C   UNL     1      -1.417   3.166   6.463  0.00  0.00    +0.005 C 
ATOM     25  C   UNL     1      -2.373   3.393   5.294  0.00  0.00    +0.035 C 
ENDBRANCH  13  21
ENDBRANCH   1  13
BRANCH  10  26
ATOM     26  S   UNL     1      -1.921  -7.063   4.405  0.00  0.00    +0.057 S 
ATOM     27  O   UNL     1      -0.776  -7.454   5.150  0.00  0.00    -0.153 OA
ATOM     28  O   UNL     1      -3.128  -6.644   5.027  0.00  0.00    -0.153 OA
BRANCH  26  29
ATOM     29  N   UNL     1      -2.311  -8.343   3.429  0.00  0.00    -0.203 NA
ATOM     30  H   UNL     1      -2.635  -9.191   4.050  0.00  0.00    +0.144 HD
ATOM     31  H   UNL     1      -1.429  -8.636   2.840  0.00  0.00    +0.144 HD
ENDBRANCH  26  29
ENDBRANCH  10  26
TORSDOF 4
