REMARK  Name = ZINC61692026
REMARK  7 active torsions:
REMARK  status: ('A' for Active; 'I' for Inactive)
REMARK    1  A    between atoms: C_1  and  C_2
REMARK    2  A    between atoms: N_4  and  C_5
REMARK    3  A    between atoms: C_5  and  C_6
REMARK    4  A    between atoms: N_8  and  C_9
REMARK    5  A    between atoms: C_11  and  C_16
REMARK    6  A    between atoms: C_17  and  C_18
REMARK    7  A    between atoms: C_18  and  N_19
REMARK                            x       y       z     vdW  Elec       q    Type
REMARK                         _______ _______ _______ _____ _____    ______ ____
ROOT
ATOM      1  C   UNL     1      -4.068  -4.543   0.107  0.00  0.00    +0.053 A 
ATOM      2  C   UNL     1      -5.169  -3.701   0.111  0.00  0.00    +0.041 A 
ATOM      3  C   UNL     1      -6.452  -4.239   0.210  0.00  0.00    +0.027 A 
ATOM      4  C   UNL     1      -6.620  -5.621   0.305  0.00  0.00    +0.018 A 
ATOM      5  C   UNL     1      -5.518  -6.452   0.301  0.00  0.00    +0.023 A 
ATOM      6  C   UNL     1      -4.245  -5.920   0.197  0.00  0.00    +0.062 A 
ATOM      7 CL   UNL     1      -2.865  -6.972   0.186  0.00  0.00    -0.082 Cl
ENDROOT
BRANCH   1  10
ATOM      8  C   UNL     1      -2.493  -2.825   0.585  0.00  0.00    +0.234 C 
ATOM      9  O   UNL     1      -3.372  -2.184   1.121  0.00  0.00    -0.274 OA
ATOM     10  N   UNL     1      -2.778  -4.008   0.007  0.00  0.00    -0.283 N 
ATOM     11  H   UNL     1      -2.090  -4.490  -0.478  0.00  0.00    +0.155 HD
BRANCH   8  12
ATOM     12  C   UNL     1      -1.081  -2.297   0.564  0.00  0.00    +0.200 C 
BRANCH  12  16
ATOM     13  C   UNL     1       0.185   0.989   2.065  0.00  0.00    +0.109 C 
ATOM     14  C   UNL     1       0.135  -0.341   1.358  0.00  0.00    +0.210 C 
ATOM     15  O   UNL     1       1.147  -0.814   0.884  0.00  0.00    -0.276 OA
ATOM     16  N   UNL     1      -1.033  -1.004   1.252  0.00  0.00    -0.307 N 
ATOM     17  H   UNL     1      -1.842  -0.626   1.631  0.00  0.00    +0.149 HD
ENDBRANCH  12  16
ENDBRANCH   8  12
ENDBRANCH   1  10
BRANCH   3  18
ATOM     18  C   UNL     1      -7.594  -3.374   0.214  0.00  0.00    -0.068 C 
ATOM     19  C   UNL     1      -8.530  -2.666   0.218  0.00  0.00    -0.117 C 
BRANCH  19  20
ATOM     20  C   UNL     1      -9.704  -1.778   0.223  0.00  0.00    +0.005 C 
BRANCH  20  21
ATOM     21  N   UNL     1     -10.927  -2.584   0.336  0.00  0.00    +0.385 N 
ATOM     22  H   UNL     1     -10.902  -3.113   1.194  0.00  0.00    -0.089 HD
ATOM     23  H   UNL     1     -11.732  -1.975   0.339  0.00  0.00    -0.089 HD
ATOM     24  H   UNL     1     -10.987  -3.216  -0.448  0.00  0.00    -0.089 HD
ENDBRANCH  20  21
ENDBRANCH  19  20
ENDBRANCH   3  18
TORSDOF 6
