REMARK  Name = ZINC39652777
REMARK  9 active torsions:
REMARK  status: ('A' for Active; 'I' for Inactive)
REMARK    1  A    between atoms: C_1  and  C_2
REMARK    2  A    between atoms: C_2  and  O_3
REMARK    3  A    between atoms: O_3  and  C_4
REMARK    4  A    between atoms: C_9  and  C_10
REMARK    5  A    between atoms: C_10  and  C_11
REMARK    6  A    between atoms: C_11  and  N_12
REMARK    7  A    between atoms: C_13  and  C_15
REMARK    8  A    between atoms: C_26  and  C_28
REMARK    9  A    between atoms: C_31  and  C_33
REMARK                            x       y       z     vdW  Elec       q    Type
REMARK                         _______ _______ _______ _____ _____    ______ ____
ROOT
ATOM      1  C   UNL     1      -7.203   1.180  -2.525  0.00  0.00    +0.100 C 
ATOM      2  C   UNL     1      -6.936   2.424  -1.648  0.00  0.00    +0.121 C 
ATOM      3  N   UNL     1      -6.484   3.464  -2.603  0.00  0.00    -0.294 N 
ATOM      4  C   UNL     1      -7.343   3.268  -3.795  0.00  0.00    +0.115 C 
ATOM      5  C   UNL     1      -7.473   1.738  -3.932  0.00  0.00    -0.004 C 
ATOM      6  C   UNL     1      -6.438   1.208  -4.919  0.00  0.00    -0.010 C 
ATOM      7  C   UNL     1      -6.761   1.732  -6.321  0.00  0.00    -0.082 C 
ATOM      8  N   UNL     1      -8.106   1.294  -6.710  0.00  0.00    +0.379 N 
ATOM      9  C   UNL     1      -9.105   1.884  -5.811  0.00  0.00    -0.082 C 
ATOM     10  C   UNL     1      -8.881   1.367  -4.387  0.00  0.00    -0.010 C 
ATOM     11  C   UNL     1      -5.512   4.381  -2.426  0.00  0.00    +0.282 C 
ATOM     12  O   UNL     1      -5.257   5.175  -3.312  0.00  0.00    -0.267 OA
ATOM     13  H   UNL     1      -8.293   1.589  -7.657  0.00  0.00    -0.086 HD
ATOM     14  H   UNL     1      -8.160   0.288  -6.657  0.00  0.00    -0.086 HD
ENDROOT
BRANCH  11  15
ATOM     15  C   UNL     1      -4.763   4.421  -1.168  0.00  0.00    +0.190 A 
ATOM     16  C   UNL     1      -3.753   5.305  -0.856  0.00  0.00    +0.055 A 
ATOM     17  C   UNL     1      -3.323   4.987   0.436  0.00  0.00    +0.050 A 
ATOM     18  C   UNL     1      -4.078   3.931   0.862  0.00  0.00    +0.136 A 
ATOM     19  O   UNL     1      -4.945   3.603  -0.110  0.00  0.00    -0.450 OA
BRANCH  18  20
ATOM     20  C   UNL     1      -3.963   3.265   2.174  0.00  0.00    +0.017 A 
ATOM     21  C   UNL     1      -3.024   3.710   3.107  0.00  0.00    +0.014 A 
ATOM     22  C   UNL     1      -2.922   3.084   4.331  0.00  0.00    +0.039 A 
ATOM     23  C   UNL     1      -3.749   2.015   4.637  0.00  0.00    +0.123 A 
ATOM     24  C   UNL     1      -4.683   1.568   3.715  0.00  0.00    +0.039 A 
ATOM     25  C   UNL     1      -4.798   2.190   2.490  0.00  0.00    +0.014 A 
ATOM     26  F   UNL     1      -3.644   1.406   5.838  0.00  0.00    -0.205 F 
ENDBRANCH  18  20
ENDBRANCH  11  15
BRANCH   1  28
ATOM     27  N   UNL     1      -6.144  -1.047  -2.725  0.00  0.00    -0.315 N 
ATOM     28  C   UNL     1      -5.994   0.280  -2.541  0.00  0.00    +0.218 C 
ATOM     29  O   UNL     1      -4.886   0.750  -2.388  0.00  0.00    -0.275 OA
ATOM     30  H   UNL     1      -7.030  -1.422  -2.847  0.00  0.00    +0.149 HD
BRANCH  27  31
ATOM     31  C   UNL     1      -4.969  -1.921  -2.740  0.00  0.00    +0.109 C 
BRANCH  31  32
ATOM     32  C   UNL     1      -5.413  -3.368  -2.964  0.00  0.00    +0.057 C 
BRANCH  32  38
ATOM     33  C   UNL     1      -3.684  -4.753  -1.789  0.00  0.00    +0.124 A 
ATOM     34  C   UNL     1      -2.575  -5.585  -1.808  0.00  0.00    +0.046 A 
ATOM     35  C   UNL     1      -1.987  -5.925  -3.011  0.00  0.00    +0.004 A 
ATOM     36  C   UNL     1      -2.505  -5.437  -4.196  0.00  0.00    +0.000 A 
ATOM     37  C   UNL     1      -3.610  -4.606  -4.181  0.00  0.00    +0.007 A 
ATOM     38  C   UNL     1      -4.205  -4.268  -2.980  0.00  0.00    -0.004 A 
BRANCH  33  39
ATOM     39  O   UNL     1      -4.264  -4.417  -0.607  0.00  0.00    -0.492 OA
BRANCH  39  41
ATOM     40  C   UNL     1      -4.458  -4.469   1.802  0.00  0.00    +0.048 C 
ATOM     41  C   UNL     1      -3.675  -4.953   0.580  0.00  0.00    +0.225 C 
ENDBRANCH  39  41
ENDBRANCH  33  39
ENDBRANCH  32  38
ENDBRANCH  31  32
ENDBRANCH  27  31
ENDBRANCH   1  28
TORSDOF 8
