REMARK  Name = ZINC48674756
REMARK  5 active torsions:
REMARK  status: ('A' for Active; 'I' for Inactive)
REMARK    1  A    between atoms: C_1  and  C_2
REMARK    2  A    between atoms: C_2  and  C_17
REMARK    3  A    between atoms: C_3  and  C_4
REMARK    4  A    between atoms: N_6  and  N_7
REMARK    5  A    between atoms: C_8  and  C_10
REMARK                            x       y       z     vdW  Elec       q    Type
REMARK                         _______ _______ _______ _____ _____    ______ ____
ROOT
ATOM      1  N   UNL     1      -1.196  -4.184   2.189  0.00  0.00    -0.229 N 
ATOM      2  C   UNL     1      -1.484  -4.849   3.325  0.00  0.00    +0.276 C 
ATOM      3  O   UNL     1      -1.450  -4.270   4.395  0.00  0.00    -0.267 OA
ATOM      4  H   UNL     1      -1.223  -4.646   1.336  0.00  0.00    +0.173 HD
ENDROOT
BRANCH   2   5
ATOM      5  C   UNL     1      -1.839  -6.271   3.272  0.00  0.00    +0.104 A 
ATOM      6  C   UNL     1      -2.162  -7.071   4.349  0.00  0.00    +0.047 A 
ATOM      7  C   UNL     1      -2.431  -8.348   3.846  0.00  0.00    +0.036 A 
ATOM      8  C   UNL     1      -2.272  -8.307   2.501  0.00  0.00    +0.098 A 
ATOM      9  N   UNL     1      -1.917  -7.049   2.140  0.00  0.00    -0.356 N 
ATOM     10  H   UNL     1      -1.745  -6.748   1.234  0.00  0.00    +0.166 HD
ATOM     11 BR   UNL     1      -2.929  -9.863   4.862  0.00  0.00    -0.049 Br
ENDBRANCH   2   5
BRANCH   1  14
ATOM     12  C   UNL     1      -0.568  -2.161   1.103  0.00  0.00    +0.253 C 
ATOM     13  O   UNL     1      -0.602  -2.740   0.034  0.00  0.00    -0.269 OA
ATOM     14  N   UNL     1      -0.856  -2.826   2.239  0.00  0.00    -0.231 N 
ATOM     15  H   UNL     1      -0.829  -2.364   3.091  0.00  0.00    +0.173 HD
BRANCH  12  18
ATOM     16  C   UNL     1       0.396   1.385   0.068  0.00  0.00    +0.039 C 
ATOM     17  C   UNL     1       0.186  -0.108   0.052  0.00  0.00    -0.065 C 
ATOM     18  C   UNL     1      -0.211  -0.735   1.155  0.00  0.00    +0.068 C 
BRANCH  17  19
ATOM     19  C   UNL     1       0.427  -0.889  -1.214  0.00  0.00    +0.015 C 
ATOM     20  C   UNL     1       0.924  -0.117  -2.438  0.00  0.00    +0.008 C 
ATOM     21  C   UNL     1      -0.515  -0.634  -2.392  0.00  0.00    +0.008 C 
ENDBRANCH  17  19
ENDBRANCH  12  18
ENDBRANCH   1  14
TORSDOF 4
