REMARK  Name = ZINC10577534
REMARK  5 active torsions:
REMARK  status: ('A' for Active; 'I' for Inactive)
REMARK    1  A    between atoms: C_4  and  C_7
REMARK    2  A    between atoms: C_7  and  C_9
REMARK    3  A    between atoms: C_7  and  N_27
REMARK    4  A    between atoms: C_9  and  C_10
REMARK    5  A    between atoms: N_12  and  C_13
REMARK                            x       y       z     vdW  Elec       q    Type
REMARK                         _______ _______ _______ _____ _____    ______ ____
ROOT
ATOM      1  C   UNL     1      -8.520   4.319   2.897  0.00  0.00    +0.219 C 
ATOM      2  O   UNL     1      -7.869   5.343   2.904  0.00  0.00    -0.275 OA
ATOM      3  N   UNL     1      -8.041   3.220   2.280  0.00  0.00    -0.285 N 
ATOM      4  H   UNL     1      -8.588   2.422   2.217  0.00  0.00    +0.155 HD
ENDROOT
BRANCH   3   5
ATOM      5  C   UNL     1      -6.753   3.231   1.730  0.00  0.00    +0.037 A 
ATOM      6  C   UNL     1      -6.254   4.392   1.152  0.00  0.00    +0.027 A 
ATOM      7  C   UNL     1      -4.984   4.404   0.608  0.00  0.00    +0.051 A 
ATOM      8  C   UNL     1      -4.204   3.259   0.637  0.00  0.00    +0.167 A 
ATOM      9  C   UNL     1      -4.702   2.094   1.216  0.00  0.00    +0.169 A 
ATOM     10  C   UNL     1      -5.974   2.083   1.761  0.00  0.00    +0.072 A 
ATOM     11  O   UNL     1      -3.752   1.117   1.118  0.00  0.00    -0.447 OA
ATOM     12  C   UNL     1      -2.526   1.802   0.824  0.00  0.00    +0.254 C 
ATOM     13  O   UNL     1      -2.941   3.014   0.176  0.00  0.00    -0.448 OA
ATOM     14  C   UNL     1      -1.665   0.966  -0.117  0.00  0.00    +0.093 C 
ATOM     15  C   UNL     1      -0.376   1.726  -0.442  0.00  0.00    +0.008 C 
ATOM     16  C   UNL     1       0.386   2.013   0.854  0.00  0.00    +0.000 C 
ATOM     17  C   UNL     1      -0.482   2.871   1.777  0.00  0.00    +0.008 C 
ATOM     18  C   UNL     1      -1.771   2.118   2.110  0.00  0.00    +0.093 C 
ENDBRANCH   3   5
BRANCH   1  19
ATOM     19  C   UNL     1      -9.864   4.276   3.577  0.00  0.00    +0.123 C 
BRANCH  19  20
ATOM     20  C   UNL     1     -10.168   5.643   4.193  0.00  0.00    +0.113 C 
BRANCH  20  21
ATOM     21  N   UNL     1      -9.202   5.923   5.259  0.00  0.00    -0.292 N 
ATOM     22  C   UNL     1      -8.998   7.192   5.667  0.00  0.00    +0.298 C 
ATOM     23  O   UNL     1      -9.678   8.092   5.215  0.00  0.00    -0.253 OA
ATOM     24  N   UNL     1      -8.040   7.462   6.575  0.00  0.00    -0.313 N 
ATOM     25  H   UNL     1      -8.710   5.196   5.672  0.00  0.00    +0.151 HD
ATOM     26  H   UNL     1      -7.497   6.743   6.935  0.00  0.00    +0.146 HD
ATOM     27  H   UNL     1      -7.893   8.374   6.868  0.00  0.00    +0.146 HD
ENDBRANCH  20  21
BRANCH  20  31
ATOM     28  C   UNL     1     -14.118   5.625   5.817  0.00  0.00    +0.000 A 
ATOM     29  C   UNL     1     -13.861   6.288   4.632  0.00  0.00    +0.000 A 
ATOM     30  C   UNL     1     -12.583   6.293   4.106  0.00  0.00    +0.005 A 
ATOM     31  C   UNL     1     -11.561   5.637   4.766  0.00  0.00    -0.027 A 
ATOM     32  C   UNL     1     -11.819   4.970   5.950  0.00  0.00    +0.005 A 
ATOM     33  C   UNL     1     -13.097   4.968   6.478  0.00  0.00    +0.000 A 
ENDBRANCH  20  31
ENDBRANCH  19  20
ENDBRANCH   1  19
TORSDOF 5
