REMARK  Name = ZINC15730396
REMARK  6 active torsions:
REMARK  status: ('A' for Active; 'I' for Inactive)
REMARK    1  A    between atoms: C_1  and  C_2
REMARK    2  A    between atoms: C_5  and  C_31
REMARK    3  A    between atoms: C_6  and  N_8
REMARK    4  A    between atoms: N_11  and  S_14
REMARK    5  A    between atoms: S_14  and  C_17
REMARK    6  A    between atoms: C_27  and  C_30
REMARK                            x       y       z     vdW  Elec       q    Type
REMARK                         _______ _______ _______ _____ _____    ______ ____
ROOT
ATOM      1  S   UNL     1       0.684   3.438   5.985  0.00  0.00    +0.061 S 
ATOM      2  O   UNL     1       0.602   4.743   5.428  0.00  0.00    -0.153 OA
ATOM      3  O   UNL     1      -0.331   2.902   6.823  0.00  0.00    -0.153 OA
ENDROOT
BRANCH   1   4
ATOM      4  C   UNL     1       0.859   2.323   4.631  0.00  0.00    +0.107 A 
ATOM      5  C   UNL     1       0.478   1.002   4.775  0.00  0.00    +0.030 A 
ATOM      6  C   UNL     1       0.613   0.119   3.718  0.00  0.00    +0.018 A 
ATOM      7  C   UNL     1       1.131   0.566   2.514  0.00  0.00    +0.029 A 
ATOM      8  C   UNL     1       1.514   1.898   2.368  0.00  0.00    +0.049 A 
ATOM      9  C   UNL     1       1.377   2.775   3.431  0.00  0.00    +0.053 A 
ATOM     10  N   UNL     1       2.032   2.336   1.140  0.00  0.00    -0.284 N 
ATOM     11  C   UNL     1       1.379   2.078   0.000  0.00  0.00    +0.218 C 
ATOM     12  O   UNL     1       1.928   2.288  -1.061  0.00  0.00    -0.275 OA
ATOM     13  C   UNL     1      -0.019   1.534   0.011  0.00  0.00    +0.110 C 
ATOM     14  C   UNL     1       0.002  -0.004   0.002  0.00  0.00    +0.057 C 
ATOM     15  S   UNL     1       1.316  -0.537   1.150  0.00  0.00    -0.120 S 
ATOM     16  C   UNL     1      -1.350  -0.545   0.471  0.00  0.00    +0.020 C 
ATOM     17  H   UNL     1       2.868   2.827   1.116  0.00  0.00    +0.155 HD
ENDBRANCH   1   4
BRANCH   1  21
ATOM     18  N   UNL     1       4.674   2.622   7.579  0.00  0.00    -0.327 N 
ATOM     19  C   UNL     1       4.484   3.453   6.383  0.00  0.00    +0.122 C 
ATOM     20  C   UNL     1       3.208   4.287   6.541  0.00  0.00    +0.128 C 
ATOM     21  N   UNL     1       2.093   3.381   6.852  0.00  0.00    -0.174 NA
ATOM     22  C   UNL     1       2.260   2.426   7.959  0.00  0.00    +0.128 C 
ATOM     23  C   UNL     1       3.575   1.661   7.740  0.00  0.00    +0.122 C 
BRANCH  18  29
ATOM     24  C   UNL     1       7.750  -0.497   5.353  0.00  0.00    +0.044 C 
ATOM     25  C   UNL     1       7.427   0.452   6.477  0.00  0.00    -0.049 A 
ATOM     26  C   UNL     1       8.355   0.680   7.477  0.00  0.00    +0.004 A 
ATOM     27  C   UNL     1       8.063   1.550   8.511  0.00  0.00    +0.005 A 
ATOM     28  C   UNL     1       6.845   2.200   8.545  0.00  0.00    -0.029 A 
ATOM     29  C   UNL     1       5.909   1.970   7.545  0.00  0.00    +0.033 A 
ATOM     30  C   UNL     1       6.205   1.095   6.508  0.00  0.00    +0.026 A 
ATOM     31  C   UNL     1       6.530   3.153   9.669  0.00  0.00    +0.045 C 
ENDBRANCH  18  29
ENDBRANCH   1  21
TORSDOF 3
