REMARK  Name = ZINC39659108
REMARK  6 active torsions:
REMARK  status: ('A' for Active; 'I' for Inactive)
REMARK    1  A    between atoms: C_1  and  C_2
REMARK    2  A    between atoms: C_2  and  C_33
REMARK    3  A    between atoms: C_5  and  C_8
REMARK    4  A    between atoms: C_8  and  N_9
REMARK    5  A    between atoms: C_10  and  C_12
REMARK    6  A    between atoms: C_23  and  C_25
REMARK                            x       y       z     vdW  Elec       q    Type
REMARK                         _______ _______ _______ _____ _____    ______ ____
ROOT
ATOM      1  C   UNL     1       4.283  -1.510   4.816  0.00  0.00    +0.100 C 
ATOM      2  C   UNL     1       5.100  -0.220   5.053  0.00  0.00    +0.121 C 
ATOM      3  N   UNL     1       5.793  -0.447   6.343  0.00  0.00    -0.296 N 
ATOM      4  C   UNL     1       6.199  -1.873   6.297  0.00  0.00    +0.115 C 
ATOM      5  C   UNL     1       5.008  -2.592   5.633  0.00  0.00    -0.004 C 
ATOM      6  C   UNL     1       5.509  -3.702   4.714  0.00  0.00    -0.010 C 
ATOM      7  C   UNL     1       6.175  -4.794   5.555  0.00  0.00    -0.082 C 
ATOM      8  N   UNL     1       5.206  -5.330   6.519  0.00  0.00    +0.379 N 
ATOM      9  C   UNL     1       4.800  -4.278   7.459  0.00  0.00    -0.082 C 
ATOM     10  C   UNL     1       4.077  -3.163   6.698  0.00  0.00    -0.010 C 
ATOM     11  C   UNL     1       6.006   0.441   7.335  0.00  0.00    +0.247 C 
ATOM     12  O   UNL     1       5.499   1.544   7.282  0.00  0.00    -0.270 OA
ATOM     13  H   UNL     1       4.395  -5.670   6.026  0.00  0.00    -0.086 HD
ATOM     14  H   UNL     1       5.628  -6.091   7.031  0.00  0.00    -0.086 HD
ENDROOT
BRANCH  11  15
ATOM     15  C   UNL     1       6.857   0.073   8.487  0.00  0.00    +0.040 A 
ATOM     16  C   UNL     1       7.772  -0.975   8.375  0.00  0.00    +0.033 A 
ATOM     17  C   UNL     1       8.564  -1.314   9.455  0.00  0.00    +0.043 A 
ATOM     18  C   UNL     1       8.451  -0.617  10.645  0.00  0.00    +0.040 A 
ATOM     19  C   UNL     1       7.545   0.423  10.762  0.00  0.00    +0.043 A 
ATOM     20  C   UNL     1       6.752   0.775   9.688  0.00  0.00    +0.033 A 
ATOM     21 CL   UNL     1       7.410   1.291  12.259  0.00  0.00    -0.083 Cl
ATOM     22 CL   UNL     1       9.702  -2.618   9.318  0.00  0.00    -0.083 Cl
ENDBRANCH  11  15
BRANCH   1  24
ATOM     23  N   UNL     1       3.231  -2.520   2.819  0.00  0.00    -0.312 N 
ATOM     24  C   UNL     1       4.283  -1.869   3.353  0.00  0.00    +0.218 C 
ATOM     25  O   UNL     1       5.230  -1.572   2.655  0.00  0.00    -0.275 OA
ATOM     26  H   UNL     1       2.474  -2.758   3.377  0.00  0.00    +0.149 HD
BRANCH  23  27
ATOM     27  C   UNL     1       3.231  -2.870   1.396  0.00  0.00    +0.138 C 
BRANCH  27  32
ATOM     28  C   UNL     1      -0.415  -5.643   1.413  0.00  0.00    +0.074 C 
ATOM     29  C   UNL     1       1.009  -5.681   0.854  0.00  0.00    +0.165 C 
ATOM     30  O   UNL     1       1.021  -5.131  -0.470  0.00  0.00    -0.347 OA
ATOM     31  C   UNL     1       1.894  -3.984  -0.450  0.00  0.00    +0.196 C 
ATOM     32  C   UNL     1       1.931  -3.598   1.050  0.00  0.00    +0.164 C 
ATOM     33  O   UNL     1       1.876  -4.896   1.689  0.00  0.00    -0.342 OA
ATOM     34  C   UNL     1       1.506  -7.127   0.812  0.00  0.00    +0.074 C 
ENDBRANCH  27  32
ENDBRANCH  23  27
ENDBRANCH   1  24
TORSDOF 4
