REMARK  Name = ZINC17002687
REMARK  5 active torsions:
REMARK  status: ('A' for Active; 'I' for Inactive)
REMARK    1  A    between atoms: C_1  and  C_2
REMARK    2  A    between atoms: C_5  and  C_30
REMARK    3  A    between atoms: C_16  and  C_26
REMARK    4  A    between atoms: C_20  and  O_25
REMARK    5  A    between atoms: C_22  and  O_24
REMARK                            x       y       z     vdW  Elec       q    Type
REMARK                         _______ _______ _______ _____ _____    ______ ____
ROOT
ATOM      1  C   UNL     1       0.024  -0.140   2.526  0.00  0.00    +0.015 C 
ATOM      2  C   UNL     1      -0.881   0.281   1.359  0.00  0.00    +0.053 C 
ATOM      3  C   UNL     1      -0.114   0.105   0.041  0.00  0.00    +0.018 C 
ATOM      4  C   UNL     1      -0.897   0.745  -1.099  0.00  0.00    -0.025 C 
ATOM      5  C   UNL     1      -1.043   2.245  -0.840  0.00  0.00    +0.002 C 
ATOM      6  C   UNL     1      -1.576   2.950  -2.079  0.00  0.00    +0.005 C 
ATOM      7  C   UNL     1      -0.483   2.939  -3.161  0.00  0.00    +0.004 C 
ATOM      8  C   UNL     1       0.519   1.838  -2.838  0.00  0.00    -0.004 C 
ATOM      9  C   UNL     1      -0.218   0.554  -2.454  0.00  0.00    -0.001 C 
ATOM     10  C   UNL     1       0.737  -0.629  -2.459  0.00  0.00    +0.005 C 
ATOM     11  C   UNL     1       1.234  -0.932  -3.879  0.00  0.00    +0.010 C 
ATOM     12  C   UNL     1       1.202   0.307  -4.738  0.00  0.00    -0.001 C 
ATOM     13  C   UNL     1       1.524   1.571  -3.917  0.00  0.00    +0.003 C 
ATOM     14  C   UNL     1       1.679   2.634  -5.015  0.00  0.00    +0.038 C 
ATOM     15  C   UNL     1       2.433   1.872  -6.139  0.00  0.00    +0.144 C 
ATOM     16  C   UNL     1       2.325   0.366  -5.798  0.00  0.00    +0.149 C 
ATOM     17  C   UNL     1      -0.125   0.419  -5.490  0.00  0.00    +0.014 C 
ATOM     18  C   UNL     1      -1.913   2.480   0.392  0.00  0.00    +0.078 C 
ATOM     19  C   UNL     1      -1.283   1.723   1.544  0.00  0.00    +0.136 C 
ATOM     20  O   UNL     1      -1.105   2.273   2.606  0.00  0.00    -0.297 OA
ATOM     21  C   UNL     1      -2.279   0.091  -1.188  0.00  0.00    +0.012 C 
ENDROOT
BRANCH  16  22
ATOM     22  O   UNL     1       1.940  -0.386  -6.946  0.00  0.00    -0.389 OA
ATOM     23  H   UNL     1       2.601  -0.392  -7.652  0.00  0.00    +0.210 HD
ENDBRANCH  16  22
BRANCH  15  24
ATOM     24  O   UNL     1       3.806   2.270  -6.165  0.00  0.00    -0.389 OA
ATOM     25  H   UNL     1       3.940   3.205  -6.373  0.00  0.00    +0.210 HD
ENDBRANCH  15  24
TORSDOF 2
