REMARK  Name = ZINC36266707
REMARK  8 active torsions:
REMARK  status: ('A' for Active; 'I' for Inactive)
REMARK    1  A    between atoms: C_1  and  C_2
REMARK    2  A    between atoms: C_4  and  C_21
REMARK    3  A    between atoms: C_5  and  S_9
REMARK    4  A    between atoms: C_6  and  C_8
REMARK    5  A    between atoms: S_9  and  N_12
REMARK    6  A    between atoms: N_12  and  C_13
REMARK    7  A    between atoms: C_13  and  C_14
REMARK    8  A    between atoms: C_14  and  N_20
REMARK                            x       y       z     vdW  Elec       q    Type
REMARK                         _______ _______ _______ _____ _____    ______ ____
ROOT
ATOM      1  N   UNL     1       0.381  -5.331   0.134  0.00  0.00    -0.191 NA
ATOM      2  H   UNL     1       0.609  -5.924  -0.598  0.00  0.00    +0.148 HD
ENDROOT
BRANCH   1   3
ATOM      3  S   UNL     1      -0.965  -4.371   0.034  0.00  0.00    +0.059 S 
ATOM      4  O   UNL     1      -1.681  -4.546   1.249  0.00  0.00    -0.153 OA
ATOM      5  O   UNL     1      -1.549  -4.623  -1.237  0.00  0.00    -0.153 OA
BRANCH   3  10
ATOM      6  C   UNL     1       0.932   1.356  -0.041  0.00  0.00    +0.044 C 
ATOM      7  C   UNL     1       0.458  -0.075  -0.022  0.00  0.00    -0.050 A 
ATOM      8  C   UNL     1       0.126  -0.677   1.177  0.00  0.00    +0.008 A 
ATOM      9  C   UNL     1      -0.309  -1.989   1.194  0.00  0.00    -0.024 A 
ATOM     10  C   UNL     1      -0.412  -2.699   0.012  0.00  0.00    +0.111 A 
ATOM     11  C   UNL     1      -0.080  -2.096  -1.187  0.00  0.00    -0.024 A 
ATOM     12  C   UNL     1       0.350  -0.782  -1.205  0.00  0.00    +0.008 A 
ATOM     13  C   UNL     1      -0.192  -2.869  -2.476  0.00  0.00    +0.046 C 
ATOM     14  C   UNL     1      -0.670  -2.646   2.501  0.00  0.00    +0.046 C 
ENDBRANCH   3  10
ENDBRANCH   1   3
BRANCH   1  15
ATOM     15  C   UNL     1       1.226  -5.283   1.329  0.00  0.00    +0.093 C 
BRANCH  15  16
ATOM     16  C   UNL     1       2.159  -6.496   1.343  0.00  0.00    -0.057 C 
ATOM     17  C   UNL     1       1.327  -7.780   1.357  0.00  0.00    -0.012 C 
ATOM     18  C   UNL     1       0.445  -7.801   2.607  0.00  0.00    -0.001 C 
ATOM     19  C   UNL     1       1.328  -7.752   3.856  0.00  0.00    -0.000 C 
ATOM     20  C   UNL     1       2.161  -6.468   3.841  0.00  0.00    -0.001 C 
ATOM     21  C   UNL     1       3.043  -6.447   2.591  0.00  0.00    -0.012 C 
BRANCH  16  22
ATOM     22  N   UNL     1       3.006  -6.475   0.142  0.00  0.00    +0.383 N 
ATOM     23  H   UNL     1       3.555  -5.628   0.133  0.00  0.00    -0.089 HD
ATOM     24  H   UNL     1       3.622  -7.275   0.151  0.00  0.00    -0.089 HD
ATOM     25  H   UNL     1       2.424  -6.508  -0.681  0.00  0.00    -0.089 HD
ENDBRANCH  16  22
ENDBRANCH  15  16
ENDBRANCH   1  15
TORSDOF 5
