REMARK  Name = ZINC38681689
REMARK  3 active torsions:
REMARK  status: ('A' for Active; 'I' for Inactive)
REMARK    1  A    between atoms: C_3  and  C_6
REMARK    2  A    between atoms: C_6  and  N_7
REMARK    3  A    between atoms: N_10  and  C_11
REMARK                            x       y       z     vdW  Elec       q    Type
REMARK                         _______ _______ _______ _____ _____    ______ ____
ROOT
ATOM      1  C   UNL     1       7.235   2.970   3.155  0.00  0.00    +0.035 A 
ATOM      2  C   UNL     1       7.641   2.998   4.487  0.00  0.00    +0.028 A 
ATOM      3  C   UNL     1       8.922   3.361   4.822  0.00  0.00    -0.024 A 
ATOM      4  C   UNL     1       9.778   3.694   3.772  0.00  0.00    +0.043 A 
ATOM      5  C   UNL     1       9.382   3.667   2.442  0.00  0.00    -0.015 A 
ATOM      6  C   UNL     1       8.098   3.298   2.104  0.00  0.00    +0.029 A 
ATOM      7  C   UNL     1      10.588   4.084   1.660  0.00  0.00    +0.133 C 
ATOM      8  C   UNL     1      11.656   4.334   2.717  0.00  0.00    +0.224 C 
ATOM      9  O   UNL     1      12.798   4.690   2.511  0.00  0.00    -0.275 OA
ATOM     10  N   UNL     1      11.107   4.088   3.916  0.00  0.00    -0.271 N 
ATOM     11  C   UNL     1      11.711   4.186   5.256  0.00  0.00    +0.114 C 
ATOM     12  C   UNL     1      10.597   4.480   6.268  0.00  0.00    +0.024 C 
ATOM     13  C   UNL     1       9.485   3.428   6.212  0.00  0.00    +0.038 C 
ENDROOT
BRANCH   1  17
ATOM     14  N   UNL     1       4.404   1.448   1.500  0.00  0.00    -0.295 N 
ATOM     15  C   UNL     1       5.656   1.887   1.741  0.00  0.00    +0.304 C 
ATOM     16  O   UNL     1       6.548   1.643   0.952  0.00  0.00    -0.252 OA
ATOM     17  N   UNL     1       5.918   2.596   2.857  0.00  0.00    -0.269 N 
ATOM     18  H   UNL     1       3.692   1.643   2.130  0.00  0.00    +0.151 HD
ATOM     19  H   UNL     1       5.196   2.847   3.453  0.00  0.00    +0.156 HD
BRANCH  14  20
ATOM     20  C   UNL     1       4.119   0.678   0.288  0.00  0.00    +0.148 C 
BRANCH  20  23
ATOM     21  C   UNL     1       0.345   0.460  -0.185  0.00  0.00    +0.008 A 
ATOM     22  C   UNL     1       1.616   0.996  -0.276  0.00  0.00    +0.013 A 
ATOM     23  C   UNL     1       2.657   0.311   0.258  0.00  0.00    +0.007 A 
ATOM     24  S   UNL     1       1.848  -1.138   0.916  0.00  0.00    -0.100 S 
ATOM     25  C   UNL     1       0.177  -0.733   0.435  0.00  0.00    +0.045 A 
ENDBRANCH  20  23
ENDBRANCH  14  20
ENDBRANCH   1  17
TORSDOF 3
