REMARK  Name = ZINC45573772
REMARK  8 active torsions:
REMARK  status: ('A' for Active; 'I' for Inactive)
REMARK    1  A    between atoms: C_1  and  C_2
REMARK    2  A    between atoms: C_6  and  C_19
REMARK    3  A    between atoms: N_8  and  C_9
REMARK    4  A    between atoms: C_14  and  C_15
REMARK    5  A    between atoms: N_21  and  N_22
REMARK    6  A    between atoms: C_23  and  C_25
REMARK    7  A    between atoms: C_27  and  C_31
REMARK    8  A    between atoms: C_29  and  C_30
REMARK                            x       y       z     vdW  Elec       q    Type
REMARK                         _______ _______ _______ _____ _____    ______ ____
ROOT
ATOM      1  C   UNL     1      -0.211   1.494   0.033  0.00  0.00    +0.066 C 
ATOM      2  C   UNL     1      -0.091  -0.009   0.013  0.00  0.00    +0.044 A 
ATOM      3  C   UNL     1      -0.195  -0.672  -1.163  0.00  0.00    +0.076 A 
ATOM      4  C   UNL     1      -0.076  -2.086  -1.139  0.00  0.00    +0.213 A 
ATOM      5  O   UNL     1      -0.159  -2.749  -2.161  0.00  0.00    -0.285 OA
ATOM      6  C   UNL     1       0.151  -2.719   0.170  0.00  0.00    +0.194 A 
ATOM      7  N   UNL     1       0.233  -1.954   1.238  0.00  0.00    -0.158 NA
ATOM      8  N   UNL     1       0.125  -0.678   1.172  0.00  0.00    -0.236 N 
ENDROOT
BRANCH   8   9
ATOM      9  C   UNL     1       0.230   0.059   2.356  0.00  0.00    +0.077 A 
ATOM     10  C   UNL     1       1.448   0.620   2.721  0.00  0.00    +0.028 A 
ATOM     11  C   UNL     1       1.548   1.348   3.890  0.00  0.00    +0.002 A 
ATOM     12  C   UNL     1       0.438   1.518   4.698  0.00  0.00    +0.001 A 
ATOM     13  C   UNL     1      -0.775   0.961   4.338  0.00  0.00    +0.014 A 
ATOM     14  C   UNL     1      -0.884   0.238   3.166  0.00  0.00    +0.080 A 
BRANCH  14  15
ATOM     15  C   UNL     1      -2.208  -0.363   2.770  0.00  0.00    +0.419 C 
ATOM     16  F   UNL     1      -3.170  -0.049   3.737  0.00  0.00    -0.166 F 
ATOM     17  F   UNL     1      -2.604   0.155   1.533  0.00  0.00    -0.166 F 
ATOM     18  F   UNL     1      -2.080  -1.753   2.674  0.00  0.00    -0.166 F 
ENDBRANCH  14  15
ENDBRANCH   8   9
BRANCH   6  19
ATOM     19  C   UNL     1       0.286  -4.185   0.283  0.00  0.00    +0.284 C 
ATOM     20  O   UNL     1       0.209  -4.881  -0.711  0.00  0.00    -0.267 OA
ATOM     21  N   UNL     1       0.494  -4.752   1.488  0.00  0.00    -0.229 N 
ATOM     22  H   UNL     1       0.556  -4.197   2.280  0.00  0.00    +0.173 HD
BRANCH  21  23
ATOM     23  N   UNL     1       0.622  -6.143   1.595  0.00  0.00    -0.230 N 
ATOM     24  C   UNL     1       0.830  -6.710   2.800  0.00  0.00    +0.263 C 
ATOM     25  O   UNL     1       0.907  -6.014   3.794  0.00  0.00    -0.269 OA
ATOM     26  H   UNL     1       0.560  -6.698   0.802  0.00  0.00    +0.173 HD
BRANCH  24  27
ATOM     27  C   UNL     1       0.964  -8.173   2.912  0.00  0.00    +0.079 A 
ATOM     28  C   UNL     1       0.904  -9.158   1.822  0.00  0.00    +0.057 A 
ATOM     29  C   UNL     1       1.076 -10.357   2.398  0.00  0.00    +0.103 A 
ATOM     30  O   UNL     1       1.233 -10.191   3.721  0.00  0.00    -0.464 OA
ATOM     31  C   UNL     1       1.176  -8.897   4.049  0.00  0.00    +0.114 A 
ATOM     32  C   UNL     1       1.317  -8.333   5.439  0.00  0.00    +0.087 C 
ATOM     33  C   UNL     1       1.091 -11.680   1.676  0.00  0.00    +0.086 C 
ENDBRANCH  24  27
ENDBRANCH  21  23
ENDBRANCH   6  19
TORSDOF 5
