REMARK  Name = ZINC45270592
REMARK  8 active torsions:
REMARK  status: ('A' for Active; 'I' for Inactive)
REMARK    1  A    between atoms: C_1  and  C_2
REMARK    2  A    between atoms: C_2  and  C_3
REMARK    3  A    between atoms: C_2  and  N_4
REMARK    4  A    between atoms: N_7  and  C_10
REMARK    5  A    between atoms: C_10  and  C_11
REMARK    6  A    between atoms: C_11  and  C_12
REMARK    7  A    between atoms: C_11  and  C_18
REMARK    8  A    between atoms: C_11  and  N_21
REMARK                            x       y       z     vdW  Elec       q    Type
REMARK                         _______ _______ _______ _____ _____    ______ ____
ROOT
ATOM      1  C   UNL     1      -4.846  -4.030  -1.529  0.00  0.00    +0.071 C 
ENDROOT
BRANCH   1   2
ATOM      2  C   UNL     1      -6.143  -4.666  -1.957  0.00  0.00    -0.047 A 
ATOM      3  C   UNL     1      -7.335  -4.256  -1.389  0.00  0.00    +0.003 A 
ATOM      4  C   UNL     1      -8.525  -4.840  -1.782  0.00  0.00    +0.000 A 
ATOM      5  C   UNL     1      -8.523  -5.834  -2.743  0.00  0.00    +0.000 A 
ATOM      6  C   UNL     1      -7.331  -6.243  -3.312  0.00  0.00    +0.000 A 
ATOM      7  C   UNL     1      -6.142  -5.656  -2.922  0.00  0.00    +0.003 A 
ENDBRANCH   1   2
BRANCH   1   8
ATOM      8  N   UNL     1      -3.901  -4.041  -2.653  0.00  0.00    +0.393 N 
ATOM      9  H   UNL     1      -3.032  -3.615  -2.366  0.00  0.00    -0.088 HD
ATOM     10  H   UNL     1      -3.729  -4.994  -2.939  0.00  0.00    -0.088 HD
ATOM     11  H   UNL     1      -4.290  -3.523  -3.426  0.00  0.00    -0.088 HD
ENDBRANCH   1   8
BRANCH   1  12
ATOM     12  C   UNL     1      -4.264  -4.804  -0.375  0.00  0.00    +0.350 C 
ATOM     13  O   UNL     1      -4.857  -4.850   0.690  0.00  0.00    -0.248 OA
ATOM     14  O   UNL     1      -3.200  -5.384  -0.505  0.00  0.00    -0.248 OA
ENDBRANCH   1  12
BRANCH   1  15
ATOM     15  C   UNL     1      -5.106  -2.586  -1.096  0.00  0.00    +0.087 C 
BRANCH  15  19
ATOM     16  N   UNL     1      -2.067  -0.212   0.638  0.00  0.00    +0.383 N 
ATOM     17  C   UNL     1      -2.614   0.206  -0.659  0.00  0.00    -0.063 C 
ATOM     18  C   UNL     1      -3.978  -0.453  -0.875  0.00  0.00    +0.066 C 
ATOM     19  N   UNL     1      -3.825  -1.915  -0.836  0.00  0.00    -0.306 NA
ATOM     20  C   UNL     1      -3.255  -2.346   0.449  0.00  0.00    +0.066 C 
ATOM     21  C   UNL     1      -1.897  -1.671   0.653  0.00  0.00    -0.063 C 
ATOM     22  H   UNL     1      -2.703   0.059   1.374  0.00  0.00    -0.081 HD
BRANCH  16  24
ATOM     23  C   UNL     1      -0.944   1.954   0.838  0.00  0.00    -0.014 C 
ATOM     24  C   UNL     1      -0.766   0.435   0.853  0.00  0.00    -0.075 C 
ATOM     25  C   UNL     1      -0.198   0.001   2.205  0.00  0.00    -0.014 C 
ENDBRANCH  16  24
ENDBRANCH  15  19
ENDBRANCH   1  15
TORSDOF 6
