REMARK  Name = ZINC01158658
REMARK  5 active torsions:
REMARK  status: ('A' for Active; 'I' for Inactive)
REMARK    1  A    between atoms: C_3  and  C_9
REMARK    2  A    between atoms: N_11  and  C_12
REMARK    3  A    between atoms: C_12  and  N_14
REMARK    4  A    between atoms: N_14  and  C_15
REMARK    5  A    between atoms: C_16  and  C_24
REMARK                            x       y       z     vdW  Elec       q    Type
REMARK                         _______ _______ _______ _____ _____    ______ ____
ROOT
ATOM      1  N   UNL     1      -1.289   1.179   4.957  0.00  0.00    -0.291 N 
ATOM      2  H   UNL     1      -0.734   0.442   5.257  0.00  0.00    +0.154 HD
ENDROOT
BRANCH   1   3
ATOM      3  C   UNL     1      -1.283   1.551   3.622  0.00  0.00    +0.084 A 
ATOM      4  C   UNL     1      -0.558   0.998   2.575  0.00  0.00    +0.068 A 
ATOM      5  C   UNL     1      -0.732   1.580   1.257  0.00  0.00    -0.023 A 
ATOM      6  C   UNL     1      -1.601   2.615   1.194  0.00  0.00    -0.004 A 
ATOM      7  S   UNL     1      -2.179   2.821   2.855  0.00  0.00    -0.077 S 
ATOM      8  C   UNL     1      -1.979   3.405  -0.021  0.00  0.00    +0.043 C 
ATOM      9  C   UNL     1      -0.956   3.111  -1.127  0.00  0.00    +0.005 C 
ATOM     10  C   UNL     1      -0.758   1.595  -1.227  0.00  0.00    +0.005 C 
ATOM     11  C   UNL     1      -0.013   1.086   0.008  0.00  0.00    +0.037 C 
BRANCH   4  12
ATOM     12  C   UNL     1       0.351  -0.131   2.793  0.00  0.00    +0.244 C 
ATOM     13  O   UNL     1      -0.061  -1.272   2.693  0.00  0.00    -0.270 OA
ATOM     14  N   UNL     1       1.643   0.095   3.104  0.00  0.00    -0.325 N 
ATOM     15  H   UNL     1       1.971   1.004   3.184  0.00  0.00    +0.145 HD
ATOM     16  H   UNL     1       2.244  -0.652   3.249  0.00  0.00    +0.145 HD
ENDBRANCH   4  12
ENDBRANCH   1   3
BRANCH   1  17
ATOM     17  C   UNL     1      -2.065   1.840   5.838  0.00  0.00    +0.141 C 
ATOM     18  S   UNL     1      -3.044   3.141   5.308  0.00  0.00    -0.018 S 
BRANCH  17  21
ATOM     19  C   UNL     1      -2.847   2.140   8.017  0.00  0.00    +0.251 C 
ATOM     20  O   UNL     1      -3.542   3.063   7.640  0.00  0.00    -0.270 OA
ATOM     21  N   UNL     1      -2.071   1.478   7.136  0.00  0.00    -0.264 N 
ATOM     22  H   UNL     1      -1.516   0.741   7.436  0.00  0.00    +0.157 HD
BRANCH  19  25
ATOM     23  C   UNL     1      -2.066   0.316  11.203  0.00  0.00    +0.021 A 
ATOM     24  C   UNL     1      -2.056   0.682   9.874  0.00  0.00    +0.016 A 
ATOM     25  C   UNL     1      -2.854   1.743   9.438  0.00  0.00    +0.055 A 
ATOM     26  C   UNL     1      -3.654   2.431  10.356  0.00  0.00    +0.054 A 
ATOM     27  C   UNL     1      -3.659   2.050  11.683  0.00  0.00    +0.040 A 
ATOM     28  C   UNL     1      -2.865   0.998  12.107  0.00  0.00    +0.042 A 
ATOM     29 CL   UNL     1      -2.872   0.530  13.779  0.00  0.00    -0.083 Cl
ATOM     30 CL   UNL     1      -4.643   3.756   9.826  0.00  0.00    -0.083 Cl
ENDBRANCH  19  25
ENDBRANCH  17  21
ENDBRANCH   1  17
TORSDOF 5
