REMARK  Name = ZINC06998908
REMARK  4 active torsions:
REMARK  status: ('A' for Active; 'I' for Inactive)
REMARK    1  A    between atoms: C_1  and  N_2
REMARK    2  A    between atoms: C_3  and  C_5
REMARK    3  A    between atoms: N_7  and  N_8
REMARK    4  A    between atoms: C_9  and  C_10
REMARK                            x       y       z     vdW  Elec       q    Type
REMARK                         _______ _______ _______ _____ _____    ______ ____
ROOT
ATOM      1  C   UNL     1      -1.136  -2.186   0.001  0.00  0.00    +0.318 C 
ATOM      2  O   UNL     1      -0.076  -2.778  -0.012  0.00  0.00    -0.263 OA
ATOM      3  N   UNL     1      -2.293  -2.875   0.009  0.00  0.00    -0.199 N 
ATOM      4  H   UNL     1      -3.140  -2.402   0.019  0.00  0.00    +0.178 HD
ENDROOT
BRANCH   1   7
ATOM      5  C   UNL     1      -0.018   1.461   0.010  0.00  0.00    +0.128 C 
ATOM      6  N   UNL     1       0.002  -0.004   0.002  0.00  0.00    -0.311 N 
ATOM      7  C   UNL     1      -1.156  -0.694   0.009  0.00  0.00    +0.300 C 
ATOM      8  O   UNL     1      -2.215  -0.101   0.023  0.00  0.00    -0.265 OA
ATOM      9  H   UNL     1       0.849  -0.478  -0.009  0.00  0.00    +0.149 HD
ENDBRANCH   1   7
BRANCH   3  10
ATOM     10  N   UNL     1      -2.275  -4.276   0.001  0.00  0.00    -0.187 NA
ATOM     11  C   UNL     1      -3.390  -4.941   0.008  0.00  0.00    +0.138 C 
BRANCH  11  12
ATOM     12  C   UNL     1      -3.370  -6.415  -0.000  0.00  0.00    -0.004 A 
ATOM     13  C   UNL     1      -2.153  -7.100  -0.010  0.00  0.00    +0.009 A 
ATOM     14  C   UNL     1      -2.141  -8.479  -0.017  0.00  0.00    +0.002 A 
ATOM     15  C   UNL     1      -3.332  -9.185  -0.015  0.00  0.00    +0.015 A 
ATOM     16  C   UNL     1      -4.542  -8.513  -0.007  0.00  0.00    +0.018 A 
ATOM     17  C   UNL     1      -4.569  -7.133   0.007  0.00  0.00    +0.024 A 
ATOM     18 BR   UNL     1      -6.162  -9.488  -0.005  0.00  0.00    -0.050 Br
ENDBRANCH  11  12
ENDBRANCH   3  10
TORSDOF 3
