REMARK  Name = ZINC42999947
REMARK  5 active torsions:
REMARK  status: ('A' for Active; 'I' for Inactive)
REMARK    1  A    between atoms: C_1  and  C_2
REMARK    2  A    between atoms: C_2  and  C_4
REMARK    3  A    between atoms: C_2  and  N_14
REMARK    4  A    between atoms: C_20  and  C_23
REMARK    5  A    between atoms: C_23  and  O_24
REMARK                            x       y       z     vdW  Elec       q    Type
REMARK                         _______ _______ _______ _____ _____    ______ ____
ROOT
ATOM      1  N   UNL     1      -1.372  -0.512   0.012  0.00  0.00    -0.296 N 
ATOM      2  C   UNL     1      -2.051  -0.643  -1.145  0.00  0.00    +0.302 C 
ATOM      3  O   UNL     1      -1.557  -0.255  -2.186  0.00  0.00    -0.253 OA
ATOM      4  N   UNL     1      -3.277  -1.203  -1.147  0.00  0.00    -0.286 N 
ATOM      5  C   UNL     1      -3.935  -1.569   0.115  0.00  0.00    +0.109 C 
ATOM      6  C   UNL     1      -4.353  -3.041   0.043  0.00  0.00    +0.025 C 
ATOM      7  C   UNL     1      -5.214  -3.263  -1.202  0.00  0.00    +0.017 C 
ATOM      8  C   UNL     1      -4.398  -2.931  -2.454  0.00  0.00    +0.025 C 
ATOM      9  C   UNL     1      -3.983  -1.453  -2.411  0.00  0.00    +0.109 C 
ATOM     10  H   UNL     1      -1.794  -0.753   0.852  0.00  0.00    +0.151 HD
ENDROOT
BRANCH   1  12
ATOM     11  C   UNL     1      -0.016   1.524   0.010  0.00  0.00    +0.028 C 
ATOM     12  C   UNL     1       0.003  -0.006   0.002  0.00  0.00    +0.078 C 
BRANCH  12  13
ATOM     13  C   UNL     1       0.743  -0.514   1.241  0.00  0.00    -0.010 C 
ATOM     14  C   UNL     1       0.762  -2.044   1.232  0.00  0.00    +0.012 C 
ATOM     15  C   UNL     1       1.502  -2.552   2.471  0.00  0.00    -0.010 C 
ATOM     16  C   UNL     1       2.938  -2.023   2.460  0.00  0.00    +0.007 C 
ATOM     17  C   UNL     1       2.918  -0.494   2.469  0.00  0.00    -0.010 C 
ATOM     18  C   UNL     1       2.179   0.014   1.230  0.00  0.00    +0.012 C 
ATOM     19  C   UNL     1       2.203   0.000   3.728  0.00  0.00    +0.007 C 
ATOM     20  C   UNL     1       0.767  -0.528   3.739  0.00  0.00    -0.010 C 
ATOM     21  C   UNL     1       0.786  -2.058   3.731  0.00  0.00    +0.007 C 
ATOM     22  C   UNL     1       0.027  -0.020   2.500  0.00  0.00    +0.012 C 
ENDBRANCH  12  13
ENDBRANCH   1  12
BRANCH   7  23
ATOM     23  C   UNL     1      -5.662  -4.725  -1.259  0.00  0.00    +0.159 C 
BRANCH  23  24
ATOM     24  O   UNL     1      -6.560  -4.906  -2.356  0.00  0.00    -0.395 OA
ATOM     25  H   UNL     1      -6.885  -5.811  -2.452  0.00  0.00    +0.209 HD
ENDBRANCH  23  24
ENDBRANCH   7  23
TORSDOF 4
