REMARK  Name = ZINC45166695
REMARK  12 active torsions:
REMARK  status: ('A' for Active; 'I' for Inactive)
REMARK    1  A    between atoms: C_1  and  C_2
REMARK    2  A    between atoms: C_2  and  C_3
REMARK    3  A    between atoms: C_2  and  C_4
REMARK    4  A    between atoms: C_4  and  C_5
REMARK    5  A    between atoms: C_5  and  C_7
REMARK    6  A    between atoms: C_5  and  N_11
REMARK    7  A    between atoms: C_7  and  N_8
REMARK    8  A    between atoms: N_8  and  C_9
REMARK    9  A    between atoms: N_8  and  C_10
REMARK   10  A    between atoms: N_11  and  S_12
REMARK   11  A    between atoms: S_12  and  C_15
REMARK   12  A    between atoms: C_16  and  N_22
REMARK                            x       y       z     vdW  Elec       q    Type
REMARK                         _______ _______ _______ _____ _____    ______ ____
ROOT
ATOM      1  S   UNL     1       0.135  -3.487   1.993  0.00  0.00    +0.062 S 
ATOM      2  O   UNL     1       0.455  -3.896   3.315  0.00  0.00    -0.153 OA
ATOM      3  O   UNL     1      -0.051  -4.415   0.932  0.00  0.00    -0.153 OA
ENDROOT
BRANCH   1   4
ATOM      4  C   UNL     1       1.415  -2.389   1.482  0.00  0.00    +0.144 A 
ATOM      5  C   UNL     1       1.676  -2.206   0.130  0.00  0.00    +0.053 A 
ATOM      6  C   UNL     1       2.686  -1.339  -0.268  0.00  0.00    +0.025 A 
ATOM      7  C   UNL     1       3.427  -0.661   0.680  0.00  0.00    +0.003 A 
ATOM      8  C   UNL     1       3.166  -0.845   2.025  0.00  0.00    +0.022 A 
ATOM      9  C   UNL     1       2.156  -1.703   2.426  0.00  0.00    +0.069 A 
ATOM     10 CL   UNL     1       1.826  -1.925   4.116  0.00  0.00    -0.081 Cl
BRANCH   5  11
ATOM     11  N   UNL     1       0.925  -2.892  -0.827  0.00  0.00    -0.356 N 
ATOM     12  H   UNL     1       0.123  -3.370  -0.563  0.00  0.00    +0.142 HD
ATOM     13  H   UNL     1       1.206  -2.892  -1.755  0.00  0.00    +0.142 HD
ENDBRANCH   5  11
ENDBRANCH   1   4
BRANCH   1  14
ATOM     14  N   UNL     1      -1.259  -2.600   2.096  0.00  0.00    -0.189 NA
ATOM     15  H   UNL     1      -1.658  -2.422   2.962  0.00  0.00    +0.148 HD
BRANCH  14  16
ATOM     16  C   UNL     1      -1.891  -2.084   0.879  0.00  0.00    +0.060 C 
BRANCH  16  17
ATOM     17  C   UNL     1      -2.093  -0.573   1.011  0.00  0.00    +0.021 C 
BRANCH  17  19
ATOM     18  C   UNL     1      -0.075  -0.024  -0.356  0.00  0.00    +0.007 C 
ATOM     19  C   UNL     1      -0.732   0.126   1.017  0.00  0.00    -0.016 C 
ATOM     20  C   UNL     1      -0.923   1.611   1.332  0.00  0.00    +0.007 C 
ENDBRANCH  17  19
ENDBRANCH  16  17
BRANCH  16  21
ATOM     21  C   UNL     1      -3.246  -2.765   0.679  0.00  0.00    -0.059 C 
BRANCH  21  22
ATOM     22  N   UNL     1      -3.049  -4.212   0.523  0.00  0.00    +0.377 N 
ATOM     23  C   UNL     1      -4.353  -4.887   0.525  0.00  0.00    -0.097 C 
ATOM     24  C   UNL     1      -2.362  -4.478  -0.748  0.00  0.00    -0.097 C 
ATOM     25  H   UNL     1      -2.489  -4.559   1.287  0.00  0.00    -0.083 HD
ENDBRANCH  21  22
ENDBRANCH  16  21
ENDBRANCH  14  16
ENDBRANCH   1  14
TORSDOF 8
