REMARK  Name = ZINC48952966
REMARK  4 active torsions:
REMARK  status: ('A' for Active; 'I' for Inactive)
REMARK    1  A    between atoms: C_3  and  C_7
REMARK    2  A    between atoms: C_7  and  C_8
REMARK    3  A    between atoms: N_10  and  N_11
REMARK    4  A    between atoms: N_14  and  C_15
REMARK                            x       y       z     vdW  Elec       q    Type
REMARK                         _______ _______ _______ _____ _____    ______ ____
ROOT
ATOM      1  N   UNL     1       6.210  -1.988   0.980  0.00  0.00    -0.218 N 
ATOM      2  C   UNL     1       7.502  -2.252   0.704  0.00  0.00    +0.316 C 
ATOM      3  O   UNL     1       8.047  -3.215   1.208  0.00  0.00    -0.251 OA
ATOM      4  N   UNL     1       8.191  -1.449  -0.131  0.00  0.00    -0.294 N 
ATOM      5  H   UNL     1       5.714  -2.566   1.581  0.00  0.00    +0.174 HD
ATOM      6  H   UNL     1       7.756  -0.681  -0.533  0.00  0.00    +0.151 HD
ENDROOT
BRANCH   4   7
ATOM      7  C   UNL     1       9.596  -1.736  -0.431  0.00  0.00    +0.097 C 
ATOM      8  C   UNL     1      10.496  -1.095   0.638  0.00  0.00    +0.046 C 
ATOM      9  C   UNL     1      11.970  -1.114   0.167  0.00  0.00    +0.168 C 
ATOM     10  S   UNL     1      11.809  -1.072  -1.665  0.00  0.00    -0.029 S 
ATOM     11  O   UNL     1      12.274   0.183  -2.142  0.00  0.00    -0.174 OA
ATOM     12  O   UNL     1      12.352  -2.270  -2.204  0.00  0.00    -0.174 OA
ATOM     13  C   UNL     1       9.973  -1.126  -1.811  0.00  0.00    +0.188 C 
ENDBRANCH   4   7
BRANCH   1  16
ATOM     14  C   UNL     1       4.289  -0.615   0.675  0.00  0.00    +0.232 C 
ATOM     15  O   UNL     1       3.670  -1.337   1.426  0.00  0.00    -0.274 OA
ATOM     16  N   UNL     1       5.582  -0.879   0.399  0.00  0.00    -0.233 N 
ATOM     17  H   UNL     1       6.077  -0.300  -0.202  0.00  0.00    +0.173 HD
BRANCH  14  18
ATOM     18  C   UNL     1       3.614   0.579   0.050  0.00  0.00    +0.128 C 
BRANCH  18  21
ATOM     19  C   UNL     1      -0.019   1.537   0.011  0.00  0.00    +0.031 C 
ATOM     20  C   UNL     1       1.477   1.937  -0.002  0.00  0.00    +0.034 C 
ATOM     21  C   UNL     1       2.161   0.650   0.525  0.00  0.00    +0.127 C 
ATOM     22  O   UNL     1       1.379  -0.412  -0.062  0.00  0.00    -0.376 OA
ATOM     23  C   UNL     1       0.002  -0.004   0.002  0.00  0.00    +0.160 C 
ENDBRANCH  18  21
ENDBRANCH  14  18
ENDBRANCH   1  16
TORSDOF 4
