REMARK  Name = ZINC08033653
REMARK  6 active torsions:
REMARK  status: ('A' for Active; 'I' for Inactive)
REMARK    1  A    between atoms: C_4  and  N_7
REMARK    2  A    between atoms: N_7  and  S_8
REMARK    3  A    between atoms: S_8  and  C_11
REMARK    4  A    between atoms: C_14  and  C_17
REMARK    5  A    between atoms: N_19  and  N_20
REMARK    6  A    between atoms: C_21  and  C_23
REMARK                            x       y       z     vdW  Elec       q    Type
REMARK                         _______ _______ _______ _____ _____    ______ ____
ROOT
ATOM      1  C   UNL     1       5.250   1.537  -0.403  0.00  0.00    +0.109 A 
ATOM      2  C   UNL     1       4.522   2.658  -0.759  0.00  0.00    +0.029 A 
ATOM      3  C   UNL     1       4.872   3.897  -0.263  0.00  0.00    +0.015 A 
ATOM      4  C   UNL     1       5.969   4.020   0.591  0.00  0.00    +0.038 A 
ATOM      5  C   UNL     1       6.702   2.886   0.942  0.00  0.00    +0.015 A 
ATOM      6  C   UNL     1       6.339   1.652   0.444  0.00  0.00    +0.029 A 
ENDROOT
BRANCH   4   7
ATOM      7  C   UNL     1       6.352   5.346   1.121  0.00  0.00    +0.260 C 
ATOM      8  O   UNL     1       7.308   5.449   1.865  0.00  0.00    -0.269 OA
ATOM      9  N   UNL     1       5.642   6.439   0.780  0.00  0.00    -0.230 N 
ATOM     10  H   UNL     1       4.879   6.356   0.187  0.00  0.00    +0.173 HD
BRANCH   9  11
ATOM     11  N   UNL     1       6.005   7.695   1.283  0.00  0.00    -0.228 N 
ATOM     12  C   UNL     1       5.295   8.789   0.942  0.00  0.00    +0.295 C 
ATOM     13  O   UNL     1       4.338   8.685   0.197  0.00  0.00    -0.265 OA
ATOM     14  H   UNL     1       6.768   7.778   1.877  0.00  0.00    +0.173 HD
BRANCH  12  15
ATOM     15  C   UNL     1       5.675  10.104   1.468  0.00  0.00    +0.190 A 
ATOM     16  C   UNL     1       5.046  11.286   1.204  0.00  0.00    +0.054 A 
ATOM     17  C   UNL     1       5.741  12.280   1.911  0.00  0.00    +0.042 A 
ATOM     18  C   UNL     1       6.751  11.668   2.567  0.00  0.00    +0.196 A 
ATOM     19  O   UNL     1       6.705  10.356   2.303  0.00  0.00    -0.458 OA
ENDBRANCH  12  15
ENDBRANCH   9  11
ENDBRANCH   4   7
BRANCH   1  20
ATOM     20  S   UNL     1       4.793  -0.043  -1.035  0.00  0.00    +0.072 S 
ATOM     21  O   UNL     1       5.928  -0.885  -0.882  0.00  0.00    -0.150 OA
ATOM     22  O   UNL     1       4.180   0.186  -2.296  0.00  0.00    -0.150 OA
BRANCH  20  23
ATOM     23  N   UNL     1       3.617  -0.647  -0.039  0.00  0.00    -0.216 N 
ATOM     24  H   UNL     1       2.733  -0.835  -0.391  0.00  0.00    +0.174 HD
BRANCH  23  28
ATOM     25  C   UNL     1       4.453  -1.360   3.977  0.00  0.00    +0.000 A 
ATOM     26  C   UNL     1       5.340  -1.780   3.003  0.00  0.00    +0.002 A 
ATOM     27  C   UNL     1       5.066  -1.545   1.670  0.00  0.00    +0.024 A 
ATOM     28  C   UNL     1       3.897  -0.887   1.308  0.00  0.00    +0.048 A 
ATOM     29  C   UNL     1       3.008  -0.467   2.290  0.00  0.00    +0.024 A 
ATOM     30  C   UNL     1       3.289  -0.705   3.621  0.00  0.00    +0.002 A 
ENDBRANCH  23  28
ENDBRANCH  20  23
ENDBRANCH   1  20
TORSDOF 6
