REMARK  Name = ZINC08579928
REMARK  5 active torsions:
REMARK  status: ('A' for Active; 'I' for Inactive)
REMARK    1  A    between atoms: C_4  and  C_8
REMARK    2  A    between atoms: C_11  and  C_13
REMARK    3  A    between atoms: N_14  and  N_15
REMARK    4  A    between atoms: N_15  and  C_16
REMARK    5  A    between atoms: C_16  and  N_18
REMARK                            x       y       z     vdW  Elec       q    Type
REMARK                         _______ _______ _______ _____ _____    ______ ____
ROOT
ATOM      1  C   UNL     1       3.695  -0.684  -0.037  0.00  0.00    +0.137 A 
ATOM      2  C   UNL     1       4.050  -1.700   0.799  0.00  0.00    +0.050 A 
ATOM      3  C   UNL     1       5.348  -2.092   0.443  0.00  0.00    +0.051 A 
ATOM      4  C   UNL     1       5.731  -1.287  -0.608  0.00  0.00    +0.148 A 
ATOM      5  O   UNL     1       4.714  -0.446  -0.885  0.00  0.00    -0.454 OA
ENDROOT
BRANCH   1   9
ATOM      6  C   UNL     1      -0.017   1.381   0.010  0.00  0.00    +0.021 A 
ATOM      7  C   UNL     1       1.168   2.095   0.002  0.00  0.00    +0.022 A 
ATOM      8  C   UNL     1       2.378   1.431  -0.013  0.00  0.00    +0.052 A 
ATOM      9  C   UNL     1       2.405   0.033  -0.021  0.00  0.00    +0.037 A 
ATOM     10  C   UNL     1       1.205  -0.681  -0.013  0.00  0.00    +0.033 A 
ATOM     11  C   UNL     1       0.002  -0.004   0.002  0.00  0.00    +0.042 A 
ATOM     12 CL   UNL     1      -1.491  -0.890   0.011  0.00  0.00    -0.084 Cl
ATOM     13 CL   UNL     1       3.864   2.330  -0.023  0.00  0.00    -0.083 Cl
ENDBRANCH   1   9
BRANCH   4  14
ATOM     14  C   UNL     1       7.018  -1.340  -1.305  0.00  0.00    +0.176 C 
ATOM     15  N   UNL     1       7.260  -0.520  -2.287  0.00  0.00    -0.185 NA
BRANCH  15  16
ATOM     16  N   UNL     1       8.491  -0.570  -2.954  0.00  0.00    -0.218 N 
ATOM     17  H   UNL     1       9.163  -1.215  -2.684  0.00  0.00    +0.176 HD
BRANCH  16  18
ATOM     18  C   UNL     1       8.741   0.278  -3.972  0.00  0.00    +0.147 C 
ATOM     19  S   UNL     1      10.245   0.217  -4.787  0.00  0.00    -0.017 S 
BRANCH  18  20
ATOM     20  N   UNL     1       7.807   1.174  -4.347  0.00  0.00    -0.339 N 
ATOM     21  H   UNL     1       6.954   1.209  -3.885  0.00  0.00    +0.144 HD
ATOM     22  H   UNL     1       7.987   1.785  -5.079  0.00  0.00    +0.144 HD
ENDBRANCH  18  20
ENDBRANCH  16  18
ENDBRANCH  15  16
ENDBRANCH   4  14
TORSDOF 5
