REMARK  Name = ZINC40570176
REMARK  5 active torsions:
REMARK  status: ('A' for Active; 'I' for Inactive)
REMARK    1  A    between atoms: C_1  and  N_2
REMARK    2  A    between atoms: C_7  and  C_25
REMARK    3  A    between atoms: C_9  and  N_24
REMARK    4  A    between atoms: C_10  and  C_14
REMARK    5  A    between atoms: N_16  and  C_17
REMARK                            x       y       z     vdW  Elec       q    Type
REMARK                         _______ _______ _______ _____ _____    ______ ____
ROOT
ATOM      1  C   UNL     1       0.010   0.720  -1.434  0.00  0.00    +0.105 C 
ATOM      2  N   UNL     1       0.047  -0.708  -1.092  0.00  0.00    -0.301 NA
ATOM      3  C   UNL     1      -1.291  -1.312  -1.200  0.00  0.00    +0.090 C 
ATOM      4  C   UNL     1      -1.138  -2.833  -1.199  0.00  0.00    +0.071 C 
ATOM      5  C   UNL     1      -0.279  -3.263  -0.036  0.00  0.00    +0.049 A 
ATOM      6  C   UNL     1       0.527  -2.369   0.635  0.00  0.00    -0.001 A 
ATOM      7  C   UNL     1       1.314  -2.806   1.703  0.00  0.00    +0.035 A 
ATOM      8  C   UNL     1       1.264  -4.181   2.086  0.00  0.00    +0.040 A 
ATOM      9  C   UNL     1       1.983  -4.855   3.151  0.00  0.00    +0.054 A 
ATOM     10  C   UNL     1       1.769  -6.206   3.332  0.00  0.00    +0.097 A 
ATOM     11  S   UNL     1       0.584  -6.608   2.063  0.00  0.00    -0.062 S 
ATOM     12  C   UNL     1       0.400  -5.002   1.329  0.00  0.00    +0.112 A 
ATOM     13  N   UNL     1      -0.316  -4.536   0.330  0.00  0.00    -0.244 NA
ATOM     14  C   UNL     1       0.587  -0.911   0.256  0.00  0.00    +0.121 C 
ENDROOT
BRANCH   7  15
ATOM     15  C   UNL     1       2.184  -1.861   2.425  0.00  0.00    +0.136 A 
ATOM     16  C   UNL     1       1.766  -0.825   3.205  0.00  0.00    +0.050 A 
ATOM     17  C   UNL     1       2.925  -0.193   3.694  0.00  0.00    +0.042 A 
ATOM     18  C   UNL     1       3.982  -0.865   3.195  0.00  0.00    +0.196 A 
ATOM     19  O   UNL     1       3.531  -1.875   2.434  0.00  0.00    -0.463 OA
ENDBRANCH   7  15
BRANCH  10  20
ATOM     20  C   UNL     1       2.351  -7.066   4.295  0.00  0.00    +0.257 C 
ATOM     21  O   UNL     1       3.153  -6.626   5.099  0.00  0.00    -0.269 OA
ATOM     22  N   UNL     1       2.018  -8.372   4.321  0.00  0.00    -0.279 N 
ATOM     23  H   UNL     1       1.437  -8.738   3.635  0.00  0.00    +0.155 HD
BRANCH  22  24
ATOM     24  C   UNL     1       2.509  -9.200   5.337  0.00  0.00    +0.069 A 
ATOM     25  C   UNL     1       2.963  -8.646   6.527  0.00  0.00    +0.026 A 
ATOM     26  C   UNL     1       3.447  -9.465   7.528  0.00  0.00    +0.002 A 
ATOM     27  C   UNL     1       3.480 -10.836   7.348  0.00  0.00    +0.003 A 
ATOM     28  C   UNL     1       3.029 -11.392   6.165  0.00  0.00    +0.040 A 
ATOM     29  C   UNL     1       2.538 -10.579   5.160  0.00  0.00    +0.144 A 
ATOM     30  F   UNL     1       2.092 -11.122   4.007  0.00  0.00    -0.204 F 
ENDBRANCH  22  24
ENDBRANCH  10  20
BRANCH   9  31
ATOM     31  N   UNL     1       2.865  -4.159   3.967  0.00  0.00    -0.356 N 
ATOM     32  H   UNL     1       2.884  -3.189   3.944  0.00  0.00    +0.142 HD
ATOM     33  H   UNL     1       3.462  -4.642   4.559  0.00  0.00    +0.142 HD
ENDBRANCH   9  31
TORSDOF 4
