REMARK  Name = ZINC50351767
REMARK  8 active torsions:
REMARK  status: ('A' for Active; 'I' for Inactive)
REMARK    1  A    between atoms: C_1  and  C_2
REMARK    2  A    between atoms: C_2  and  C_3
REMARK    3  A    between atoms: C_3  and  C_4
REMARK    4  A    between atoms: C_3  and  C_5
REMARK    5  A    between atoms: C_3  and  N_9
REMARK    6  A    between atoms: N_6  and  O_7
REMARK    7  A    between atoms: N_9  and  S_10
REMARK    8  A    between atoms: S_10  and  C_13
REMARK                            x       y       z     vdW  Elec       q    Type
REMARK                         _______ _______ _______ _____ _____    ______ ____
ROOT
ATOM      1  N   UNL     1      -2.337   0.234   1.294  0.00  0.00    -0.181 NA
ATOM      2  H   UNL     1      -3.158   0.543   0.878  0.00  0.00    +0.149 HD
ENDROOT
BRANCH   1   3
ATOM      3  S   UNL     1      -2.187   0.250   2.943  0.00  0.00    +0.033 S 
ATOM      4  O   UNL     1      -3.513   0.416   3.426  0.00  0.00    -0.158 OA
ATOM      5  O   UNL     1      -1.446  -0.923   3.250  0.00  0.00    -0.158 OA
BRANCH   3   6
ATOM      6  C   UNL     1      -1.199   1.727   3.307  0.00  0.00    +0.151 C 
ATOM      7  C   UNL     1      -1.990   2.970   2.912  0.00  0.00    +0.050 C 
ATOM      8  C   UNL     1      -1.083   4.203   2.956  0.00  0.00    +0.168 C 
ATOM      9  S   UNL     1      -0.518   4.456   4.665  0.00  0.00    -0.031 S 
ATOM     10  O   UNL     1      -1.655   4.676   5.488  0.00  0.00    -0.174 OA
ATOM     11  O   UNL     1       0.529   5.416   4.657  0.00  0.00    -0.174 OA
ATOM     12  C   UNL     1       0.186   2.832   5.075  0.00  0.00    +0.168 C 
ATOM     13  C   UNL     1      -0.863   1.752   4.795  0.00  0.00    +0.050 C 
ENDBRANCH   3   6
ENDBRANCH   1   3
BRANCH   1  14
ATOM     14  C   UNL     1      -1.231  -0.246   0.462  0.00  0.00    +0.095 C 
ATOM     15  C   UNL     1      -1.021  -1.742   0.706  0.00  0.00    +0.037 C 
BRANCH  14  16
ATOM     16  C   UNL     1      -1.557  -0.015  -0.991  0.00  0.00    +0.153 C 
ATOM     17  N   UNL     1      -0.742   0.654  -1.738  0.00  0.00    -0.075 NA
ATOM     18  N   UNL     1      -2.725  -0.516  -1.523  0.00  0.00    -0.342 N 
ATOM     19  H   UNL     1      -3.337  -1.018  -0.962  0.00  0.00    +0.144 HD
ATOM     20  H   UNL     1      -2.935  -0.367  -2.458  0.00  0.00    +0.144 HD
BRANCH  17  21
ATOM     21  O   UNL     1      -1.049   0.871  -3.103  0.00  0.00    -0.408 OA
ATOM     22  H   UNL     1      -0.381   1.381  -3.580  0.00  0.00    +0.328 HD
ENDBRANCH  17  21
ENDBRANCH  14  16
BRANCH  14  24
ATOM     23  C   UNL     1      -0.147   2.004   0.537  0.00  0.00    +0.006 C 
ATOM     24  C   UNL     1       0.047   0.513   0.825  0.00  0.00    +0.028 C 
ENDBRANCH  14  24
ENDBRANCH   1  14
TORSDOF 6
