REMARK  Name = ZINC61270557
REMARK  9 active torsions:
REMARK  status: ('A' for Active; 'I' for Inactive)
REMARK    1  A    between atoms: C_1  and  C_2
REMARK    2  A    between atoms: C_2  and  N_3
REMARK    3  A    between atoms: N_3  and  C_4
REMARK    4  A    between atoms: C_4  and  C_6
REMARK    5  A    between atoms: C_4  and  C_7
REMARK    6  A    between atoms: C_7  and  C_8
REMARK    7  A    between atoms: N_10  and  C_11
REMARK    8  A    between atoms: C_16  and  O_17
REMARK    9  A    between atoms: O_17  and  C_18
REMARK                            x       y       z     vdW  Elec       q    Type
REMARK                         _______ _______ _______ _____ _____    ______ ____
ROOT
ATOM      1  C   UNL     1      -3.362  -2.118  -1.448  0.00  0.00    +0.216 C 
ATOM      2  O   UNL     1      -2.696  -1.471  -2.229  0.00  0.00    -0.276 OA
ATOM      3  N   UNL     1      -4.622  -2.471  -1.769  0.00  0.00    -0.283 N 
ATOM      4  H   UNL     1      -5.133  -3.042  -1.173  0.00  0.00    +0.155 HD
ENDROOT
BRANCH   3   5
ATOM      5  C   UNL     1      -5.196  -2.013  -2.962  0.00  0.00    +0.078 A 
ATOM      6  C   UNL     1      -4.410  -1.852  -4.094  0.00  0.00    +0.047 A 
ATOM      7  C   UNL     1      -4.978  -1.400  -5.271  0.00  0.00    +0.044 A 
ATOM      8  C   UNL     1      -6.330  -1.108  -5.323  0.00  0.00    +0.039 A 
ATOM      9  C   UNL     1      -7.119  -1.266  -4.198  0.00  0.00    +0.063 A 
ATOM     10  C   UNL     1      -6.557  -1.724  -3.017  0.00  0.00    +0.155 A 
ATOM     11 BR   UNL     1      -8.965  -0.865  -4.274  0.00  0.00    -0.046 Br
ATOM     12 CL   UNL     1      -3.993  -1.198  -6.687  0.00  0.00    -0.083 Cl
BRANCH  10  13
ATOM     13  O   UNL     1      -7.333  -1.886  -1.911  0.00  0.00    -0.492 OA
ATOM     14  C   UNL     1      -7.462  -0.761  -1.039  0.00  0.00    +0.277 C 
ENDBRANCH  10  13
ENDBRANCH   3   5
BRANCH   1  15
ATOM     15  C   UNL     1      -2.780  -2.526  -0.119  0.00  0.00    +0.080 C 
BRANCH  15  16
ATOM     16  C   UNL     1      -1.347  -2.002  -0.007  0.00  0.00    -0.066 C 
ATOM     17  C   UNL     1      -0.714  -2.521   1.285  0.00  0.00    -0.013 C 
BRANCH  16  18
ATOM     18  N   UNL     1      -1.362  -0.534   0.010  0.00  0.00    +0.381 N 
ATOM     19  H   UNL     1      -1.830  -0.212   0.844  0.00  0.00    -0.086 HD
ATOM     20  H   UNL     1      -1.853  -0.193  -0.803  0.00  0.00    -0.086 HD
BRANCH  18  22
ATOM     21  C   UNL     1       0.002   1.501   0.015  0.00  0.00    -0.017 C 
ATOM     22  C   UNL     1       0.018  -0.029  -0.004  0.00  0.00    -0.086 C 
ENDBRANCH  18  22
ENDBRANCH  16  18
ENDBRANCH  15  16
ENDBRANCH   1  15
TORSDOF 6
