REMARK  Name = ZINC05458499
REMARK  3 active torsions:
REMARK  status: ('A' for Active; 'I' for Inactive)
REMARK    1  A    between atoms: C_1  and  C_2
REMARK    2  A    between atoms: C_6  and  C_8
REMARK    3  A    between atoms: C_11  and  C_23
REMARK                            x       y       z     vdW  Elec       q    Type
REMARK                         _______ _______ _______ _____ _____    ______ ____
ROOT
ATOM      1  C   UNL     1       0.054  -2.845   2.489  0.00  0.00    +0.122 C 
ATOM      2  C   UNL     1      -1.182  -3.747   2.571  0.00  0.00    +0.057 C 
ATOM      3  C   UNL     1      -1.042  -4.710   3.755  0.00  0.00    +0.106 C 
ATOM      4  N   UNL     1       0.122  -5.583   3.515  0.00  0.00    -0.309 N 
ATOM      5  C   UNL     1       1.269  -4.967   3.038  0.00  0.00    +0.175 A 
ATOM      6  N   UNL     1       1.258  -3.677   2.555  0.00  0.00    -0.306 N 
ATOM      7  C   UNL     1       2.538  -3.375   2.178  0.00  0.00    +0.069 A 
ATOM      8  C   UNL     1       3.117  -2.236   1.632  0.00  0.00    +0.028 A 
ATOM      9  C   UNL     1       4.477  -2.284   1.369  0.00  0.00    +0.002 A 
ATOM     10  C   UNL     1       5.236  -3.411   1.633  0.00  0.00    +0.002 A 
ATOM     11  C   UNL     1       4.683  -4.557   2.175  0.00  0.00    +0.028 A 
ATOM     12  C   UNL     1       3.311  -4.531   2.450  0.00  0.00    +0.065 A 
ATOM     13  N   UNL     1       2.476  -5.461   2.968  0.00  0.00    -0.327 N 
ATOM     14  H   UNL     1       0.087  -6.538   3.682  0.00  0.00    +0.149 HD
ATOM     15  H   UNL     1       2.734  -6.353   3.248  0.00  0.00    +0.169 HD
ENDROOT
BRANCH   1  21
ATOM     16  C   UNL     1      -0.018   1.503   0.010  0.00  0.00    +0.044 C 
ATOM     17  C   UNL     1       0.002  -0.004   0.002  0.00  0.00    -0.050 A 
ATOM     18  C   UNL     1       0.006  -0.689  -1.199  0.00  0.00    +0.003 A 
ATOM     19  C   UNL     1       0.025  -2.071  -1.207  0.00  0.00    +0.001 A 
ATOM     20  C   UNL     1       0.040  -2.768  -0.013  0.00  0.00    +0.006 A 
ATOM     21  C   UNL     1       0.037  -2.084   1.188  0.00  0.00    -0.024 A 
ATOM     22  C   UNL     1       0.023  -0.702   1.195  0.00  0.00    +0.009 A 
ENDBRANCH   1  21
BRANCH   3  23
ATOM     23  C   UNL     1      -0.835  -3.924   5.024  0.00  0.00    -0.027 A 
ATOM     24  C   UNL     1       0.414  -3.417   5.328  0.00  0.00    +0.006 A 
ATOM     25  C   UNL     1       0.604  -2.696   6.492  0.00  0.00    +0.015 A 
ATOM     26  C   UNL     1      -0.457  -2.481   7.353  0.00  0.00    +0.018 A 
ATOM     27  C   UNL     1      -1.708  -2.988   7.049  0.00  0.00    +0.015 A 
ATOM     28  C   UNL     1      -1.897  -3.705   5.882  0.00  0.00    +0.006 A 
ATOM     29 BR   UNL     1      -0.198  -1.495   8.945  0.00  0.00    -0.050 Br
ENDBRANCH   3  23
TORSDOF 2
