REMARK  Name = ZINC06928897
REMARK  5 active torsions:
REMARK  status: ('A' for Active; 'I' for Inactive)
REMARK    1  A    between atoms: C_1  and  C_2
REMARK    2  A    between atoms: C_7  and  S_15
REMARK    3  A    between atoms: C_12  and  C_14
REMARK    4  A    between atoms: S_15  and  N_18
REMARK    5  A    between atoms: N_18  and  C_19
REMARK                            x       y       z     vdW  Elec       q    Type
REMARK                         _______ _______ _______ _____ _____    ______ ____
ROOT
ATOM      1  S   UNL     1      -1.445   1.754  -0.246  0.00  0.00    +0.059 S 
ATOM      2  O   UNL     1      -2.473   0.784  -0.097  0.00  0.00    -0.153 OA
ATOM      3  O   UNL     1      -1.399   2.941   0.534  0.00  0.00    -0.153 OA
ENDROOT
BRANCH   1   9
ATOM      4  C   UNL     1      -3.566   2.505  -7.284  0.00  0.00    +0.029 C 
ATOM      5  C   UNL     1      -2.254   2.101  -6.608  0.00  0.00    +0.083 C 
ATOM      6  C   UNL     1      -2.527   1.114  -5.461  0.00  0.00    +0.059 C 
ATOM      7  C   UNL     1      -2.019   1.819  -4.223  0.00  0.00    -0.022 A 
ATOM      8  C   UNL     1      -1.997   1.423  -2.900  0.00  0.00    +0.034 A 
ATOM      9  C   UNL     1      -1.471   2.260  -1.933  0.00  0.00    +0.106 A 
ATOM     10  C   UNL     1      -0.971   3.498  -2.293  0.00  0.00    +0.030 A 
ATOM     11  C   UNL     1      -0.985   3.894  -3.614  0.00  0.00    +0.026 A 
ATOM     12  C   UNL     1      -1.515   3.055  -4.595  0.00  0.00    +0.040 A 
ATOM     13  N   UNL     1      -1.629   3.265  -5.973  0.00  0.00    -0.268 N 
ATOM     14  C   UNL     1      -1.224   4.374  -6.622  0.00  0.00    +0.217 C 
ATOM     15  O   UNL     1      -1.368   4.461  -7.824  0.00  0.00    -0.276 OA
ATOM     16  C   UNL     1      -0.593   5.508  -5.855  0.00  0.00    +0.109 C 
ENDBRANCH   1   9
BRANCH   1  17
ATOM     17  N   UNL     1      -0.011   0.966   0.007  0.00  0.00    -0.183 NA
ATOM     18  H   UNL     1      -0.009   0.019   0.220  0.00  0.00    +0.149 HD
BRANCH  17  19
ATOM     19  C   UNL     1       1.254   1.697  -0.096  0.00  0.00    +0.107 C 
ATOM     20  C   UNL     1       2.054   1.154  -1.278  0.00  0.00    +0.025 C 
ATOM     21  C   UNL     1       3.456   1.775  -1.239  0.00  0.00    +0.007 C 
ATOM     22  C   UNL     1       4.209   1.189  -0.047  0.00  0.00    +0.035 C 
ATOM     23  C   UNL     1       3.386   1.304   1.209  0.00  0.00    -0.043 A 
ATOM     24  C   UNL     1       2.028   1.534   1.186  0.00  0.00    -0.026 A 
ATOM     25  C   UNL     1       1.326   1.623   2.381  0.00  0.00    +0.005 A 
ATOM     26  C   UNL     1       1.978   1.488   3.589  0.00  0.00    +0.000 A 
ATOM     27  C   UNL     1       3.341   1.261   3.612  0.00  0.00    +0.000 A 
ATOM     28  C   UNL     1       4.040   1.169   2.426  0.00  0.00    +0.004 A 
ENDBRANCH  17  19
ENDBRANCH   1  17
TORSDOF 3
