REMARK  Name = ZINC46973490
REMARK  6 active torsions:
REMARK  status: ('A' for Active; 'I' for Inactive)
REMARK    1  A    between atoms: C_1  and  C_2
REMARK    2  A    between atoms: C_2  and  C_4
REMARK    3  A    between atoms: C_2  and  N_10
REMARK    4  A    between atoms: N_13  and  N_14
REMARK    5  A    between atoms: C_15  and  C_17
REMARK    6  A    between atoms: N_21  and  C_22
REMARK                            x       y       z     vdW  Elec       q    Type
REMARK                         _______ _______ _______ _____ _____    ______ ____
ROOT
ATOM      1  N   UNL     1       0.540  -1.440   0.944  0.00  0.00    -0.293 N 
ATOM      2  C   UNL     1      -0.132  -1.658   2.091  0.00  0.00    +0.316 C 
ATOM      3  O   UNL     1      -1.347  -1.603   2.104  0.00  0.00    -0.251 OA
ATOM      4  N   UNL     1       0.542  -1.938   3.224  0.00  0.00    -0.218 N 
ATOM      5  H   UNL     1       1.509  -1.484   0.933  0.00  0.00    +0.151 HD
ATOM      6  H   UNL     1       0.059  -2.095   4.050  0.00  0.00    +0.174 HD
ENDROOT
BRANCH   4   7
ATOM      7  N   UNL     1       1.942  -2.001   3.209  0.00  0.00    -0.228 N 
ATOM      8  C   UNL     1       2.616  -2.281   4.342  0.00  0.00    +0.277 C 
ATOM      9  O   UNL     1       2.018  -2.376   5.398  0.00  0.00    -0.267 OA
ATOM     10  H   UNL     1       2.425  -1.844   2.383  0.00  0.00    +0.173 HD
BRANCH   8  11
ATOM     11  C   UNL     1       4.070  -2.469   4.302  0.00  0.00    +0.107 A 
ATOM     12  C   UNL     1       4.883  -2.309   3.200  0.00  0.00    +0.047 A 
ATOM     13  C   UNL     1       6.191  -2.588   3.610  0.00  0.00    +0.036 A 
ATOM     14  C   UNL     1       6.155  -2.906   4.926  0.00  0.00    +0.101 A 
ATOM     15  N   UNL     1       4.872  -2.833   5.360  0.00  0.00    -0.345 N 
ATOM     16  C   UNL     1       4.416  -3.099   6.726  0.00  0.00    +0.149 C 
ATOM     17 BR   UNL     1       7.735  -2.531   2.520  0.00  0.00    -0.049 Br
ENDBRANCH   8  11
ENDBRANCH   4   7
BRANCH   1  19
ATOM     18  C   UNL     1      -0.490   0.364  -0.348  0.00  0.00    +0.030 C 
ATOM     19  C   UNL     1      -0.193  -1.136  -0.288  0.00  0.00    +0.100 C 
BRANCH  19  20
ATOM     20  C   UNL     1       0.654  -1.537  -1.498  0.00  0.00    +0.138 C 
ATOM     21  C   UNL     1       0.962  -3.049  -1.443  0.00  0.00    +0.035 C 
ATOM     22  C   UNL     1       2.434  -3.103  -1.937  0.00  0.00    +0.031 C 
ATOM     23  C   UNL     1       2.987  -1.776  -1.359  0.00  0.00    +0.160 C 
ATOM     24  O   UNL     1       1.903  -0.837  -1.470  0.00  0.00    -0.375 OA
ENDBRANCH  19  20
ENDBRANCH   1  19
TORSDOF 4
