REMARK  Name = ZINC40799640
REMARK  4 active torsions:
REMARK  status: ('A' for Active; 'I' for Inactive)
REMARK    1  A    between atoms: C_5  and  N_7
REMARK    2  A    between atoms: C_14  and  N_30
REMARK    3  A    between atoms: C_15  and  S_19
REMARK    4  A    between atoms: S_19  and  C_20
REMARK                            x       y       z     vdW  Elec       q    Type
REMARK                         _______ _______ _______ _____ _____    ______ ____
ROOT
ATOM      1  N   UNL     1       0.453  -2.117   1.182  0.00  0.00    -0.325 N 
ATOM      2  C   UNL     1      -0.808  -2.865   1.285  0.00  0.00    +0.124 C 
ATOM      3  C   UNL     1      -0.913  -3.816   0.086  0.00  0.00    +0.125 C 
ATOM      4  N   UNL     1       0.347  -4.564  -0.032  0.00  0.00    -0.311 N 
ATOM      5  C   UNL     1       1.608  -3.816  -0.135  0.00  0.00    +0.125 C 
ATOM      6  C   UNL     1       1.712  -2.865   1.059  0.00  0.00    +0.124 C 
ATOM      7  C   UNL     1       0.346  -5.954  -0.045  0.00  0.00    +0.147 A 
ATOM      8  C   UNL     1       0.179  -6.651  -1.243  0.00  0.00    +0.098 A 
ATOM      9  C   UNL     1       0.187  -8.046  -1.200  0.00  0.00    +0.127 A 
ATOM     10  N   UNL     1       0.352  -8.655  -0.027  0.00  0.00    -0.227 NA
ATOM     11  C   UNL     1       0.506  -7.958   1.080  0.00  0.00    +0.224 A 
ATOM     12  N   UNL     1       0.510  -6.640   1.083  0.00  0.00    -0.219 NA
ENDROOT
BRANCH   1  17
ATOM     13  C   UNL     1       0.345   1.370   0.022  0.00  0.00    +0.002 A 
ATOM     14  C   UNL     1       0.456   2.049   1.222  0.00  0.00    +0.003 A 
ATOM     15  C   UNL     1       0.565   1.349   2.409  0.00  0.00    +0.040 A 
ATOM     16  C   UNL     1       0.564  -0.033   2.401  0.00  0.00    +0.144 A 
ATOM     17  C   UNL     1       0.453  -0.719   1.196  0.00  0.00    +0.065 A 
ATOM     18  C   UNL     1       0.344  -0.011   0.006  0.00  0.00    +0.026 A 
ATOM     19  F   UNL     1       0.671  -0.717   3.561  0.00  0.00    -0.204 F 
ENDBRANCH   1  17
BRANCH   8  20
ATOM     20  N   UNL     1       0.007  -5.968  -2.458  0.00  0.00    -0.353 N 
ATOM     21  H   UNL     1       0.094  -5.002  -2.487  0.00  0.00    +0.142 HD
ATOM     22  H   UNL     1      -0.198  -6.461  -3.267  0.00  0.00    +0.142 HD
ENDBRANCH   8  20
BRANCH   9  23
ATOM     23  S   UNL     1      -0.020  -8.988  -2.675  0.00  0.00    -0.066 S 
BRANCH  23  24
ATOM     24  C   UNL     1      -0.066 -10.657  -2.112  0.00  0.00    +0.040 A 
ATOM     25  C   UNL     1      -1.264 -11.336  -2.050  0.00  0.00    +0.017 A 
ATOM     26  C   UNL     1      -1.314 -12.654  -1.608  0.00  0.00    +0.002 A 
ATOM     27  C   UNL     1      -0.183 -13.309  -1.224  0.00  0.00    +0.010 A 
ATOM     28  C   UNL     1       1.057 -12.652  -1.273  0.00  0.00    +0.001 A 
ATOM     29  C   UNL     1       1.125 -11.312  -1.727  0.00  0.00    +0.085 A 
ATOM     30  N   UNL     1       2.303 -10.685  -1.779  0.00  0.00    -0.254 NA
ATOM     31  C   UNL     1       3.412 -11.287  -1.423  0.00  0.00    +0.111 A 
ATOM     32  C   UNL     1       3.418 -12.606  -0.973  0.00  0.00    +0.020 A 
ATOM     33  C   UNL     1       2.245 -13.300  -0.884  0.00  0.00    +0.011 A 
ENDBRANCH  23  24
ENDBRANCH   9  23
TORSDOF 4
