REMARK  Name = ZINC05380580
REMARK  7 active torsions:
REMARK  status: ('A' for Active; 'I' for Inactive)
REMARK    1  A    between atoms: C_1  and  C_2
REMARK    2  A    between atoms: C_5  and  C_8
REMARK    3  A    between atoms: N_10  and  N_11
REMARK    4  A    between atoms: C_12  and  C_13
REMARK    5  A    between atoms: C_15  and  O_21
REMARK    6  A    between atoms: C_16  and  O_20
REMARK    7  A    between atoms: O_21  and  C_22
REMARK                            x       y       z     vdW  Elec       q    Type
REMARK                         _______ _______ _______ _____ _____    ______ ____
ROOT
ATOM      1  N   UNL     1       2.456  -4.213  -0.043  0.00  0.00    -0.187 NA
ATOM      2  C   UNL     1       3.592  -4.840  -0.057  0.00  0.00    +0.138 C 
ENDROOT
BRANCH   2   3
ATOM      3  C   UNL     1       3.619  -6.314  -0.065  0.00  0.00    -0.001 A 
ATOM      4  C   UNL     1       4.842  -6.992  -0.086  0.00  0.00    +0.059 A 
ATOM      5  C   UNL     1       4.862  -8.374  -0.087  0.00  0.00    +0.163 A 
ATOM      6  C   UNL     1       3.667  -9.089  -0.079  0.00  0.00    +0.173 A 
ATOM      7  C   UNL     1       2.452  -8.417  -0.064  0.00  0.00    +0.063 A 
ATOM      8  C   UNL     1       2.424  -7.037  -0.057  0.00  0.00    +0.028 A 
ATOM      9 BR   UNL     1       0.833  -9.394  -0.053  0.00  0.00    -0.046 Br
BRANCH   6  10
ATOM     10  O   UNL     1       3.689 -10.448  -0.085  0.00  0.00    -0.503 OA
ATOM     11  H   UNL     1       3.687 -10.837  -0.970  0.00  0.00    +0.292 HD
ENDBRANCH   6  10
BRANCH   5  12
ATOM     12  O   UNL     1       6.050  -9.036  -0.101  0.00  0.00    -0.491 OA
ATOM     13  C   UNL     1       7.237  -8.240  -0.109  0.00  0.00    +0.277 C 
ENDBRANCH   5  12
ENDBRANCH   2   3
BRANCH   1  16
ATOM     14  C   UNL     1       1.250  -2.160  -0.021  0.00  0.00    +0.263 C 
ATOM     15  O   UNL     1       0.208  -2.788  -0.014  0.00  0.00    -0.268 OA
ATOM     16  N   UNL     1       2.429  -2.812  -0.036  0.00  0.00    -0.203 N 
ATOM     17  H   UNL     1       3.260  -2.311  -0.041  0.00  0.00    +0.178 HD
BRANCH  14  22
ATOM     18  C   UNL     1       1.142   3.593   0.010  0.00  0.00    +0.044 C 
ATOM     19  C   UNL     1       1.170   2.086   0.002  0.00  0.00    -0.050 A 
ATOM     20  C   UNL     1      -0.017   1.375   0.010  0.00  0.00    +0.004 A 
ATOM     21  C   UNL     1       0.002  -0.004   0.002  0.00  0.00    +0.013 A 
ATOM     22  C   UNL     1       1.222  -0.682  -0.013  0.00  0.00    +0.038 A 
ATOM     23  C   UNL     1       2.416   0.041  -0.021  0.00  0.00    +0.013 A 
ATOM     24  C   UNL     1       2.383   1.420  -0.013  0.00  0.00    +0.004 A 
ENDBRANCH  14  22
ENDBRANCH   1  16
TORSDOF 5
