REMARK  Name = ZINC42195381
REMARK  4 active torsions:
REMARK  status: ('A' for Active; 'I' for Inactive)
REMARK    1  A    between atoms: C_6  and  N_7
REMARK    2  A    between atoms: C_9  and  S_11
REMARK    3  A    between atoms: S_11  and  C_13
REMARK    4  A    between atoms: C_13  and  C_14
REMARK                            x       y       z     vdW  Elec       q    Type
REMARK                         _______ _______ _______ _____ _____    ______ ____
ROOT
ATOM      1  C   UNL     1      -0.017   1.389   0.010  0.00  0.00    +0.025 A 
ATOM      2  C   UNL     1       1.151   2.098   0.002  0.00  0.00    +0.033 A 
ATOM      3  C   UNL     1       2.374   1.426  -0.013  0.00  0.00    +0.111 A 
ATOM      4  C   UNL     1       2.398   0.022  -0.021  0.00  0.00    +0.158 A 
ATOM      5  C   UNL     1       1.208  -0.687  -0.013  0.00  0.00    +0.071 A 
ATOM      6  C   UNL     1       0.002  -0.004   0.002  0.00  0.00    +0.028 A 
ATOM      7  O   UNL     1       3.702  -0.333  -0.035  0.00  0.00    -0.429 OA
ATOM      8  C   UNL     1       4.441   0.788  -0.037  0.00  0.00    +0.289 A 
ATOM      9  N   UNL     1       3.673   1.835  -0.024  0.00  0.00    -0.201 NA
ENDROOT
BRANCH   6  10
ATOM     10  N   UNL     1      -1.201  -0.716   0.010  0.00  0.00    -0.358 N 
ATOM     11  H   UNL     1      -2.046  -0.240   0.021  0.00  0.00    +0.142 HD
ATOM     12  H   UNL     1      -1.190  -1.686   0.005  0.00  0.00    +0.142 HD
ENDBRANCH   6  10
BRANCH   8  13
ATOM     13  S   UNL     1       6.203   0.833  -0.054  0.00  0.00    +0.113 S 
ATOM     14  O   UNL     1       6.572  -0.409  -0.638  0.00  0.00    -0.247 OA
BRANCH  13  15
ATOM     15  C   UNL     1       6.659   0.834   1.702  0.00  0.00    +0.150 C 
BRANCH  15  16
ATOM     16  C   UNL     1       8.160   0.871   1.831  0.00  0.00    -0.016 A 
ATOM     17  C   UNL     1       8.879  -0.309   1.878  0.00  0.00    +0.007 A 
ATOM     18  C   UNL     1      10.255  -0.276   1.996  0.00  0.00    +0.020 A 
ATOM     19  C   UNL     1      10.915   0.939   2.067  0.00  0.00    +0.042 A 
ATOM     20  C   UNL     1      10.196   2.120   2.020  0.00  0.00    +0.040 A 
ATOM     21  C   UNL     1       8.818   2.086   1.897  0.00  0.00    +0.046 A 
ATOM     22 CL   UNL     1       7.916   3.567   1.831  0.00  0.00    -0.083 Cl
ATOM     23 CL   UNL     1      12.644   0.980   2.217  0.00  0.00    -0.083 Cl
ENDBRANCH  15  16
ENDBRANCH  13  15
ENDBRANCH   8  13
TORSDOF 4
