REMARK  Name = ZINC20842363
REMARK  9 active torsions:
REMARK  status: ('A' for Active; 'I' for Inactive)
REMARK    1  A    between atoms: C_1  and  C_2
REMARK    2  A    between atoms: C_5  and  S_8
REMARK    3  A    between atoms: N_6  and  N_7
REMARK    4  A    between atoms: S_8  and  C_9
REMARK    5  A    between atoms: C_9  and  C_10
REMARK    6  A    between atoms: N_12  and  C_13
REMARK    7  A    between atoms: C_18  and  S_19
REMARK    8  A    between atoms: S_19  and  C_20
REMARK    9  A    between atoms: C_20  and  C_21
REMARK                            x       y       z     vdW  Elec       q    Type
REMARK                         _______ _______ _______ _____ _____    ______ ____
ROOT
ATOM      1  C   UNL     1       0.610   7.753   0.621  0.00  0.00    +0.228 C 
ATOM      2  O   UNL     1       1.684   7.962   1.144  0.00  0.00    -0.275 OA
ATOM      3  N   UNL     1      -0.070   8.768   0.050  0.00  0.00    -0.284 N 
ATOM      4  H   UNL     1      -1.008   8.566  -0.489  0.00  0.00    +0.155 HD
ENDROOT
BRANCH   3   5
ATOM      5  C   UNL     1       0.418  10.078   0.142  0.00  0.00    +0.047 A 
ATOM      6  C   UNL     1       1.784  10.314   0.131  0.00  0.00    +0.024 A 
ATOM      7  C   UNL     1       2.263  11.608   0.217  0.00  0.00    +0.002 A 
ATOM      8  C   UNL     1       1.383  12.670   0.325  0.00  0.00    +0.001 A 
ATOM      9  C   UNL     1       0.020  12.444   0.344  0.00  0.00    +0.016 A 
ATOM     10  C   UNL     1      -0.470  11.149   0.253  0.00  0.00    +0.029 A 
BRANCH  10  11
ATOM     11  S   UNL     1      -2.207  10.857   0.277  0.00  0.00    -0.119 S 
BRANCH  11  12
ATOM     12  C   UNL     1      -2.928  12.515   0.429  0.00  0.00    +0.111 C 
BRANCH  12  13
ATOM     13  C   UNL     1      -4.431  12.408   0.462  0.00  0.00    -0.019 A 
ATOM     14  C   UNL     1      -5.153  12.461  -0.716  0.00  0.00    +0.006 A 
ATOM     15  C   UNL     1      -6.531  12.359  -0.686  0.00  0.00    +0.000 A 
ATOM     16  C   UNL     1      -7.189  12.213   0.521  0.00  0.00    +0.001 A 
ATOM     17  C   UNL     1      -6.468  12.166   1.699  0.00  0.00    +0.020 A 
ATOM     18  C   UNL     1      -5.088  12.263   1.670  0.00  0.00    +0.045 A 
ATOM     19 CL   UNL     1      -4.183  12.204   3.150  0.00  0.00    -0.083 Cl
ENDBRANCH  12  13
ENDBRANCH  11  12
ENDBRANCH  10  11
ENDBRANCH   3   5
BRANCH   1  20
ATOM     20  C   UNL     1       0.036   6.360   0.609  0.00  0.00    +0.173 C 
BRANCH  20  21
ATOM     21  S   UNL     1       1.176   5.231   1.446  0.00  0.00    -0.075 S 
BRANCH  21  26
ATOM     22  C   UNL     1      -0.380   0.155   1.685  0.00  0.00    +0.090 C 
ATOM     23  C   UNL     1      -0.334   1.634   1.401  0.00  0.00    +0.148 A 
ATOM     24  N   UNL     1      -1.240   2.328   0.771  0.00  0.00    -0.132 NA
ATOM     25  N   UNL     1      -0.885   3.562   0.707  0.00  0.00    -0.121 NA
ATOM     26  C   UNL     1       0.281   3.721   1.289  0.00  0.00    +0.209 A 
ATOM     27  N   UNL     1       0.669   2.496   1.750  0.00  0.00    -0.228 N 
BRANCH  27  28
ATOM     28  N   UNL     1       1.819   2.193   2.421  0.00  0.00    -0.295 N 
ATOM     29  H   UNL     1       2.551   2.984   2.643  0.00  0.00    +0.163 HD
ATOM     30  H   UNL     1       2.014   1.159   2.741  0.00  0.00    +0.163 HD
ENDBRANCH  27  28
ENDBRANCH  21  26
ENDBRANCH  20  21
ENDBRANCH   1  20
TORSDOF 8
