REMARK  Name = ZINC32282158
REMARK  4 active torsions:
REMARK  status: ('A' for Active; 'I' for Inactive)
REMARK    1  A    between atoms: C_1  and  C_2
REMARK    2  A    between atoms: C_2  and  C_4
REMARK    3  A    between atoms: C_2  and  N_15
REMARK    4  A    between atoms: C_16  and  C_18
REMARK                            x       y       z     vdW  Elec       q    Type
REMARK                         _______ _______ _______ _____ _____    ______ ____
ROOT
ATOM      1  N   UNL     1       1.996   6.744  -3.456  0.00  0.00    -0.308 N 
ATOM      2  C   UNL     1       2.733   7.872  -3.465  0.00  0.00    +0.218 C 
ATOM      3  O   UNL     1       2.281   8.897  -3.001  0.00  0.00    -0.275 OA
ATOM      4  H   UNL     1       2.406   5.815  -3.878  0.00  0.00    +0.149 HD
ENDROOT
BRANCH   2   5
ATOM      5  C   UNL     1       4.121   7.860  -4.053  0.00  0.00    +0.092 C 
ATOM      6  C   UNL     1       4.736   9.257  -3.939  0.00  0.00    +0.016 C 
ATOM      7  C   UNL     1       6.157   9.238  -4.506  0.00  0.00    +0.020 C 
ATOM      8  C   UNL     1       6.107   8.852  -5.988  0.00  0.00    +0.109 C 
ATOM      9  N   UNL     1       5.387   7.577  -6.120  0.00  0.00    -0.285 N 
ATOM     10  C   UNL     1       4.047   7.458  -5.530  0.00  0.00    +0.122 C 
ATOM     11  C   UNL     1       5.946   6.537  -6.770  0.00  0.00    +0.300 C 
ATOM     12  O   UNL     1       5.383   5.460  -6.791  0.00  0.00    -0.253 OA
ATOM     13  N   UNL     1       7.130   6.691  -7.396  0.00  0.00    -0.313 N 
ATOM     14  H   UNL     1       7.586   5.843  -7.926  0.00  0.00    +0.146 HD
ATOM     15  H   UNL     1       7.639   7.666  -7.377  0.00  0.00    +0.146 HD
ENDBRANCH   2   5
BRANCH   1  17
ATOM     16  C   UNL     1      -0.352   7.226  -3.944  0.00  0.00    +0.033 C 
ATOM     17  C   UNL     1       0.647   6.756  -2.884  0.00  0.00    +0.100 C 
BRANCH  17  18
ATOM     18  C   UNL     1       0.281   5.366  -2.431  0.00  0.00    -0.024 A 
ATOM     19  C   UNL     1       0.637   4.274  -3.201  0.00  0.00    +0.009 A 
ATOM     20  C   UNL     1       0.305   2.995  -2.791  0.00  0.00    +0.050 A 
ATOM     21  C   UNL     1      -0.385   2.812  -1.605  0.00  0.00    +0.162 A 
ATOM     22  C   UNL     1      -0.742   3.908  -0.832  0.00  0.00    +0.162 A 
ATOM     23  C   UNL     1      -0.408   5.186  -1.245  0.00  0.00    +0.055 A 
ATOM     24  O   UNL     1      -1.423   3.717   0.335  0.00  0.00    -0.488 OA
ATOM     25  C   UNL     1      -0.694   3.080   1.387  0.00  0.00    +0.232 C 
ATOM     26  C   UNL     1      -0.746   1.567   1.238  0.00  0.00    +0.082 C 
ATOM     27  C   UNL     1      -0.044   1.085  -0.021  0.00  0.00    +0.232 C 
ATOM     28  O   UNL     1      -0.719   1.556  -1.189  0.00  0.00    -0.488 OA
ENDBRANCH  17  18
ENDBRANCH   1  17
TORSDOF 3
