REMARK  Name = ZINC41307918
REMARK  5 active torsions:
REMARK  status: ('A' for Active; 'I' for Inactive)
REMARK    1  A    between atoms: C_1  and  C_2
REMARK    2  A    between atoms: C_9  and  C_11
REMARK    3  A    between atoms: N_13  and  C_14
REMARK    4  A    between atoms: C_15  and  C_23
REMARK    5  A    between atoms: N_25  and  C_26
REMARK                            x       y       z     vdW  Elec       q    Type
REMARK                         _______ _______ _______ _____ _____    ______ ____
ROOT
ATOM      1  C   UNL     1       0.092  -5.622   2.221  0.00  0.00    +0.284 C 
ATOM      2  O   UNL     1       0.099  -5.699   3.435  0.00  0.00    -0.266 OA
ATOM      3  N   UNL     1       0.104  -6.744   1.474  0.00  0.00    -0.273 N 
ATOM      4  H   UNL     1       0.098  -6.683   0.506  0.00  0.00    +0.156 HD
ENDROOT
BRANCH   1  13
ATOM      5  C   UNL     1      -0.018   1.503   0.010  0.00  0.00    +0.044 C 
ATOM      6  C   UNL     1       0.002  -0.004   0.002  0.00  0.00    -0.050 A 
ATOM      7  C   UNL     1       0.006  -0.687  -1.207  0.00  0.00    +0.007 A 
ATOM      8  C   UNL     1       0.025  -2.064  -1.238  0.00  0.00    +0.047 A 
ATOM      9  C   UNL     1       0.041  -2.783  -0.048  0.00  0.00    +0.136 A 
ATOM     10  C   UNL     1       0.037  -2.086   1.175  0.00  0.00    +0.021 A 
ATOM     11  C   UNL     1       0.023  -0.689   1.184  0.00  0.00    +0.015 A 
ATOM     12  C   UNL     1       0.056  -3.112   2.216  0.00  0.00    +0.063 A 
ATOM     13  C   UNL     1       0.070  -4.306   1.568  0.00  0.00    +0.191 A 
ATOM     14  O   UNL     1       0.060  -4.100   0.235  0.00  0.00    -0.450 OA
ENDBRANCH   1  13
BRANCH   3  15
ATOM     15  C   UNL     1       0.125  -7.985   2.090  0.00  0.00    +0.085 A 
ATOM     16  C   UNL     1       0.145  -9.234   1.489  0.00  0.00    +0.069 A 
ATOM     17  C   UNL     1       0.164 -10.392   2.365  0.00  0.00    -0.023 A 
ATOM     18  C   UNL     1       0.160 -10.089   3.681  0.00  0.00    -0.004 A 
ATOM     19  S   UNL     1       0.139  -8.321   3.735  0.00  0.00    -0.077 S 
ATOM     20  C   UNL     1       0.175 -11.054   4.826  0.00  0.00    +0.043 C 
ATOM     21  C   UNL     1      -0.184 -12.447   4.288  0.00  0.00    +0.005 C 
ATOM     22  C   UNL     1       0.656 -12.727   3.039  0.00  0.00    +0.005 C 
ATOM     23  C   UNL     1       0.189 -11.836   1.886  0.00  0.00    +0.037 C 
BRANCH  16  24
ATOM     24  C   UNL     1       0.146  -9.380   0.030  0.00  0.00    +0.246 C 
ATOM     25  O   UNL     1       1.200  -9.424  -0.577  0.00  0.00    -0.270 OA
ATOM     26  N   UNL     1      -1.021  -9.466  -0.640  0.00  0.00    -0.314 N 
ATOM     27  C   UNL     1      -1.020  -9.612  -2.097  0.00  0.00    +0.128 C 
ATOM     28  H   UNL     1      -1.861  -9.431  -0.156  0.00  0.00    +0.149 HD
ENDBRANCH  16  24
ENDBRANCH   3  15
TORSDOF 3
