REMARK  Name = ZINC62826135
REMARK  5 active torsions:
REMARK  status: ('A' for Active; 'I' for Inactive)
REMARK    1  A    between atoms: C_1  and  C_2
REMARK    2  A    between atoms: C_4  and  C_22
REMARK    3  A    between atoms: C_5  and  N_11
REMARK    4  A    between atoms: C_6  and  C_8
REMARK    5  A    between atoms: C_18  and  N_21
REMARK                            x       y       z     vdW  Elec       q    Type
REMARK                         _______ _______ _______ _____ _____    ______ ____
ROOT
ATOM      1  N   UNL     1      -0.197  -4.181  -0.268  0.00  0.00    -0.268 N 
ATOM      2  C   UNL     1      -0.120  -4.920   0.856  0.00  0.00    +0.306 C 
ATOM      3  O   UNL     1       0.113  -4.384   1.922  0.00  0.00    -0.252 OA
ATOM      4  N   UNL     1      -0.300  -6.255   0.798  0.00  0.00    -0.287 N 
ATOM      5  C   UNL     1      -0.467  -6.933  -0.494  0.00  0.00    +0.109 C 
ATOM      6  C   UNL     1      -1.754  -7.763  -0.453  0.00  0.00    +0.017 C 
ATOM      7  C   UNL     1      -1.709  -8.707   0.750  0.00  0.00    -0.013 C 
ATOM      8  C   UNL     1      -1.621  -7.888   2.040  0.00  0.00    -0.057 C 
ATOM      9  C   UNL     1      -0.327  -7.060   2.027  0.00  0.00    +0.093 C 
ATOM     10  H   UNL     1      -0.302  -4.616  -1.129  0.00  0.00    +0.156 HD
ENDROOT
BRANCH   1  15
ATOM     11  C   UNL     1       0.105   1.480   0.037  0.00  0.00    +0.044 C 
ATOM     12  C   UNL     1       0.016  -0.022  -0.048  0.00  0.00    -0.049 A 
ATOM     13  C   UNL     1       1.049  -0.803   0.447  0.00  0.00    +0.008 A 
ATOM     14  C   UNL     1       0.981  -2.180   0.375  0.00  0.00    -0.028 A 
ATOM     15  C   UNL     1      -0.127  -2.793  -0.194  0.00  0.00    +0.052 A 
ATOM     16  C   UNL     1      -1.176  -2.005  -0.696  0.00  0.00    +0.085 A 
ATOM     17  C   UNL     1      -1.093  -0.612  -0.611  0.00  0.00    +0.020 A 
ATOM     18  C   UNL     1       2.110  -3.018   0.916  0.00  0.00    +0.046 C 
BRANCH  16  19
ATOM     19  C   UNL     1      -2.355  -2.642  -1.303  0.00  0.00    +0.388 C 
ATOM     20  O   UNL     1      -3.220  -1.954  -1.828  0.00  0.00    -0.241 OA
ATOM     21  O   UNL     1      -2.471  -3.860  -1.283  0.00  0.00    -0.241 OA
ENDBRANCH  16  19
ENDBRANCH   1  15
BRANCH   8  22
ATOM     22  N   UNL     1      -1.611  -8.794   3.196  0.00  0.00    +0.381 N 
ATOM     23  H   UNL     1      -0.814  -9.410   3.134  0.00  0.00    -0.090 HD
ATOM     24  H   UNL     1      -1.553  -8.254   4.047  0.00  0.00    -0.090 HD
ATOM     25  H   UNL     1      -2.458  -9.341   3.203  0.00  0.00    -0.090 HD
ENDBRANCH   8  22
TORSDOF 3
