REMARK  Name = ZINC35458393
REMARK  12 active torsions:
REMARK  status: ('A' for Active; 'I' for Inactive)
REMARK    1  A    between atoms: C_1  and  C_2
REMARK    2  A    between atoms: C_2  and  C_4
REMARK    3  A    between atoms: C_6  and  O_35
REMARK    4  A    between atoms: C_9  and  C_34
REMARK    5  A    between atoms: C_10  and  C_33
REMARK    6  A    between atoms: C_14  and  C_32
REMARK    7  A    between atoms: C_19  and  C_26
REMARK    8  A    between atoms: C_20  and  C_22
REMARK    9  A    between atoms: C_22  and  C_23
REMARK   10  A    between atoms: C_26  and  C_27
REMARK   11  A    between atoms: C_26  and  C_28
REMARK   12  A    between atoms: C_26  and  C_29
REMARK                            x       y       z     vdW  Elec       q    Type
REMARK                         _______ _______ _______ _____ _____    ______ ____
ROOT
ATOM      1  C   UNL     1       1.338  -5.318  -6.019  0.00  0.00    +0.090 C 
ATOM      2  C   UNL     1       1.410  -3.858  -5.510  0.00  0.00    +0.126 C 
ATOM      3  C   UNL     1       0.744  -3.851  -4.103  0.00  0.00    +0.039 C 
ATOM      4  C   UNL     1       0.964  -5.300  -3.636  0.00  0.00    -0.019 C 
ATOM      5  C   UNL     1       0.610  -6.090  -4.907  0.00  0.00    -0.008 C 
ATOM      6  C   UNL     1       0.923  -7.550  -4.736  0.00  0.00    +0.083 C 
ATOM      7  C   UNL     1       0.473  -8.054  -3.370  0.00  0.00    +0.141 C 
ATOM      8  O   UNL     1       0.722  -9.214  -3.069  0.00  0.00    -0.297 OA
ATOM      9  C   UNL     1      -0.287  -7.173  -2.422  0.00  0.00    +0.037 C 
ATOM     10  C   UNL     1       0.257  -5.751  -2.409  0.00  0.00    +0.013 C 
ATOM     11  C   UNL     1      -0.759  -4.814  -1.774  0.00  0.00    +0.032 C 
ATOM     12  C   UNL     1      -1.089  -5.399  -0.418  0.00  0.00    -0.026 C 
ATOM     13  C   UNL     1      -0.835  -6.626  -0.080  0.00  0.00    -0.053 C 
ATOM     14  C   UNL     1      -0.203  -7.669  -0.965  0.00  0.00    +0.040 C 
ATOM     15  C   UNL     1      -1.787  -7.236  -2.756  0.00  0.00    +0.020 C 
ATOM     16  C   UNL     1      -0.881  -5.917  -5.275  0.00  0.00    +0.013 C 
ATOM     17  C   UNL     1       2.473  -5.449  -3.322  0.00  0.00    +0.012 C 
ENDROOT
BRANCH   1  19
ATOM     18  C   UNL     1       3.227  -5.620  -7.774  0.00  0.00    +0.086 C 
ATOM     19  C   UNL     1       2.672  -5.867  -6.395  0.00  0.00    +0.136 C 
ATOM     20  O   UNL     1       3.308  -6.510  -5.594  0.00  0.00    -0.297 OA
ENDBRANCH   1  19
BRANCH  13  21
ATOM     21  C   UNL     1      -1.205  -7.044   1.323  0.00  0.00    +0.088 C 
ATOM     22  C   UNL     1      -1.677  -5.820   2.111  0.00  0.00    +0.027 C 
ATOM     23  C   UNL     1      -2.330  -8.079   1.267  0.00  0.00    +0.027 C 
BRANCH  21  24
ATOM     24  C   UNL     1      -0.002  -7.645   2.002  0.00  0.00    +0.365 C 
ATOM     25  O   UNL     1      -0.149  -8.491   2.868  0.00  0.00    -0.245 OA
ATOM     26  O   UNL     1       1.120  -7.285   1.686  0.00  0.00    -0.245 OA
ENDBRANCH  21  24
ENDBRANCH  13  21
BRANCH   2  27
ATOM     27  O   UNL     1       2.758  -3.405  -5.440  0.00  0.00    -0.391 OA
ATOM     28  H   UNL     1       2.852  -2.496  -5.125  0.00  0.00    +0.210 HD
ENDBRANCH   2  27
BRANCH  14  29
ATOM     29  C   UNL     1       1.230  -7.940  -0.532  0.00  0.00    +0.134 C 
BRANCH  29  30
ATOM     30  C   UNL     1       1.233  -8.942   0.594  0.00  0.00    +0.357 C 
ATOM     31  O   UNL     1       0.243  -9.620   0.809  0.00  0.00    -0.246 OA
ATOM     32  O   UNL     1       2.226  -9.075   1.289  0.00  0.00    -0.246 OA
ENDBRANCH  29  30
ENDBRANCH  14  29
TORSDOF 6
