REMARK  Name = ZINC39678554
REMARK  8 active torsions:
REMARK  status: ('A' for Active; 'I' for Inactive)
REMARK    1  A    between atoms: C_1  and  C_2
REMARK    2  A    between atoms: C_4  and  C_11
REMARK    3  A    between atoms: C_5  and  C_7
REMARK    4  A    between atoms: C_15  and  C_24
REMARK    5  A    between atoms: N_26  and  C_27
REMARK    6  A    between atoms: C_27  and  C_28
REMARK    7  A    between atoms: C_32  and  O_34
REMARK    8  A    between atoms: O_34  and  C_35
REMARK                            x       y       z     vdW  Elec       q    Type
REMARK                         _______ _______ _______ _____ _____    ______ ____
ROOT
ATOM      1  C   UNL     1      -1.363  -3.415  -0.013  0.00  0.00    +0.250 C 
ATOM      2  O   UNL     1      -0.806  -4.491  -0.120  0.00  0.00    -0.270 OA
ATOM      3  N   UNL     1      -2.705  -3.359   0.097  0.00  0.00    -0.296 N 
ATOM      4  C   UNL     1      -3.565  -2.152   0.117  0.00  0.00    +0.121 C 
ATOM      5  C   UNL     1      -4.807  -2.543  -0.714  0.00  0.00    +0.100 C 
ATOM      6  C   UNL     1      -4.862  -4.079  -0.640  0.00  0.00    -0.004 C 
ATOM      7  C   UNL     1      -3.655  -4.490   0.216  0.00  0.00    +0.115 C 
ATOM      8  C   UNL     1      -4.740  -4.680  -2.037  0.00  0.00    -0.010 C 
ATOM      9  C   UNL     1      -4.854  -6.204  -1.942  0.00  0.00    -0.082 C 
ATOM     10  N   UNL     1      -6.145  -6.564  -1.344  0.00  0.00    +0.379 N 
ATOM     11  C   UNL     1      -6.216  -6.060   0.033  0.00  0.00    -0.082 C 
ATOM     12  C   UNL     1      -6.160  -4.530   0.023  0.00  0.00    -0.010 C 
ATOM     13  H   UNL     1      -6.891  -6.158  -1.888  0.00  0.00    -0.086 HD
ATOM     14  H   UNL     1      -6.243  -7.568  -1.339  0.00  0.00    -0.086 HD
ENDROOT
BRANCH   1  18
ATOM     15  C   UNL     1       0.160   1.387   0.798  0.00  0.00    +0.086 C 
ATOM     16  C   UNL     1       0.083  -0.055   0.365  0.00  0.00    +0.103 A 
ATOM     17  C   UNL     1      -0.942  -0.886   0.606  0.00  0.00    +0.058 A 
ATOM     18  C   UNL     1      -0.570  -2.172  -0.002  0.00  0.00    +0.087 A 
ATOM     19  C   UNL     1       0.661  -1.976  -0.554  0.00  0.00    +0.220 A 
ATOM     20  O   UNL     1       1.028  -0.710  -0.329  0.00  0.00    -0.455 OA
BRANCH  19  21
ATOM     21  C   UNL     1       1.470  -3.008  -1.297  0.00  0.00    +0.451 C 
ATOM     22  F   UNL     1       1.153  -2.956  -2.659  0.00  0.00    -0.163 F 
ATOM     23  F   UNL     1       2.833  -2.745  -1.125  0.00  0.00    -0.163 F 
ATOM     24  F   UNL     1       1.173  -4.280  -0.798  0.00  0.00    -0.163 F 
ENDBRANCH  19  21
ENDBRANCH   1  18
BRANCH   5  25
ATOM     25  C   UNL     1      -6.052  -1.942  -0.113  0.00  0.00    +0.218 C 
ATOM     26  O   UNL     1      -6.083  -1.666   1.067  0.00  0.00    -0.275 OA
ATOM     27  N   UNL     1      -7.130  -1.712  -0.888  0.00  0.00    -0.311 N 
ATOM     28  H   UNL     1      -7.106  -1.932  -1.832  0.00  0.00    +0.149 HD
BRANCH  27  29
ATOM     29  C   UNL     1      -8.340  -1.127  -0.304  0.00  0.00    +0.139 C 
BRANCH  29  30
ATOM     30  C   UNL     1      -9.390  -0.973  -1.373  0.00  0.00    -0.027 A 
ATOM     31  C   UNL     1      -9.457   0.193  -2.114  0.00  0.00    +0.005 A 
ATOM     32  C   UNL     1     -10.419   0.338  -3.096  0.00  0.00    +0.004 A 
ATOM     33  C   UNL     1     -11.318  -0.683  -3.339  0.00  0.00    +0.046 A 
ATOM     34  C   UNL     1     -11.253  -1.854  -2.598  0.00  0.00    +0.127 A 
ATOM     35  C   UNL     1     -10.282  -1.999  -1.617  0.00  0.00    +0.051 A 
BRANCH  34  36
ATOM     36  O   UNL     1     -12.136  -2.860  -2.836  0.00  0.00    -0.434 OA
BRANCH  36  37
ATOM     37  C   UNL     1     -13.104  -2.643  -3.865  0.00  0.00    +0.541 C 
ATOM     38  F   UNL     1     -13.884  -1.527  -3.544  0.00  0.00    -0.166 F 
ATOM     39  F   UNL     1     -12.450  -2.421  -5.081  0.00  0.00    -0.166 F 
ENDBRANCH  36  37
ENDBRANCH  34  36
ENDBRANCH  29  30
ENDBRANCH  27  29
ENDBRANCH   5  25
TORSDOF 7
