REMARK  Name = ZINC63572907
REMARK  6 active torsions:
REMARK  status: ('A' for Active; 'I' for Inactive)
REMARK    1  A    between atoms: C_1  and  C_2
REMARK    2  A    between atoms: C_5  and  C_8
REMARK    3  A    between atoms: N_26  and  C_27
REMARK    4  A    between atoms: C_29  and  C_35
REMARK    5  A    between atoms: C_32  and  O_33
REMARK    6  A    between atoms: O_33  and  C_34
REMARK                            x       y       z     vdW  Elec       q    Type
REMARK                         _______ _______ _______ _____ _____    ______ ____
ROOT
ATOM      1  C   UNL     1       0.612  -3.501   0.168  0.00  0.00    +0.134 C 
ATOM      2  C   UNL     1      -0.859  -3.926   0.104  0.00  0.00    +0.131 C 
ATOM      3  C   UNL     1      -1.330  -4.080   1.544  0.00  0.00    -0.035 C 
ATOM      4  C   UNL     1      -2.387  -3.288   1.680  0.00  0.00    +0.001 A 
ATOM      5  C   UNL     1      -3.304  -3.063   2.809  0.00  0.00    +0.030 A 
ATOM      6  C   UNL     1      -4.295  -2.154   2.605  0.00  0.00    +0.042 A 
ATOM      7  C   UNL     1      -4.463  -1.455   1.404  0.00  0.00    +0.022 A 
ATOM      8  C   UNL     1      -3.670  -1.603   0.314  0.00  0.00    +0.027 A 
ATOM      9  C   UNL     1      -2.595  -2.535   0.405  0.00  0.00    +0.043 A 
ATOM     10  N   UNL     1      -1.699  -2.890  -0.499  0.00  0.00    -0.375 N 
ATOM     11 CL   UNL     1      -5.408  -1.845   3.901  0.00  0.00    -0.084 Cl
ATOM     12  C   UNL     1      -0.599  -4.936   2.549  0.00  0.00    +0.052 C 
ATOM     13  C   UNL     1       0.882  -4.518   2.493  0.00  0.00    +0.114 C 
ATOM     14  N   UNL     1       1.306  -4.411   1.092  0.00  0.00    -0.276 N 
ATOM     15  C   UNL     1       2.339  -5.154   0.648  0.00  0.00    +0.307 C 
ATOM     16  O   UNL     1       2.754  -5.002  -0.485  0.00  0.00    -0.252 OA
ATOM     17  N   UNL     1       2.912  -6.065   1.459  0.00  0.00    -0.266 N 
ATOM     18  H   UNL     1       2.540  -6.233   2.339  0.00  0.00    +0.156 HD
ATOM     19  H   UNL     1      -1.603  -2.532  -1.396  0.00  0.00    +0.160 HD
ENDROOT
BRANCH   1  24
ATOM     20  C   UNL     1       0.995   1.929   2.107  0.00  0.00    +0.044 C 
ATOM     21  C   UNL     1       0.896   0.513   1.602  0.00  0.00    -0.050 A 
ATOM     22  C   UNL     1       1.393   0.188   0.353  0.00  0.00    +0.004 A 
ATOM     23  C   UNL     1       1.302  -1.111  -0.111  0.00  0.00    +0.006 A 
ATOM     24  C   UNL     1       0.713  -2.085   0.674  0.00  0.00    -0.025 A 
ATOM     25  C   UNL     1       0.216  -1.761   1.922  0.00  0.00    +0.006 A 
ATOM     26  C   UNL     1       0.311  -0.463   2.388  0.00  0.00    +0.004 A 
ENDBRANCH   1  24
BRANCH  17  27
ATOM     27  C   UNL     1       4.045  -6.770   1.031  0.00  0.00    +0.077 A 
ATOM     28  C   UNL     1       4.251  -7.001  -0.321  0.00  0.00    +0.030 A 
ATOM     29  C   UNL     1       5.369  -7.697  -0.740  0.00  0.00    -0.048 A 
ATOM     30  C   UNL     1       6.285  -8.163   0.185  0.00  0.00    +0.007 A 
ATOM     31  C   UNL     1       6.086  -7.937   1.534  0.00  0.00    +0.048 A 
ATOM     32  C   UNL     1       4.971  -7.236   1.962  0.00  0.00    +0.141 A 
ATOM     33  C   UNL     1       5.591  -7.947  -2.210  0.00  0.00    +0.044 C 
BRANCH  32  34
ATOM     34  O   UNL     1       4.777  -7.007   3.289  0.00  0.00    -0.493 OA
ATOM     35  C   UNL     1       5.768  -7.513   4.186  0.00  0.00    +0.277 C 
ENDBRANCH  32  34
ENDBRANCH  17  27
TORSDOF 3
