REMARK  Name = ZINC35731035
REMARK  2 active torsions:
REMARK  status: ('A' for Active; 'I' for Inactive)
REMARK    1  A    between atoms: C_8  and  N_18
REMARK    2  A    between atoms: C_10  and  C_12
REMARK                            x       y       z     vdW  Elec       q    Type
REMARK                         _______ _______ _______ _____ _____    ______ ____
ROOT
ATOM      1  C   UNL     1      -0.017   1.382   0.010  0.00  0.00    +0.039 A 
ATOM      2  C   UNL     1       1.192   2.061   0.002  0.00  0.00    +0.116 A 
ATOM      3  N   UNL     1       2.320   1.369  -0.013  0.00  0.00    -0.219 NA
ATOM      4  C   UNL     1       2.302   0.046  -0.020  0.00  0.00    +0.253 A 
ATOM      5  N   UNL     1       1.165  -0.633  -0.013  0.00  0.00    -0.219 NA
ATOM      6  C   UNL     1       0.002  -0.004   0.002  0.00  0.00    +0.116 A 
ATOM      7  N   UNL     1       3.509  -0.650  -0.035  0.00  0.00    -0.184 N 
ATOM      8  C   UNL     1       3.652  -2.006  -0.049  0.00  0.00    +0.124 A 
ATOM      9  C   UNL     1       4.982  -2.281  -0.061  0.00  0.00    +0.076 A 
ATOM     10  C   UNL     1       5.676  -1.053  -0.054  0.00  0.00    +0.130 A 
ATOM     11  N   UNL     1       4.787  -0.079  -0.045  0.00  0.00    -0.159 NA
ENDROOT
BRANCH  10  12
ATOM     12  C   UNL     1       7.144  -0.887  -0.063  0.00  0.00    +0.156 A 
ATOM     13  C   UNL     1       7.813   0.297  -0.051  0.00  0.00    +0.052 A 
ATOM     14  C   UNL     1       9.188  -0.013  -0.066  0.00  0.00    +0.057 A 
ATOM     15  C   UNL     1       9.289  -1.358  -0.086  0.00  0.00    +0.171 A 
ATOM     16  O   UNL     1       8.052  -1.882  -0.079  0.00  0.00    -0.447 OA
ATOM     17 BR   UNL     1      10.903  -2.342  -0.113  0.00  0.00    -0.008 Br
ENDBRANCH  10  12
BRANCH   8  18
ATOM     18  N   UNL     1       2.621  -2.940  -0.050  0.00  0.00    -0.343 N 
ATOM     19  H   UNL     1       1.698  -2.643  -0.040  0.00  0.00    +0.144 HD
ATOM     20  H   UNL     1       2.826  -3.888  -0.061  0.00  0.00    +0.144 HD
ENDBRANCH   8  18
TORSDOF 2
