REMARK  Name = ZINC36937834
REMARK  5 active torsions:
REMARK  status: ('A' for Active; 'I' for Inactive)
REMARK    1  A    between atoms: C_1  and  C_2
REMARK    2  A    between atoms: C_3  and  C_7
REMARK    3  A    between atoms: C_8  and  C_14
REMARK    4  A    between atoms: C_9  and  N_13
REMARK    5  A    between atoms: N_10  and  C_12
REMARK                            x       y       z     vdW  Elec       q    Type
REMARK                         _______ _______ _______ _____ _____    ______ ____
ROOT
ATOM      1  C   UNL     1      -2.513  -0.395   0.012  0.00  0.00    +0.106 A 
ATOM      2  C   UNL     1      -3.634  -1.262   0.018  0.00  0.00    +0.050 A 
ATOM      3  C   UNL     1      -4.765  -0.468   0.027  0.00  0.00    +0.123 A 
ATOM      4  N   UNL     1      -4.353   0.825   0.026  0.00  0.00    -0.253 N 
ATOM      5  N   UNL     1      -2.954   0.842   0.022  0.00  0.00    -0.169 NA
ATOM      6  C   UNL     1      -5.224   2.003   0.033  0.00  0.00    +0.174 C 
ENDROOT
BRANCH   2   7
ATOM      7  C   UNL     1      -3.599  -2.744   0.016  0.00  0.00    +0.006 A 
ATOM      8  C   UNL     1      -3.581  -3.446   1.221  0.00  0.00    +0.011 A 
ATOM      9  C   UNL     1      -3.549  -4.825   1.213  0.00  0.00    +0.021 A 
ATOM     10  C   UNL     1      -3.535  -5.513   0.011  0.00  0.00    +0.042 A 
ATOM     11  C   UNL     1      -3.553  -4.822  -1.188  0.00  0.00    +0.040 A 
ATOM     12  C   UNL     1      -3.591  -3.442  -1.192  0.00  0.00    +0.050 A 
ATOM     13 CL   UNL     1      -3.621  -2.577  -2.697  0.00  0.00    -0.083 Cl
ATOM     14 CL   UNL     1      -3.494  -7.249   0.009  0.00  0.00    -0.083 Cl
ENDBRANCH   2   7
BRANCH   1  17
ATOM     15  C   UNL     1      -0.018   1.503   0.010  0.00  0.00    +0.087 C 
ATOM     16  C   UNL     1       0.002  -0.004   0.002  0.00  0.00    +0.111 A 
ATOM     17  C   UNL     1      -1.089  -0.813   0.003  0.00  0.00    +0.043 A 
ATOM     18  C   UNL     1      -0.569  -2.184  -0.008  0.00  0.00    +0.051 A 
ATOM     19  C   UNL     1       0.770  -2.074  -0.014  0.00  0.00    +0.196 A 
ATOM     20  O   UNL     1       1.101  -0.773  -0.013  0.00  0.00    -0.467 OA
ENDBRANCH   1  17
BRANCH   3  21
ATOM     21  N   UNL     1      -6.081  -0.912   0.034  0.00  0.00    -0.343 N 
ATOM     22  H   UNL     1      -6.272  -1.863   0.034  0.00  0.00    +0.144 HD
ATOM     23  H   UNL     1      -6.809  -0.271   0.040  0.00  0.00    +0.144 HD
ENDBRANCH   3  21
TORSDOF 3
