REMARK  Name = ZINC53631511
REMARK  7 active torsions:
REMARK  status: ('A' for Active; 'I' for Inactive)
REMARK    1  A    between atoms: C_1  and  C_2
REMARK    2  A    between atoms: C_5  and  C_7
REMARK    3  A    between atoms: C_7  and  N_8
REMARK    4  A    between atoms: C_9  and  C_11
REMARK    5  A    between atoms: C_11  and  N_12
REMARK    6  A    between atoms: C_15  and  C_19
REMARK    7  A    between atoms: C_15  and  C_20
REMARK                            x       y       z     vdW  Elec       q    Type
REMARK                         _______ _______ _______ _____ _____    ______ ____
ROOT
ATOM      1  N   UNL     1       2.373  -7.577  -3.102  0.00  0.00    -0.215 N 
ATOM      2  C   UNL     1       3.684  -7.889  -3.105  0.00  0.00    +0.254 C 
ATOM      3  O   UNL     1       4.620  -7.118  -3.099  0.00  0.00    -0.272 OA
ATOM      4  C   UNL     1       3.745  -9.403  -3.115  0.00  0.00    +0.168 C 
ATOM      5  N   UNL     1       2.329  -9.807  -3.118  0.00  0.00    -0.279 N 
ATOM      6  C   UNL     1       1.605  -8.673  -3.105  0.00  0.00    +0.310 C 
ATOM      7  O   UNL     1       0.390  -8.647  -3.099  0.00  0.00    -0.252 OA
ATOM      8  C   UNL     1       4.450  -9.905  -4.378  0.00  0.00    +0.050 C 
ATOM      9  H   UNL     1       1.985 -10.714  -3.125  0.00  0.00    +0.152 HD
ENDROOT
BRANCH   4  10
ATOM     10  C   UNL     1       4.441  -9.914  -1.880  0.00  0.00    +0.138 A 
ATOM     11  C   UNL     1       4.192 -11.092  -1.292  0.00  0.00    +0.056 A 
ATOM     12  C   UNL     1       5.092 -11.170  -0.135  0.00  0.00    +0.020 A 
ATOM     13  C   UNL     1       5.320 -12.119   0.861  0.00  0.00    +0.011 A 
ATOM     14  C   UNL     1       6.259 -11.877   1.825  0.00  0.00    +0.001 A 
ATOM     15  C   UNL     1       6.985 -10.695   1.818  0.00  0.00    +0.004 A 
ATOM     16  C   UNL     1       6.774  -9.745   0.841  0.00  0.00    +0.047 A 
ATOM     17  C   UNL     1       5.824  -9.971  -0.148  0.00  0.00    +0.135 A 
ATOM     18  O   UNL     1       5.404  -9.257  -1.211  0.00  0.00    -0.457 OA
ENDBRANCH   4  10
BRANCH   1  19
ATOM     19  C   UNL     1       1.852  -6.208  -3.092  0.00  0.00    +0.213 C 
BRANCH  19  21
ATOM     20  N   UNL     1       1.210  -4.510  -1.412  0.00  0.00    -0.309 N 
ATOM     21  C   UNL     1       1.680  -5.747  -1.667  0.00  0.00    +0.231 C 
ATOM     22  O   UNL     1       1.964  -6.489  -0.751  0.00  0.00    -0.274 OA
ATOM     23  H   UNL     1       0.983  -3.917  -2.144  0.00  0.00    +0.149 HD
BRANCH  20  24
ATOM     24  C   UNL     1       1.043  -4.062  -0.027  0.00  0.00    +0.146 C 
BRANCH  24  29
ATOM     25  C   UNL     1      -0.018   1.503   0.010  0.00  0.00    +0.051 C 
ATOM     26  C   UNL     1       0.002  -0.004   0.002  0.00  0.00    -0.013 A 
ATOM     27  C   UNL     1      -1.039  -0.872   0.002  0.00  0.00    +0.011 A 
ATOM     28  C   UNL     1      -0.780  -2.230  -0.007  0.00  0.00    +0.013 A 
ATOM     29  C   UNL     1       0.507  -2.653  -0.016  0.00  0.00    +0.007 A 
ATOM     30  S   UNL     1       1.404  -1.109  -0.018  0.00  0.00    -0.097 S 
ENDBRANCH  24  29
ENDBRANCH  20  24
ENDBRANCH  19  21
ENDBRANCH   1  19
TORSDOF 5
