REMARK  Name = ZINC55586864
REMARK  9 active torsions:
REMARK  status: ('A' for Active; 'I' for Inactive)
REMARK    1  A    between atoms: C_1  and  N_2
REMARK    2  A    between atoms: C_4  and  S_7
REMARK    3  A    between atoms: S_7  and  N_10
REMARK    4  A    between atoms: N_10  and  C_11
REMARK    5  A    between atoms: C_13  and  O_26
REMARK    6  A    between atoms: C_14  and  O_24
REMARK    7  A    between atoms: C_16  and  C_17
REMARK    8  A    between atoms: O_24  and  C_25
REMARK    9  A    between atoms: O_26  and  C_27
REMARK                            x       y       z     vdW  Elec       q    Type
REMARK                         _______ _______ _______ _____ _____    ______ ____
ROOT
ATOM      1  C   UNL     1       1.981  -4.794  -3.131  0.00  0.00    +0.090 A 
ATOM      2  C   UNL     1       0.975  -5.571  -3.686  0.00  0.00    +0.076 A 
ATOM      3  C   UNL     1       1.262  -6.839  -4.164  0.00  0.00    +0.163 A 
ATOM      4  C   UNL     1       2.562  -7.342  -4.090  0.00  0.00    +0.162 A 
ATOM      5  C   UNL     1       3.571  -6.579  -3.541  0.00  0.00    +0.064 A 
ATOM      6  C   UNL     1       3.291  -5.294  -3.060  0.00  0.00    +0.065 A 
ENDROOT
BRANCH   6   7
ATOM      7  C   UNL     1       4.365  -4.473  -2.478  0.00  0.00    +0.249 C 
ATOM      8  O   UNL     1       4.496  -3.312  -2.818  0.00  0.00    -0.270 OA
ATOM      9  N   UNL     1       5.204  -5.007  -1.568  0.00  0.00    -0.297 N 
ATOM     10  C   UNL     1       5.228  -6.415  -1.148  0.00  0.00    +0.108 C 
ATOM     11  C   UNL     1       6.329  -6.555  -0.076  0.00  0.00    +0.020 C 
ATOM     12  C   UNL     1       6.481  -5.106   0.457  0.00  0.00    +0.020 C 
ATOM     13  C   UNL     1       6.253  -4.276  -0.834  0.00  0.00    +0.108 C 
ENDBRANCH   6   7
BRANCH   4  14
ATOM     14  O   UNL     1       2.836  -8.589  -4.560  0.00  0.00    -0.491 OA
ATOM     15  C   UNL     1       4.187  -9.041  -4.454  0.00  0.00    +0.277 C 
ENDBRANCH   4  14
BRANCH   3  16
ATOM     16  O   UNL     1       0.274  -7.597  -4.706  0.00  0.00    -0.491 OA
ATOM     17  C   UNL     1      -1.034  -7.023  -4.750  0.00  0.00    +0.277 C 
ENDBRANCH   3  16
BRANCH   1  18
ATOM     18  N   UNL     1       1.694  -3.520  -2.651  0.00  0.00    -0.097 NA
BRANCH  18  19
ATOM     19  S   UNL     1       0.148  -2.933  -2.736  0.00  0.00    +0.095 S 
ATOM     20  O   UNL     1      -0.640  -3.737  -1.869  0.00  0.00    -0.148 OA
ATOM     21  O   UNL     1      -0.153  -2.780  -4.116  0.00  0.00    -0.148 OA
BRANCH  19  25
ATOM     22  C   UNL     1       0.500   2.276  -2.132  0.00  0.00    +0.172 C 
ATOM     23  N   UNL     1       0.320   0.854  -1.830  0.00  0.00    -0.273 N 
ATOM     24  C   UNL     1       0.390  -0.161  -2.716  0.00  0.00    +0.136 A 
ATOM     25  C   UNL     1       0.167  -1.313  -2.042  0.00  0.00    +0.148 A 
ATOM     26  C   UNL     1      -0.046  -0.991  -0.698  0.00  0.00    +0.163 A 
ATOM     27  N   UNL     1       0.052   0.307  -0.568  0.00  0.00    -0.178 NA
ENDBRANCH  19  25
ENDBRANCH  18  19
ENDBRANCH   1  18
TORSDOF 6
