REMARK  Name = ZINC63085004
REMARK  10 active torsions:
REMARK  status: ('A' for Active; 'I' for Inactive)
REMARK    1  A    between atoms: C_1  and  C_2
REMARK    2  A    between atoms: C_2  and  C_4
REMARK    3  A    between atoms: C_2  and  N_7
REMARK    4  A    between atoms: C_4  and  C_5
REMARK    5  A    between atoms: N_7  and  C_8
REMARK    6  A    between atoms: N_7  and  C_9
REMARK    7  A    between atoms: C_9  and  C_11
REMARK    8  A    between atoms: C_9  and  C_12
REMARK    9  A    between atoms: N_14  and  C_15
REMARK   10  A    between atoms: C_20  and  N_21
REMARK                            x       y       z     vdW  Elec       q    Type
REMARK                         _______ _______ _______ _____ _____    ______ ____
ROOT
ATOM      1  C   UNL     1      -2.439  -2.438  -0.216  0.00  0.00    +0.203 C 
ATOM      2  O   UNL     1      -3.407  -1.731  -0.401  0.00  0.00    -0.277 OA
ATOM      3  N   UNL     1      -2.571  -3.779  -0.234  0.00  0.00    -0.285 N 
ATOM      4  H   UNL     1      -1.808  -4.344  -0.034  0.00  0.00    +0.155 HD
ENDROOT
BRANCH   3   5
ATOM      5  C   UNL     1      -3.810  -4.357  -0.542  0.00  0.00    +0.054 A 
ATOM      6  C   UNL     1      -4.985  -3.690  -0.231  0.00  0.00    +0.026 A 
ATOM      7  C   UNL     1      -6.206  -4.262  -0.535  0.00  0.00    +0.022 A 
ATOM      8  C   UNL     1      -6.261  -5.500  -1.150  0.00  0.00    +0.043 A 
ATOM      9  C   UNL     1      -5.093  -6.173  -1.463  0.00  0.00    +0.044 A 
ATOM     10  C   UNL     1      -3.864  -5.603  -1.167  0.00  0.00    +0.047 A 
ATOM     11 CL   UNL     1      -7.798  -6.212  -1.528  0.00  0.00    -0.083 Cl
BRANCH  10  12
ATOM     12  N   UNL     1      -2.682  -6.278  -1.488  0.00  0.00    -0.356 N 
ATOM     13  H   UNL     1      -1.823  -5.880  -1.276  0.00  0.00    +0.142 HD
ATOM     14  H   UNL     1      -2.721  -7.145  -1.923  0.00  0.00    +0.142 HD
ENDBRANCH  10  12
ENDBRANCH   3   5
BRANCH   1  15
ATOM     15  C   UNL     1      -1.089  -1.817   0.035  0.00  0.00    +0.016 C 
ATOM     16  C   UNL     1      -0.880  -1.641   1.541  0.00  0.00    -0.004 C 
BRANCH  15  17
ATOM     17  N   UNL     1      -1.023  -0.505  -0.624  0.00  0.00    +0.388 N 
ATOM     18  C   UNL     1      -1.097  -0.685  -2.080  0.00  0.00    -0.095 C 
ATOM     19  H   UNL     1      -1.796   0.065  -0.316  0.00  0.00    -0.081 HD
BRANCH  17  21
ATOM     20  C   UNL     1       1.413  -0.673  -0.810  0.00  0.00    -0.012 C 
ATOM     21  C   UNL     1       0.242   0.155  -0.276  0.00  0.00    -0.057 C 
BRANCH  21  22
ATOM     22  C   UNL     1       0.278   1.551  -0.900  0.00  0.00    +0.103 C 
BRANCH  22  23
ATOM     23  C   UNL     1      -0.800   2.373  -0.326  0.00  0.00    +0.061 C 
ATOM     24  N   UNL     1      -1.632   3.007   0.117  0.00  0.00    -0.197 NA
ENDBRANCH  22  23
ENDBRANCH  21  22
ENDBRANCH  17  21
ENDBRANCH  15  17
ENDBRANCH   1  15
TORSDOF 7
