REMARK  Name = ZINC18196967
REMARK  4 active torsions:
REMARK  status: ('A' for Active; 'I' for Inactive)
REMARK    1  A    between atoms: C_4  and  O_30
REMARK    2  A    between atoms: C_5  and  C_7
REMARK    3  A    between atoms: C_14  and  O_15
REMARK    4  A    between atoms: C_22  and  C_25
REMARK                            x       y       z     vdW  Elec       q    Type
REMARK                         _______ _______ _______ _____ _____    ______ ____
ROOT
ATOM      1  C   UNL     1       2.499   1.470  -0.020  0.00  0.00    +0.096 C 
ATOM      2  C   UNL     1       1.143   2.115   0.003  0.00  0.00    +0.067 A 
ATOM      3  C   UNL     1      -0.017   1.385   0.010  0.00  0.00    +0.126 A 
ATOM      4  N   UNL     1      -1.047   2.252   0.030  0.00  0.00    -0.260 N 
ATOM      5  H   UNL     1      -2.018   2.013   0.041  0.00  0.00    +0.190 HD
ATOM      6  N   UNL     1      -0.514   3.551   0.032  0.00  0.00    -0.134 NA
ATOM      7  C   UNL     1       0.798   3.463   0.018  0.00  0.00    +0.237 A 
ATOM      8  N   UNL     1       0.002  -0.004   0.002  0.00  0.00    -0.303 N 
ATOM      9  C   UNL     1       1.180  -0.644   0.294  0.00  0.00    +0.017 C 
ATOM     10  C   UNL     1       2.368  -0.002   0.308  0.00  0.00    +0.024 C 
ATOM     11  C   UNL     1       3.553  -0.684   0.640  0.00  0.00    +0.162 C 
ATOM     12  O   UNL     1       4.606  -0.078   0.637  0.00  0.00    -0.292 OA
ATOM     13  C   UNL     1       3.547  -2.143   0.999  0.00  0.00    +0.088 C 
ATOM     14  C   UNL     1       2.186  -2.501   1.606  0.00  0.00    +0.039 C 
ATOM     15  C   UNL     1       1.097  -2.122   0.601  0.00  0.00    +0.060 C 
ATOM     16  H   UNL     1      -0.799  -0.510  -0.205  0.00  0.00    +0.153 HD
ENDROOT
BRANCH   1  21
ATOM     17  C   UNL     1       3.024   1.235  -3.751  0.00  0.00    +0.001 A 
ATOM     18  C   UNL     1       4.219   1.911  -3.909  0.00  0.00    +0.004 A 
ATOM     19  C   UNL     1       4.862   2.446  -2.809  0.00  0.00    +0.046 A 
ATOM     20  C   UNL     1       4.306   2.304  -1.546  0.00  0.00    +0.121 A 
ATOM     21  C   UNL     1       3.106   1.626  -1.391  0.00  0.00    +0.006 A 
ATOM     22  C   UNL     1       2.470   1.088  -2.493  0.00  0.00    +0.008 A 
BRANCH  20  23
ATOM     23  O   UNL     1       4.935   2.830  -0.462  0.00  0.00    -0.506 OA
ATOM     24  H   UNL     1       5.560   2.225  -0.038  0.00  0.00    +0.292 HD
ENDBRANCH  20  23
ENDBRANCH   1  21
BRANCH  14  25
ATOM     25  C   UNL     1       2.128  -3.981   1.885  0.00  0.00    -0.006 A 
ATOM     26  C   UNL     1       1.941  -4.620   3.066  0.00  0.00    +0.011 A 
ATOM     27  C   UNL     1       1.922  -6.002   3.084  0.00  0.00    +0.008 A 
ATOM     28  C   UNL     1       2.092  -6.677   1.921  0.00  0.00    +0.045 A 
ATOM     29  S   UNL     1       2.279  -5.347   0.746  0.00  0.00    -0.101 S 
ENDBRANCH  14  25
BRANCH   7  30
ATOM     30  O   UNL     1       1.667   4.509   0.018  0.00  0.00    -0.491 OA
ATOM     31  H   UNL     1       1.156   5.368   0.031  0.00  0.00    +0.294 HD
ENDBRANCH   7  30
TORSDOF 4
