REMARK  Name = ZINC37129929
REMARK  3 active torsions:
REMARK  status: ('A' for Active; 'I' for Inactive)
REMARK    1  A    between atoms: C_3  and  C_9
REMARK    2  A    between atoms: C_9  and  N_10
REMARK    3  A    between atoms: N_10  and  C_11
REMARK                            x       y       z     vdW  Elec       q    Type
REMARK                         _______ _______ _______ _____ _____    ______ ____
ROOT
ATOM      1  N   UNL     1       4.287   2.123   1.305  0.00  0.00    -0.340 N 
ATOM      2  H   UNL     1       3.851   1.632   2.019  0.00  0.00    +0.146 HD
ENDROOT
BRANCH   1   3
ATOM      3  C   UNL     1       5.504   2.770   1.543  0.00  0.00    +0.030 A 
ATOM      4  C   UNL     1       6.126   3.478   0.521  0.00  0.00    +0.026 A 
ATOM      5  C   UNL     1       7.328   4.119   0.750  0.00  0.00    +0.050 A 
ATOM      6  C   UNL     1       7.918   4.057   2.002  0.00  0.00    +0.157 A 
ATOM      7  C   UNL     1       7.296   3.348   3.029  0.00  0.00    +0.089 A 
ATOM      8  C   UNL     1       6.087   2.710   2.800  0.00  0.00    +0.052 A 
ATOM      9  N   UNL     1       8.117   3.467   4.150  0.00  0.00    -0.288 N 
ATOM     10  H   UNL     1       7.953   3.081   5.025  0.00  0.00    +0.172 HD
ATOM     11  C   UNL     1       9.180   4.217   3.797  0.00  0.00    +0.419 A 
ATOM     12  O   UNL     1      10.100   4.522   4.531  0.00  0.00    -0.223 OA
ATOM     13  O   UNL     1       9.066   4.574   2.508  0.00  0.00    -0.408 OA
ENDBRANCH   1   3
BRANCH   1  14
ATOM     14  C   UNL     1       3.671   2.186  -0.023  0.00  0.00    +0.138 C 
BRANCH  14  17
ATOM     15  C   UNL     1      -0.017   1.378   0.010  0.00  0.00    +0.002 A 
ATOM     16  C   UNL     1       1.171   2.086   0.002  0.00  0.00    +0.007 A 
ATOM     17  C   UNL     1       2.378   1.413  -0.013  0.00  0.00    -0.011 A 
ATOM     18  C   UNL     1       2.398   0.030  -0.021  0.00  0.00    +0.064 A 
ATOM     19  C   UNL     1       1.209  -0.679  -0.013  0.00  0.00    +0.060 A 
ATOM     20  C   UNL     1       0.002  -0.004   0.002  0.00  0.00    +0.021 A 
ATOM     21 CL   UNL     1       1.234  -2.415  -0.023  0.00  0.00    -0.082 Cl
ATOM     22 CL   UNL     1       3.914  -0.816  -0.041  0.00  0.00    -0.082 Cl
ENDBRANCH  14  17
ENDBRANCH   1  14
TORSDOF 3
