REMARK  Name = ZINC62720754
REMARK  4 active torsions:
REMARK  status: ('A' for Active; 'I' for Inactive)
REMARK    1  A    between atoms: C_1  and  C_2
REMARK    2  A    between atoms: C_2  and  C_3
REMARK    3  A    between atoms: C_2  and  C_4
REMARK    4  A    between atoms: C_7  and  C_11
REMARK                            x       y       z     vdW  Elec       q    Type
REMARK                         _______ _______ _______ _____ _____    ______ ____
ROOT
ATOM      1  C   UNL     1       0.707  -0.490  -1.238  0.00  0.00    +0.049 A 
ATOM      2  C   UNL     1       1.844  -1.278  -1.109  0.00  0.00    -0.022 A 
ATOM      3  C   UNL     1       2.482  -1.721  -2.244  0.00  0.00    -0.027 A 
ATOM      4  C   UNL     1       1.958  -1.351  -3.493  0.00  0.00    +0.077 A 
ATOM      5  C   UNL     1       0.811  -0.556  -3.537  0.00  0.00    +0.142 A 
ATOM      6  N   UNL     1       0.230  -0.163  -2.421  0.00  0.00    -0.239 NA
ATOM      7 CL   UNL     1       0.144  -0.087  -5.070  0.00  0.00    -0.061 Cl
ATOM      8  C   UNL     1       3.709  -2.589  -2.205  0.00  0.00    +0.036 C 
ATOM      9  C   UNL     1       4.362  -2.530  -0.825  0.00  0.00    +0.005 C 
ATOM     10  C   UNL     1       3.287  -2.803   0.233  0.00  0.00    +0.005 C 
ATOM     11  C   UNL     1       2.333  -1.610   0.275  0.00  0.00    +0.037 C 
ENDROOT
BRANCH   4  12
ATOM     12  C   UNL     1       2.610  -1.797  -4.742  0.00  0.00    +0.245 C 
ATOM     13  O   UNL     1       2.278  -2.846  -5.260  0.00  0.00    -0.270 OA
ATOM     14  N   UNL     1       3.572  -1.041  -5.306  0.00  0.00    -0.325 N 
ATOM     15  H   UNL     1       3.837  -0.205  -4.893  0.00  0.00    +0.145 HD
ATOM     16  H   UNL     1       4.000  -1.334  -6.126  0.00  0.00    +0.145 HD
ENDBRANCH   4  12
BRANCH   1  18
ATOM     17  C   UNL     1      -0.019   1.526   0.010  0.00  0.00    +0.014 C 
ATOM     18  C   UNL     1       0.002  -0.004   0.002  0.00  0.00    +0.032 C 
ATOM     19  C   UNL     1      -1.433  -0.534   0.013  0.00  0.00    +0.014 C 
ENDBRANCH   1  18
TORSDOF 2
