REMARK  Name = ZINC52306373
REMARK  6 active torsions:
REMARK  status: ('A' for Active; 'I' for Inactive)
REMARK    1  A    between atoms: C_1  and  C_2
REMARK    2  A    between atoms: C_2  and  C_3
REMARK    3  A    between atoms: C_2  and  N_4
REMARK    4  A    between atoms: C_5  and  S_13
REMARK    5  A    between atoms: C_7  and  C_9
REMARK    6  A    between atoms: S_13  and  N_16
REMARK                            x       y       z     vdW  Elec       q    Type
REMARK                         _______ _______ _______ _____ _____    ______ ____
ROOT
ATOM      1  N   UNL     1      -1.372  -0.511   0.012  0.00  0.00    -0.243 N 
ATOM      2  C   UNL     1      -1.936  -1.297  -0.929  0.00  0.00    +0.193 A 
ATOM      3  C   UNL     1      -3.212  -1.543  -0.551  0.00  0.00    +0.082 A 
ATOM      4  C   UNL     1      -3.436  -0.884   0.662  0.00  0.00    +0.167 A 
ATOM      5  N   UNL     1      -2.332  -0.271   1.004  0.00  0.00    -0.165 NA
ENDROOT
BRANCH   4   6
ATOM      6  C   UNL     1      -4.724  -0.887   1.444  0.00  0.00    +0.436 C 
ATOM      7  F   UNL     1      -4.722  -1.960   2.342  0.00  0.00    -0.164 F 
ATOM      8  F   UNL     1      -4.842   0.313   2.153  0.00  0.00    -0.164 F 
ATOM      9  F   UNL     1      -5.803  -1.018   0.565  0.00  0.00    -0.164 F 
ENDBRANCH   4   6
BRANCH   1  11
ATOM     10  C   UNL     1      -0.019   1.526   0.010  0.00  0.00    +0.032 C 
ATOM     11  C   UNL     1       0.002  -0.004   0.002  0.00  0.00    +0.103 C 
ATOM     12  C   UNL     1       0.742  -0.511   1.242  0.00  0.00    +0.032 C 
ENDBRANCH   1  11
BRANCH   2  13
ATOM     13  S   UNL     1      -1.151  -1.896  -2.388  0.00  0.00    +0.073 S 
ATOM     14  O   UNL     1      -1.504  -1.002  -3.435  0.00  0.00    -0.152 OA
ATOM     15  O   UNL     1       0.201  -2.166  -2.041  0.00  0.00    -0.152 OA
BRANCH  13  16
ATOM     16  N   UNL     1      -1.846  -3.353  -2.756  0.00  0.00    -0.202 NA
ATOM     17  H   UNL     1      -2.550  -3.710  -2.192  0.00  0.00    +0.144 HD
ATOM     18  H   UNL     1      -1.548  -3.850  -3.534  0.00  0.00    +0.144 HD
ENDBRANCH  13  16
ENDBRANCH   2  13
TORSDOF 4
