REMARK  Name = ZINC04175951
REMARK  4 active torsions:
REMARK  status: ('A' for Active; 'I' for Inactive)
REMARK    1  A    between atoms: C_1  and  C_2
REMARK    2  A    between atoms: C_6  and  C_8
REMARK    3  A    between atoms: C_10  and  C_26
REMARK    4  A    between atoms: N_14  and  C_19
REMARK                            x       y       z     vdW  Elec       q    Type
REMARK                         _______ _______ _______ _____ _____    ______ ____
ROOT
ATOM      1  C   UNL     1      -0.018   1.479   0.010  0.00  0.00    +0.163 A 
ATOM      2  N   UNL     1      -1.185   2.103   0.019  0.00  0.00    -0.220 NA
ATOM      3  C   UNL     1      -1.251   3.434   0.032  0.00  0.00    +0.154 A 
ATOM      4  C   UNL     1      -0.060   4.162   0.025  0.00  0.00    +0.117 A 
ATOM      5  C   UNL     1       1.158   3.458   0.010  0.00  0.00    +0.170 A 
ATOM      6  N   UNL     1       1.136   2.137   0.003  0.00  0.00    -0.208 NA
ATOM      7  N   UNL     1       2.164   4.408   0.005  0.00  0.00    -0.245 N 
ATOM      8  C   UNL     1       1.597   5.629   0.016  0.00  0.00    +0.333 A 
ATOM      9  O   UNL     1       2.204   6.683   0.016  0.00  0.00    -0.246 OA
ATOM     10  N   UNL     1       0.255   5.508   0.029  0.00  0.00    -0.303 N 
ATOM     11  H   UNL     1      -0.547   6.261   0.040  0.00  0.00    +0.171 HD
ENDROOT
BRANCH   1  17
ATOM     12  C   UNL     1      -2.461  -2.875   0.010  0.00  0.00    +0.044 C 
ATOM     13  C   UNL     1      -1.169  -2.100   0.002  0.00  0.00    -0.050 A 
ATOM     14  C   UNL     1       0.040  -2.772  -0.015  0.00  0.00    +0.003 A 
ATOM     15  C   UNL     1       1.229  -2.067  -0.022  0.00  0.00    +0.001 A 
ATOM     16  C   UNL     1       1.217  -0.687  -0.019  0.00  0.00    +0.011 A 
ATOM     17  C   UNL     1       0.002  -0.004   0.002  0.00  0.00    +0.019 A 
ATOM     18  C   UNL     1      -1.194  -0.720   0.010  0.00  0.00    +0.015 A 
ENDBRANCH   1  17
BRANCH   7  19
ATOM     19  C   UNL     1       3.541   4.144  -0.011  0.00  0.00    +0.053 A 
ATOM     20  C   UNL     1       3.997   2.833  -0.016  0.00  0.00    +0.028 A 
ATOM     21  C   UNL     1       5.354   2.575  -0.035  0.00  0.00    +0.022 A 
ATOM     22  C   UNL     1       6.258   3.623  -0.039  0.00  0.00    +0.041 A 
ATOM     23  C   UNL     1       5.806   4.930  -0.028  0.00  0.00    +0.022 A 
ATOM     24  C   UNL     1       4.450   5.193  -0.014  0.00  0.00    +0.028 A 
ATOM     25 CL   UNL     1       7.963   3.296  -0.057  0.00  0.00    -0.084 Cl
ENDBRANCH   7  19
BRANCH   3  26
ATOM     26  C   UNL     1      -2.560   4.127   0.049  0.00  0.00    +0.262 C 
ATOM     27  O   UNL     1      -2.605   5.341   0.057  0.00  0.00    -0.269 OA
ATOM     28  N   UNL     1      -3.701   3.410   0.056  0.00  0.00    -0.324 N 
ATOM     29  H   UNL     1      -4.674   3.925   0.069  0.00  0.00    +0.145 HD
ATOM     30  H   UNL     1      -3.661   2.311   0.049  0.00  0.00    +0.145 HD
ENDBRANCH   3  26
TORSDOF 3
