REMARK  Name = ZINC64460243
REMARK  4 active torsions:
REMARK  status: ('A' for Active; 'I' for Inactive)
REMARK    1  A    between atoms: C_1  and  C_2
REMARK    2  A    between atoms: C_5  and  N_9
REMARK    3  A    between atoms: C_6  and  C_8
REMARK    4  A    between atoms: C_10  and  C_12
REMARK                            x       y       z     vdW  Elec       q    Type
REMARK                         _______ _______ _______ _____ _____    ______ ____
ROOT
ATOM      1  C   UNL     1      -0.134  -6.343  -1.187  0.00  0.00    +0.205 C 
ATOM      2  C   UNL     1       0.513  -6.939  -2.445  0.00  0.00    +0.142 A 
ATOM      3  N   UNL     1       1.798  -6.787  -2.718  0.00  0.00    -0.193 NA
ATOM      4  C   UNL     1       2.392  -7.294  -3.805  0.00  0.00    +0.281 A 
ATOM      5  O   UNL     1       3.581  -7.127  -4.013  0.00  0.00    -0.265 OA
ATOM      6  C   UNL     1       1.551  -8.062  -4.740  0.00  0.00    +0.066 A 
ATOM      7  C   UNL     1       2.067  -8.634  -5.902  0.00  0.00    +0.035 A 
ATOM      8  C   UNL     1       1.224  -9.341  -6.735  0.00  0.00    +0.042 A 
ATOM      9  C   UNL     1      -0.121  -9.483  -6.420  0.00  0.00    +0.022 A 
ATOM     10  C   UNL     1      -0.639  -8.920  -5.271  0.00  0.00    +0.028 A 
ATOM     11  C   UNL     1       0.197  -8.205  -4.424  0.00  0.00    +0.062 A 
ATOM     12  N   UNL     1      -0.322  -7.626  -3.248  0.00  0.00    -0.284 N 
ATOM     13  C   UNL     1      -1.648  -7.768  -2.942  0.00  0.00    +0.128 C 
ATOM     14  S   UNL     1      -2.839  -8.602  -3.844  0.00  0.00    -0.025 S 
ATOM     15  S   UNL     1      -1.869  -6.899  -1.404  0.00  0.00    -0.079 S 
ATOM     16 CL   UNL     1       1.849 -10.060  -8.186  0.00  0.00    -0.084 Cl
ENDROOT
BRANCH   1  18
ATOM     17  N   UNL     1       0.059  -4.170  -0.021  0.00  0.00    -0.284 N 
ATOM     18  C   UNL     1      -0.040  -4.839  -1.187  0.00  0.00    +0.238 C 
ATOM     19  O   UNL     1      -0.054  -4.230  -2.236  0.00  0.00    -0.274 OA
ATOM     20  H   UNL     1       0.135  -4.658   0.814  0.00  0.00    +0.155 HD
BRANCH  17  25
ATOM     21  C   UNL     1       0.025   1.503   0.005  0.00  0.00    +0.044 C 
ATOM     22  C   UNL     1       0.034  -0.004  -0.002  0.00  0.00    -0.050 A 
ATOM     23  C   UNL     1       0.632  -0.685  -1.046  0.00  0.00    +0.005 A 
ATOM     24  C   UNL     1       0.641  -2.066  -1.055  0.00  0.00    +0.024 A 
ATOM     25  C   UNL     1       0.051  -2.771  -0.014  0.00  0.00    +0.036 A 
ATOM     26  C   UNL     1      -0.548  -2.083   1.033  0.00  0.00    -0.029 A 
ATOM     27  C   UNL     1      -0.550  -0.702   1.039  0.00  0.00    +0.008 A 
ATOM     28  C   UNL     1      -1.190  -2.843   2.165  0.00  0.00    +0.045 C 
ENDBRANCH  17  25
ENDBRANCH   1  18
TORSDOF 2
