REMARK  Name = ZINC42104179
REMARK  4 active torsions:
REMARK  status: ('A' for Active; 'I' for Inactive)
REMARK    1  A    between atoms: C_1  and  C_2
REMARK    2  A    between atoms: C_2  and  C_3
REMARK    3  A    between atoms: C_9  and  N_14
REMARK    4  A    between atoms: N_14  and  C_15
REMARK                            x       y       z     vdW  Elec       q    Type
REMARK                         _______ _______ _______ _____ _____    ______ ____
ROOT
ATOM      1  C   UNL     1      -1.412  -0.526   0.013  0.00  0.00    -0.047 A 
ATOM      2  C   UNL     1      -2.053  -0.767   1.214  0.00  0.00    +0.005 A 
ATOM      3  C   UNL     1      -3.347  -1.244   1.231  0.00  0.00    +0.024 A 
ATOM      4  C   UNL     1      -4.018  -1.487   0.034  0.00  0.00    +0.039 A 
ATOM      5  C   UNL     1      -3.364  -1.240  -1.166  0.00  0.00    +0.003 A 
ATOM      6  C   UNL     1      -2.074  -0.759  -1.180  0.00  0.00    +0.011 A 
ATOM      7  C   UNL     1      -4.340  -1.596  -2.263  0.00  0.00    +0.190 C 
ATOM      8  C   UNL     1      -5.577  -2.055  -1.521  0.00  0.00    +0.242 C 
ATOM      9  O   UNL     1      -6.616  -2.436  -2.018  0.00  0.00    -0.273 OA
ATOM     10  N   UNL     1      -5.308  -1.962  -0.208  0.00  0.00    -0.283 N 
ATOM     11  H   UNL     1      -5.938  -2.197   0.491  0.00  0.00    +0.155 HD
ENDROOT
BRANCH   1  13
ATOM     12  C   UNL     1      -0.019   1.526   0.010  0.00  0.00    +0.009 C 
ATOM     13  C   UNL     1       0.002  -0.004   0.002  0.00  0.00    +0.032 C 
ENDBRANCH   1  13
BRANCH   7  14
ATOM     14  N   UNL     1      -4.638  -0.421  -3.086  0.00  0.00    -0.328 N 
ATOM     15  H   UNL     1      -4.541   0.469  -2.713  0.00  0.00    +0.147 HD
BRANCH  14  16
ATOM     16  C   UNL     1      -5.064  -0.582  -4.408  0.00  0.00    +0.047 A 
ATOM     17  C   UNL     1      -5.209  -1.856  -4.941  0.00  0.00    +0.025 A 
ATOM     18  C   UNL     1      -5.630  -2.013  -6.247  0.00  0.00    +0.017 A 
ATOM     19  C   UNL     1      -5.906  -0.902  -7.025  0.00  0.00    +0.019 A 
ATOM     20  C   UNL     1      -5.762   0.368  -6.497  0.00  0.00    +0.037 A 
ATOM     21  C   UNL     1      -5.347   0.532  -5.189  0.00  0.00    +0.063 A 
ATOM     22 CL   UNL     1      -5.173   2.126  -4.525  0.00  0.00    -0.082 Cl
ATOM     23 BR   UNL     1      -6.482  -1.122  -8.813  0.00  0.00    -0.050 Br
ENDBRANCH  14  16
ENDBRANCH   7  14
TORSDOF 3
