REMARK  Name = ZINC36765683
REMARK  8 active torsions:
REMARK  status: ('A' for Active; 'I' for Inactive)
REMARK    1  A    between atoms: C_1  and  S_2
REMARK    2  A    between atoms: S_2  and  C_5
REMARK    3  A    between atoms: C_5  and  C_6
REMARK    4  A    between atoms: C_6  and  C_7
REMARK    5  A    between atoms: C_7  and  C_9
REMARK    6  A    between atoms: C_7  and  N_22
REMARK    7  A    between atoms: C_11  and  C_14
REMARK    8  A    between atoms: C_14  and  C_15
REMARK                            x       y       z     vdW  Elec       q    Type
REMARK                         _______ _______ _______ _____ _____    ______ ____
ROOT
ATOM      1  C   UNL     1       1.724  -3.713  -3.229  0.00  0.00    +0.213 A 
ATOM      2  N   UNL     1       0.990  -4.356  -4.095  0.00  0.00    -0.197 NA
ATOM      3  C   UNL     1       1.243  -5.668  -4.027  0.00  0.00    +0.176 A 
ATOM      4  N   UNL     1       2.144  -5.877  -3.111  0.00  0.00    -0.061 NA
ATOM      5  O   UNL     1       2.480  -4.604  -2.577  0.00  0.00    -0.340 OA
ENDROOT
BRANCH   1   6
ATOM      6  C   UNL     1       1.724  -2.223  -3.006  0.00  0.00    +0.017 C 
BRANCH   6   7
ATOM      7  N   UNL     1       3.109  -1.742  -2.914  0.00  0.00    +0.386 N 
ATOM      8  H   UNL     1       3.573  -2.197  -2.143  0.00  0.00    -0.089 HD
ATOM      9  H   UNL     1       3.596  -1.953  -3.772  0.00  0.00    -0.089 HD
ATOM     10  H   UNL     1       3.109  -0.744  -2.765  0.00  0.00    -0.089 HD
ENDBRANCH   6   7
BRANCH   6  11
ATOM     11  C   UNL     1       0.986  -1.902  -1.705  0.00  0.00    +0.016 C 
BRANCH  11  12
ATOM     12  C   UNL     1       0.877  -0.385  -1.541  0.00  0.00    +0.164 C 
BRANCH  12  14
ATOM     13  C   UNL     1      -0.022   1.810   0.012  0.00  0.00    +0.194 C 
ATOM     14  S   UNL     1       0.002  -0.004   0.002  0.00  0.00    -0.034 S 
ATOM     15  O   UNL     1       0.798  -0.449   1.092  0.00  0.00    -0.175 OA
ATOM     16  O   UNL     1      -1.335  -0.471  -0.113  0.00  0.00    -0.175 OA
ENDBRANCH  12  14
ENDBRANCH  11  12
ENDBRANCH   6  11
ENDBRANCH   1   6
BRANCH   3  17
ATOM     17  C   UNL     1       0.589  -6.731  -4.871  0.00  0.00    +0.114 C 
BRANCH  17  18
ATOM     18  C   UNL     1       1.394  -6.940  -6.128  0.00  0.00    -0.039 A 
ATOM     19  C   UNL     1       1.118  -6.192  -7.258  0.00  0.00    +0.004 A 
ATOM     20  C   UNL     1       1.856  -6.383  -8.410  0.00  0.00    +0.001 A 
ATOM     21  C   UNL     1       2.871  -7.322  -8.434  0.00  0.00    +0.015 A 
ATOM     22  C   UNL     1       3.147  -8.070  -7.305  0.00  0.00    +0.018 A 
ATOM     23  C   UNL     1       2.412  -7.875  -6.149  0.00  0.00    +0.019 A 
ATOM     24 BR   UNL     1       4.534  -9.355  -7.337  0.00  0.00    -0.050 Br
ENDBRANCH  17  18
ENDBRANCH   3  17
TORSDOF 7
