REMARK  Name = ZINC05482471
REMARK  9 active torsions:
REMARK  status: ('A' for Active; 'I' for Inactive)
REMARK    1  A    between atoms: C_1  and  C_2
REMARK    2  A    between atoms: C_3  and  C_19
REMARK    3  A    between atoms: C_4  and  C_10
REMARK    4  A    between atoms: C_13  and  N_16
REMARK    5  A    between atoms: N_16  and  C_17
REMARK    6  A    between atoms: N_16  and  C_18
REMARK    7  A    between atoms: N_21  and  C_22
REMARK    8  A    between atoms: C_27  and  O_28
REMARK    9  A    between atoms: O_28  and  C_29
REMARK                            x       y       z     vdW  Elec       q    Type
REMARK                         _______ _______ _______ _____ _____    ______ ____
ROOT
ATOM      1  C   UNL     1      -3.912   2.241   0.165  0.00  0.00    +0.061 C 
ATOM      2  C   UNL     1      -3.604   0.796  -0.132  0.00  0.00    +0.017 C 
ATOM      3  C   UNL     1      -2.353   0.444  -0.494  0.00  0.00    +0.056 C 
ATOM      4  C   UNL     1      -2.085  -1.020  -0.777  0.00  0.00    +0.139 C 
ATOM      5  N   UNL     1      -3.223  -1.945  -0.639  0.00  0.00    -0.315 N 
ATOM      6  C   UNL     1      -4.418  -1.441  -0.274  0.00  0.00    +0.135 C 
ATOM      7  S   UNL     1      -5.750  -2.504  -0.109  0.00  0.00    -0.019 S 
ATOM      8  N   UNL     1      -4.598  -0.136  -0.036  0.00  0.00    -0.300 N 
ATOM      9  H   UNL     1      -3.114  -2.894  -0.806  0.00  0.00    +0.149 HD
ATOM     10  H   UNL     1      -5.484   0.164   0.223  0.00  0.00    +0.154 HD
ENDROOT
BRANCH   4  11
ATOM     11  C   UNL     1      -1.564  -1.133  -2.187  0.00  0.00    -0.023 A 
ATOM     12  C   UNL     1      -2.432  -1.005  -3.255  0.00  0.00    +0.007 A 
ATOM     13  C   UNL     1      -1.957  -1.103  -4.548  0.00  0.00    +0.023 A 
ATOM     14  C   UNL     1      -0.607  -1.340  -4.774  0.00  0.00    +0.029 A 
ATOM     15  C   UNL     1       0.261  -1.474  -3.698  0.00  0.00    +0.023 A 
ATOM     16  C   UNL     1      -0.220  -1.370  -2.408  0.00  0.00    +0.007 A 
BRANCH  14  17
ATOM     17  N   UNL     1      -0.124  -1.446  -6.081  0.00  0.00    -0.336 N 
ATOM     18  C   UNL     1       1.300  -1.697  -6.317  0.00  0.00    +0.129 C 
ATOM     19  C   UNL     1      -1.041  -1.304  -7.214  0.00  0.00    +0.129 C 
ENDBRANCH  14  17
ENDBRANCH   4  11
BRANCH   3  20
ATOM     20  C   UNL     1      -1.322   1.410  -0.600  0.00  0.00    +0.248 C 
ATOM     21  O   UNL     1      -0.564   1.597   0.335  0.00  0.00    -0.270 OA
ATOM     22  N   UNL     1      -1.181   2.123  -1.735  0.00  0.00    -0.279 N 
ATOM     23  H   UNL     1      -1.841   2.046  -2.442  0.00  0.00    +0.155 HD
BRANCH  22  24
ATOM     24  C   UNL     1      -0.084   2.980  -1.892  0.00  0.00    +0.076 A 
ATOM     25  C   UNL     1       0.486   3.591  -0.784  0.00  0.00    +0.027 A 
ATOM     26  C   UNL     1       1.571   4.431  -0.941  0.00  0.00    +0.002 A 
ATOM     27  C   UNL     1       2.085   4.675  -2.201  0.00  0.00    +0.004 A 
ATOM     28  C   UNL     1       1.520   4.073  -3.311  0.00  0.00    +0.047 A 
ATOM     29  C   UNL     1       0.435   3.225  -3.161  0.00  0.00    +0.141 A 
BRANCH  29  30
ATOM     30  O   UNL     1      -0.123   2.633  -4.251  0.00  0.00    -0.493 OA
ATOM     31  C   UNL     1       0.462   2.930  -5.521  0.00  0.00    +0.277 C 
ENDBRANCH  29  30
ENDBRANCH  22  24
ENDBRANCH   3  20
TORSDOF 5
