REMARK  Name = ZINC22010552
REMARK  10 active torsions:
REMARK  status: ('A' for Active; 'I' for Inactive)
REMARK    1  A    between atoms: C_1  and  C_2
REMARK    2  A    between atoms: C_2  and  C_3
REMARK    3  A    between atoms: C_2  and  C_4
REMARK    4  A    between atoms: C_2  and  C_5
REMARK    5  A    between atoms: C_8  and  C_11
REMARK    6  A    between atoms: C_11  and  N_12
REMARK    7  A    between atoms: N_12  and  C_13
REMARK    8  A    between atoms: N_12  and  C_14
REMARK    9  A    between atoms: C_14  and  C_15
REMARK   10  A    between atoms: C_23  and  N_25
REMARK                            x       y       z     vdW  Elec       q    Type
REMARK                         _______ _______ _______ _____ _____    ______ ____
ROOT
ATOM      1  N   UNL     1      -0.018   1.465   0.010  0.00  0.00    +0.385 N 
ATOM      2  C   UNL     1       1.346   2.010   0.000  0.00  0.00    -0.095 C 
ATOM      3  H   UNL     1      -0.505   1.791   0.941  0.00  0.00    -0.081 HD
ENDROOT
BRANCH   1   4
ATOM      4  C   UNL     1      -0.802   1.987  -1.117  0.00  0.00    -0.043 C 
BRANCH   4   8
ATOM      5  C   UNL     1      -1.383   6.190  -0.623  0.00  0.00    -0.042 A 
ATOM      6  C   UNL     1      -0.278   5.721  -1.308  0.00  0.00    +0.004 A 
ATOM      7  C   UNL     1      -0.090   4.361  -1.468  0.00  0.00    +0.002 A 
ATOM      8  C   UNL     1      -1.007   3.470  -0.943  0.00  0.00    -0.064 A 
ATOM      9  C   UNL     1      -2.115   3.939  -0.262  0.00  0.00    +0.002 A 
ATOM     10  C   UNL     1      -2.301   5.299  -0.098  0.00  0.00    +0.004 A 
BRANCH   5  12
ATOM     11  C   UNL     1      -1.695   8.338  -1.822  0.00  0.00    +0.015 C 
ATOM     12  C   UNL     1      -1.589   7.673  -0.448  0.00  0.00    -0.013 C 
ATOM     13  C   UNL     1      -2.877   7.920   0.339  0.00  0.00    +0.015 C 
ATOM     14  C   UNL     1      -0.402   8.265   0.315  0.00  0.00    +0.015 C 
ENDBRANCH   5  12
ENDBRANCH   4   8
ENDBRANCH   1   4
BRANCH   1  15
ATOM     15  C   UNL     1       0.002  -0.004   0.002  0.00  0.00    -0.001 C 
BRANCH  15  16
ATOM     16  C   UNL     1       0.598  -0.505   1.292  0.00  0.00    +0.115 A 
ATOM     17  N   UNL     1      -0.203  -0.731   2.306  0.00  0.00    -0.234 NA
ATOM     18  C   UNL     1       0.285  -1.177   3.473  0.00  0.00    +0.076 A 
ATOM     19  C   UNL     1      -0.541  -1.429   4.576  0.00  0.00    +0.028 A 
ATOM     20  C   UNL     1       0.008  -1.883   5.739  0.00  0.00    +0.002 A 
ATOM     21  C   UNL     1       1.379  -2.101   5.848  0.00  0.00    +0.001 A 
ATOM     22  C   UNL     1       2.211  -1.866   4.793  0.00  0.00    +0.013 A 
ATOM     23  C   UNL     1       1.679  -1.400   3.586  0.00  0.00    +0.040 A 
ATOM     24  C   UNL     1       2.493  -1.138   2.456  0.00  0.00    +0.127 A 
ATOM     25  N   UNL     1       1.905  -0.704   1.349  0.00  0.00    -0.219 NA
BRANCH  24  26
ATOM     26  N   UNL     1       3.856  -1.335   2.504  0.00  0.00    -0.343 N 
ATOM     27  H   UNL     1       4.473  -1.127   1.618  0.00  0.00    +0.144 HD
ATOM     28  H   UNL     1       4.327  -1.700   3.429  0.00  0.00    +0.144 HD
ENDBRANCH  24  26
ENDBRANCH  15  16
ENDBRANCH   1  15
TORSDOF 6
