REMARK  Name = ZINC16021915
REMARK  7 active torsions:
REMARK  status: ('A' for Active; 'I' for Inactive)
REMARK    1  A    between atoms: C_1  and  C_2
REMARK    2  A    between atoms: C_2  and  C_3
REMARK    3  A    between atoms: C_3  and  C_4
REMARK    4  A    between atoms: C_4  and  N_5
REMARK    5  A    between atoms: C_10  and  C_28
REMARK    6  A    between atoms: C_28  and  C_29
REMARK    7  A    between atoms: C_32  and  O_35
REMARK                            x       y       z     vdW  Elec       q    Type
REMARK                         _______ _______ _______ _____ _____    ______ ____
ROOT
ATOM      1  N   UNL     1       1.425  -2.500  -2.470  0.00  0.00    -0.242 N 
ATOM      2  C   UNL     1       0.784  -2.738  -3.621  0.00  0.00    +0.227 C 
ATOM      3  O   UNL     1      -0.406  -2.599  -3.801  0.00  0.00    -0.275 OA
ATOM      4  C   UNL     1       1.777  -3.206  -4.661  0.00  0.00    +0.107 C 
ATOM      5  C   UNL     1       1.495  -4.684  -5.006  0.00  0.00    +0.072 C 
ATOM      6  N   UNL     1       2.258  -5.464  -3.997  0.00  0.00    -0.295 NA
ATOM      7  C   UNL     1       3.514  -4.709  -3.831  0.00  0.00    +0.136 C 
ATOM      8  C   UNL     1       3.127  -3.210  -3.892  0.00  0.00    +0.122 C 
ATOM      9  C   UNL     1       2.743  -2.723  -2.512  0.00  0.00    +0.228 C 
ATOM     10  O   UNL     1       3.510  -2.562  -1.588  0.00  0.00    -0.275 OA
ATOM     11  C   UNL     1       4.511  -5.058  -4.899  0.00  0.00    +0.006 A 
ATOM     12  C   UNL     1       4.494  -4.982  -6.274  0.00  0.00    +0.046 A 
ATOM     13  C   UNL     1       5.598  -5.391  -7.005  0.00  0.00    +0.124 A 
ATOM     14  C   UNL     1       6.716  -5.877  -6.348  0.00  0.00    +0.040 A 
ATOM     15  C   UNL     1       6.736  -5.954  -4.971  0.00  0.00    +0.026 A 
ATOM     16  C   UNL     1       5.630  -5.545  -4.230  0.00  0.00    +0.039 A 
ATOM     17  N   UNL     1       5.413  -5.527  -2.849  0.00  0.00    -0.283 N 
ATOM     18  C   UNL     1       4.194  -5.051  -2.533  0.00  0.00    +0.243 C 
ATOM     19  O   UNL     1       3.732  -4.922  -1.419  0.00  0.00    -0.273 OA
ATOM     20  F   UNL     1       5.582  -5.318  -8.354  0.00  0.00    -0.205 F 
ATOM     21  H   UNL     1       1.752  -5.520  -3.125  0.00  0.00    +0.124 HD
ATOM     22  H   UNL     1       6.065  -5.823  -2.195  0.00  0.00    +0.155 HD
ENDROOT
BRANCH   1  23
ATOM     23  C   UNL     1       0.739  -2.027  -1.265  0.00  0.00    +0.116 C 
BRANCH  23  24
ATOM     24  C   UNL     1       0.718  -0.497  -1.257  0.00  0.00    +0.019 C 
BRANCH  24  26
ATOM     25  C   UNL     1      -0.019   1.526   0.010  0.00  0.00    +0.004 C 
ATOM     26  C   UNL     1       0.002  -0.004   0.002  0.00  0.00    -0.002 C 
ENDBRANCH  24  26
ENDBRANCH  23  24
ENDBRANCH   1  23
BRANCH   5  27
ATOM     27  C   UNL     1      -0.002  -4.981  -4.892  0.00  0.00    +0.054 C 
BRANCH  27  28
ATOM     28  C   UNL     1      -0.270  -6.391  -5.351  0.00  0.00    -0.046 A 
ATOM     29  C   UNL     1      -0.552  -6.642  -6.681  0.00  0.00    +0.007 A 
ATOM     30  C   UNL     1      -0.799  -7.934  -7.104  0.00  0.00    +0.045 A 
ATOM     31  C   UNL     1      -0.764  -8.979  -6.193  0.00  0.00    +0.117 A 
ATOM     32  C   UNL     1      -0.481  -8.725  -4.859  0.00  0.00    +0.045 A 
ATOM     33  C   UNL     1      -0.230  -7.432  -4.442  0.00  0.00    +0.007 A 
BRANCH  31  34
ATOM     34  O   UNL     1      -1.007 -10.251  -6.606  0.00  0.00    -0.507 OA
ATOM     35  H   UNL     1      -0.216 -10.731  -6.888  0.00  0.00    +0.292 HD
ENDBRANCH  31  34
ENDBRANCH  27  28
ENDBRANCH   5  27
TORSDOF 6
