REMARK  Name = ZINC37217059
REMARK  4 active torsions:
REMARK  status: ('A' for Active; 'I' for Inactive)
REMARK    1  A    between atoms: C_1  and  C_2
REMARK    2  A    between atoms: C_2  and  C_4
REMARK    3  A    between atoms: C_2  and  N_12
REMARK    4  A    between atoms: N_12  and  C_13
REMARK                            x       y       z     vdW  Elec       q    Type
REMARK                         _______ _______ _______ _____ _____    ______ ____
ROOT
ATOM      1  N   UNL     1       0.711  -0.489   1.189  0.00  0.00    -0.337 N 
ATOM      2  H   UNL     1       0.213  -0.731   1.986  0.00  0.00    +0.147 HD
ENDROOT
BRANCH   1   3
ATOM      3  C   UNL     1       2.105  -0.604   1.173  0.00  0.00    +0.030 A 
ATOM      4  C   UNL     1       2.817  -0.252   0.032  0.00  0.00    +0.025 A 
ATOM      5  C   UNL     1       4.193  -0.362   0.011  0.00  0.00    +0.029 A 
ATOM      6  C   UNL     1       4.868  -0.826   1.130  0.00  0.00    +0.067 A 
ATOM      7  C   UNL     1       4.156  -1.181   2.277  0.00  0.00    +0.069 A 
ATOM      8  C   UNL     1       2.774  -1.064   2.297  0.00  0.00    +0.050 A 
ATOM      9  N   UNL     1       5.092  -1.602   3.218  0.00  0.00    -0.306 N 
ATOM     10  H   UNL     1       4.894  -1.911   4.116  0.00  0.00    +0.170 HD
ATOM     11  C   UNL     1       6.318  -1.509   2.670  0.00  0.00    +0.325 A 
ATOM     12  O   UNL     1       7.359  -1.800   3.228  0.00  0.00    -0.247 OA
ATOM     13  N   UNL     1       6.217  -1.044   1.410  0.00  0.00    -0.306 N 
ATOM     14  H   UNL     1       6.956  -0.887   0.802  0.00  0.00    +0.170 HD
ENDBRANCH   1   3
BRANCH   1  16
ATOM     15  C   UNL     1      -0.019   1.526   0.010  0.00  0.00    +0.033 C 
ATOM     16  C   UNL     1       0.002  -0.004   0.002  0.00  0.00    +0.099 C 
BRANCH  16  17
ATOM     17  C   UNL     1      -1.412  -0.526   0.013  0.00  0.00    -0.009 A 
ATOM     18  C   UNL     1      -2.014  -0.864   1.210  0.00  0.00    +0.010 A 
ATOM     19  C   UNL     1      -3.311  -1.342   1.221  0.00  0.00    +0.039 A 
ATOM     20  C   UNL     1      -4.007  -1.483   0.033  0.00  0.00    +0.125 A 
ATOM     21  C   UNL     1      -3.404  -1.144  -1.166  0.00  0.00    +0.058 A 
ATOM     22  C   UNL     1      -2.108  -0.661  -1.175  0.00  0.00    +0.049 A 
ATOM     23 CL   UNL     1      -1.353  -0.230  -2.678  0.00  0.00    -0.083 Cl
ATOM     24  F   UNL     1      -5.274  -1.952   0.043  0.00  0.00    -0.205 F 
ENDBRANCH  16  17
ENDBRANCH   1  16
TORSDOF 3
