REMARK  Name = ZINC66719396
REMARK  12 active torsions:
REMARK  status: ('A' for Active; 'I' for Inactive)
REMARK    1  A    between atoms: C_1  and  C_2
REMARK    2  A    between atoms: C_4  and  N_14
REMARK    3  A    between atoms: C_7  and  C_8
REMARK    4  A    between atoms: N_10  and  C_11
REMARK    5  A    between atoms: C_11  and  C_12
REMARK    6  A    between atoms: C_11  and  C_13
REMARK    7  A    between atoms: C_15  and  C_17
REMARK    8  A    between atoms: N_19  and  C_20
REMARK    9  A    between atoms: C_20  and  C_22
REMARK   10  A    between atoms: C_20  and  C_23
REMARK   11  A    between atoms: N_26  and  C_29
REMARK   12  A    between atoms: C_27  and  C_28
REMARK                            x       y       z     vdW  Elec       q    Type
REMARK                         _______ _______ _______ _____ _____    ______ ____
ROOT
ATOM      1  N   UNL     1       0.206  -2.665  -2.462  0.00  0.00    -0.278 N 
ATOM      2  C   UNL     1       0.256  -3.997  -2.663  0.00  0.00    +0.303 C 
ATOM      3  O   UNL     1       0.299  -4.752  -1.714  0.00  0.00    -0.265 OA
ATOM      4  H   UNL     1       0.244  -2.058  -3.218  0.00  0.00    +0.155 HD
ENDROOT
BRANCH   1   8
ATOM      5  C   UNL     1       1.340  -3.004   2.302  0.00  0.00    +0.044 C 
ATOM      6  C   UNL     1       0.642  -2.306   1.163  0.00  0.00    -0.037 A 
ATOM      7  C   UNL     1       0.744  -2.803  -0.116  0.00  0.00    +0.027 A 
ATOM      8  C   UNL     1       0.100  -2.159  -1.168  0.00  0.00    +0.034 A 
ATOM      9  C   UNL     1      -0.650  -1.011  -0.930  0.00  0.00    +0.024 A 
ATOM     10  C   UNL     1      -0.756  -0.509   0.347  0.00  0.00    +0.015 A 
ATOM     11  C   UNL     1      -0.116  -1.157   1.406  0.00  0.00    +0.040 A 
BRANCH  11  12
ATOM     12  C   UNL     1      -0.233  -0.625   2.778  0.00  0.00    +0.245 C 
ATOM     13  O   UNL     1       0.380  -1.149   3.688  0.00  0.00    -0.270 OA
ATOM     14  N   UNL     1      -1.018   0.443   3.022  0.00  0.00    -0.309 N 
ATOM     15  H   UNL     1      -1.507   0.862   2.296  0.00  0.00    +0.149 HD
BRANCH  14  16
ATOM     16  C   UNL     1      -1.134   0.971   4.383  0.00  0.00    +0.067 C 
ATOM     17  C   UNL     1       0.017   1.942   4.654  0.00  0.00    +0.027 C 
ATOM     18  C   UNL     1      -2.467   1.708   4.533  0.00  0.00    +0.027 C 
ENDBRANCH  14  16
ENDBRANCH  11  12
ENDBRANCH   1   8
BRANCH   2  19
ATOM     19  C   UNL     1       0.257  -4.542  -4.053  0.00  0.00    +0.300 C 
ATOM     20  O   UNL     1       0.213  -3.786  -5.002  0.00  0.00    -0.265 OA
ATOM     21  N   UNL     1       0.306  -5.874  -4.255  0.00  0.00    -0.301 N 
ATOM     22  H   UNL     1       0.341  -6.478  -3.497  0.00  0.00    +0.150 HD
BRANCH  21  23
ATOM     23  C   UNL     1       0.307  -6.409  -5.618  0.00  0.00    +0.104 C 
ATOM     24  C   UNL     1       1.738  -6.422  -6.160  0.00  0.00    +0.033 C 
BRANCH  23  25
ATOM     25  C   UNL     1      -0.238  -7.814  -5.607  0.00  0.00    +0.013 A 
ATOM     26  C   UNL     1      -0.321  -8.655  -4.493  0.00  0.00    +0.140 A 
ATOM     27  N   UNL     1      -0.848  -9.790  -4.876  0.00  0.00    -0.179 NA
ATOM     28  N   UNL     1      -1.118  -9.706  -6.248  0.00  0.00    -0.271 N 
ATOM     29  C   UNL     1      -0.739  -8.482  -6.672  0.00  0.00    +0.041 A 
ATOM     30  C   UNL     1      -0.851  -7.955  -8.079  0.00  0.00    +0.065 C 
ATOM     31  C   UNL     1      -1.711 -10.759  -7.076  0.00  0.00    +0.172 C 
ENDBRANCH  23  25
ENDBRANCH  21  23
ENDBRANCH   2  19
TORSDOF 6
