REMARK  Name = ZINC63629088
REMARK  4 active torsions:
REMARK  status: ('A' for Active; 'I' for Inactive)
REMARK    1  A    between atoms: C_2  and  C_11
REMARK    2  A    between atoms: C_11  and  N_12
REMARK    3  A    between atoms: N_12  and  S_13
REMARK    4  A    between atoms: S_13  and  N_16
REMARK                            x       y       z     vdW  Elec       q    Type
REMARK                         _______ _______ _______ _____ _____    ______ ____
ROOT
ATOM      1  C   UNL     1      -0.017   1.381   0.010  0.00  0.00    +0.054 A 
ATOM      2  C   UNL     1       1.171   2.090   0.002  0.00  0.00    -0.027 A 
ATOM      3  C   UNL     1       2.379   1.419  -0.013  0.00  0.00    +0.024 A 
ATOM      4  C   UNL     1       2.406   0.036  -0.021  0.00  0.00    +0.064 A 
ATOM      5  C   UNL     1       1.220  -0.680  -0.014  0.00  0.00    +0.180 A 
ATOM      6  C   UNL     1       0.002  -0.004   0.002  0.00  0.00    +0.168 A 
ATOM      7  O   UNL     1      -1.007  -0.923   0.006  0.00  0.00    -0.453 OA
ATOM      8  C   UNL     1      -0.404  -2.159  -0.419  0.00  0.00    +0.466 C 
ATOM      9  O   UNL     1       0.973  -2.023  -0.020  0.00  0.00    -0.451 OA
ATOM     10 BR   UNL     1       4.061  -0.877  -0.043  0.00  0.00    -0.046 Br
ENDROOT
BRANCH   2  11
ATOM     11  C   UNL     1       1.147   3.596   0.010  0.00  0.00    +0.142 C 
BRANCH  11  12
ATOM     12  N   UNL     1       1.153   4.077   1.394  0.00  0.00    -0.176 NA
ATOM     13  H   UNL     1       0.952   3.467   2.121  0.00  0.00    +0.149 HD
BRANCH  12  14
ATOM     14  S   UNL     1       1.502   5.663   1.718  0.00  0.00    +0.092 S 
ATOM     15  O   UNL     1       1.401   5.822   3.127  0.00  0.00    -0.142 OA
ATOM     16  O   UNL     1       2.688   5.973   1.000  0.00  0.00    -0.142 OA
BRANCH  14  17
ATOM     17  N   UNL     1       0.292   6.577   1.052  0.00  0.00    -0.193 NA
ATOM     18  H   UNL     1      -0.437   6.146   0.580  0.00  0.00    +0.145 HD
ATOM     19  H   UNL     1       0.313   7.543   1.133  0.00  0.00    +0.145 HD
ENDBRANCH  14  17
ENDBRANCH  12  14
ENDBRANCH  11  12
ENDBRANCH   2  11
TORSDOF 4
