REMARK  Name = ZINC39543829
REMARK  4 active torsions:
REMARK  status: ('A' for Active; 'I' for Inactive)
REMARK    1  A    between atoms: C_1  and  C_2
REMARK    2  A    between atoms: C_2  and  N_3
REMARK    3  A    between atoms: N_3  and  O_21
REMARK    4  A    between atoms: C_4  and  C_6
REMARK                            x       y       z     vdW  Elec       q    Type
REMARK                         _______ _______ _______ _____ _____    ______ ____
ROOT
ATOM      1  C   UNL     1       0.842  -0.943   3.617  0.00  0.00    +0.151 C 
ATOM      2  C   UNL     1       2.162  -0.173   3.810  0.00  0.00    +0.076 C 
ATOM      3  C   UNL     1       1.989   0.528   5.138  0.00  0.00    +0.032 C 
ATOM      4  C   UNL     1       0.817   0.231   5.638  0.00  0.00    +0.085 C 
ATOM      5  N   UNL     1       0.282   0.723   6.845  0.00  0.00    -0.303 N 
ATOM      6  C   UNL     1      -1.102   0.970   6.820  0.00  0.00    +0.037 A 
ATOM      7  C   UNL     1      -1.716   1.563   7.913  0.00  0.00    +0.023 A 
ATOM      8  C   UNL     1      -3.078   1.796   7.893  0.00  0.00    +0.002 A 
ATOM      9  C   UNL     1      -3.821   1.437   6.782  0.00  0.00    +0.000 A 
ATOM     10  C   UNL     1      -3.208   0.850   5.692  0.00  0.00    +0.007 A 
ATOM     11  C   UNL     1      -1.843   0.617   5.701  0.00  0.00    -0.010 A 
ATOM     12  C   UNL     1      -1.200  -0.001   4.487  0.00  0.00    +0.124 C 
ATOM     13  N   UNL     1       0.071  -0.647   4.835  0.00  0.00    -0.369 NA
ATOM     14 BR   UNL     1       3.269   1.659   5.952  0.00  0.00    -0.052 Br
ATOM     15  H   UNL     1       0.826   0.879   7.632  0.00  0.00    +0.153 HD
ATOM     16  H   UNL     1      -0.110  -1.502   5.340  0.00  0.00    +0.129 HD
ENDROOT
BRANCH   1  18
ATOM     17  N   UNL     1      -0.410  -1.322   1.517  0.00  0.00    -0.183 N 
ATOM     18  C   UNL     1       0.113  -0.444   2.396  0.00  0.00    +0.257 C 
ATOM     19  O   UNL     1      -0.003   0.748   2.204  0.00  0.00    -0.272 OA
BRANCH  17  21
ATOM     20  C   UNL     1      -0.105  -0.314  -0.690  0.00  0.00    +0.027 C 
ATOM     21  C   UNL     1      -1.119  -0.837   0.331  0.00  0.00    +0.136 C 
ENDBRANCH  17  21
BRANCH  17  22
ATOM     22  O   UNL     1      -0.275  -2.714   1.742  0.00  0.00    -0.292 OA
ATOM     23  H   UNL     1       0.208  -2.937   2.550  0.00  0.00    +0.242 HD
ENDBRANCH  17  22
ENDBRANCH   1  18
TORSDOF 3
