REMARK  Name = ZINC36533110
REMARK  3 active torsions:
REMARK  status: ('A' for Active; 'I' for Inactive)
REMARK    1  A    between atoms: C_1  and  C_2
REMARK    2  A    between atoms: C_7  and  S_8
REMARK    3  A    between atoms: S_8  and  N_11
REMARK                            x       y       z     vdW  Elec       q    Type
REMARK                         _______ _______ _______ _____ _____    ______ ____
ROOT
ATOM      1  C   UNL     1      -0.018   1.503   0.010  0.00  0.00    +0.046 C 
ATOM      2  C   UNL     1       0.002  -0.004   0.002  0.00  0.00    -0.023 A 
ATOM      3  C   UNL     1       0.006  -0.688  -1.200  0.00  0.00    +0.023 A 
ATOM      4  C   UNL     1       0.025  -2.071  -1.208  0.00  0.00    +0.053 A 
ATOM      5  C   UNL     1       0.041  -2.770  -0.012  0.00  0.00    +0.139 A 
ATOM      6  C   UNL     1       0.037  -2.083   1.190  0.00  0.00    +0.068 A 
ATOM      7  C   UNL     1       0.023  -0.701   1.196  0.00  0.00    +0.111 A 
ATOM      8  F   UNL     1       0.059  -4.121  -0.019  0.00  0.00    -0.204 F 
ATOM      9 BR   UNL     1       0.029  -3.006  -2.851  0.00  0.00    -0.047 Br
ENDROOT
BRANCH   7  10
ATOM     10  S   UNL     1       0.025   0.173   2.725  0.00  0.00    +0.056 S 
ATOM     11  O   UNL     1      -1.015   1.138   2.643  0.00  0.00    -0.153 OA
ATOM     12  O   UNL     1       0.075  -0.807   3.753  0.00  0.00    -0.153 OA
BRANCH  10  13
ATOM     13  N   UNL     1       1.448   1.016   2.806  0.00  0.00    -0.204 NA
ATOM     14  H   UNL     1       2.087   0.960   2.078  0.00  0.00    +0.144 HD
ATOM     15  H   UNL     1       1.642   1.567   3.580  0.00  0.00    +0.144 HD
ENDBRANCH  10  13
ENDBRANCH   7  10
TORSDOF 2
