REMARK  Name = ZINC63118527
REMARK  5 active torsions:
REMARK  status: ('A' for Active; 'I' for Inactive)
REMARK    1  A    between atoms: C_1  and  C_2
REMARK    2  A    between atoms: C_2  and  C_3
REMARK    3  A    between atoms: C_7  and  S_14
REMARK    4  A    between atoms: C_12  and  N_13
REMARK    5  A    between atoms: S_14  and  C_17
REMARK                            x       y       z     vdW  Elec       q    Type
REMARK                         _______ _______ _______ _____ _____    ______ ____
ROOT
ATOM      1  C   UNL     1      -1.412  -0.526   0.013  0.00  0.00    -0.008 A 
ATOM      2  C   UNL     1      -1.990  -0.953  -1.144  0.00  0.00    +0.017 A 
ATOM      3  C   UNL     1      -3.314  -1.434  -1.091  0.00  0.00    +0.003 A 
ATOM      4  C   UNL     1      -3.970  -1.890  -2.245  0.00  0.00    +0.037 A 
ATOM      5  C   UNL     1      -5.250  -2.349  -2.156  0.00  0.00    +0.089 A 
ATOM      6  C   UNL     1      -5.917  -2.370  -0.934  0.00  0.00    +0.029 A 
ATOM      7  C   UNL     1      -5.311  -1.935   0.205  0.00  0.00    +0.030 A 
ATOM      8  C   UNL     1      -3.991  -1.456   0.153  0.00  0.00    +0.073 A 
ATOM      9  N   UNL     1      -3.371  -1.023   1.257  0.00  0.00    -0.232 NA
ATOM     10  C   UNL     1      -2.132  -0.578   1.214  0.00  0.00    +0.120 A 
ENDROOT
BRANCH   5  11
ATOM     11  S   UNL     1      -6.072  -2.921  -3.606  0.00  0.00    -0.006 S 
ATOM     12  O   UNL     1      -7.454  -2.732  -3.337  0.00  0.00    -0.170 OA
ATOM     13  O   UNL     1      -5.441  -2.231  -4.676  0.00  0.00    -0.170 OA
ATOM     14  C   UNL     1      -5.688  -4.692  -3.691  0.00  0.00    +0.200 C 
ENDBRANCH   5  11
BRANCH  10  15
ATOM     15  N   UNL     1      -1.528  -0.144   2.385  0.00  0.00    -0.343 N 
ATOM     16  H   UNL     1      -0.618   0.189   2.367  0.00  0.00    +0.144 HD
ATOM     17  H   UNL     1      -2.016  -0.175   3.223  0.00  0.00    +0.144 HD
ENDBRANCH  10  15
BRANCH   1  19
ATOM     18  C   UNL     1      -0.019   1.526   0.010  0.00  0.00    +0.009 C 
ATOM     19  C   UNL     1       0.002  -0.004   0.002  0.00  0.00    +0.035 C 
ENDBRANCH   1  19
TORSDOF 3
