REMARK  Name = ZINC33503286
REMARK  10 active torsions:
REMARK  status: ('A' for Active; 'I' for Inactive)
REMARK    1  A    between atoms: C_1  and  C_2
REMARK    2  A    between atoms: C_2  and  C_3
REMARK    3  A    between atoms: C_3  and  C_4
REMARK    4  A    between atoms: C_4  and  C_6
REMARK    5  A    between atoms: C_4  and  N_24
REMARK    6  A    between atoms: N_12  and  C_19
REMARK    7  A    between atoms: C_15  and  C_17
REMARK    8  A    between atoms: C_15  and  C_18
REMARK    9  A    between atoms: C_19  and  C_20
REMARK   10  A    between atoms: N_22  and  C_23
REMARK                            x       y       z     vdW  Elec       q    Type
REMARK                         _______ _______ _______ _____ _____    ______ ____
ROOT
ATOM      1  C   UNL     1       1.177   1.781   0.000  0.00  0.00    -0.060 A 
ATOM      2  C   UNL     1      -0.013   1.076   0.008  0.00  0.00    +0.005 A 
ATOM      3  C   UNL     1      -1.221   1.748   0.017  0.00  0.00    +0.048 A 
ATOM      4  C   UNL     1      -1.240   3.132   0.030  0.00  0.00    +0.143 A 
ATOM      5  C   UNL     1      -0.041   3.843   0.021  0.00  0.00    +0.079 A 
ATOM      6  C   UNL     1       1.166   3.164   0.007  0.00  0.00    +0.029 A 
ATOM      7  N   UNL     1      -0.074   5.244   0.028  0.00  0.00    -0.256 N 
ATOM      8  C   UNL     1      -1.226   5.870   0.356  0.00  0.00    +0.264 C 
ATOM      9  O   UNL     1      -1.287   7.081   0.338  0.00  0.00    -0.271 OA
ATOM     10  C   UNL     1      -2.434   5.057   0.745  0.00  0.00    +0.181 C 
ATOM     11  O   UNL     1      -2.419   3.809   0.046  0.00  0.00    -0.475 OA
ATOM     12  C   UNL     1      -3.705   5.828   0.383  0.00  0.00    +0.065 C 
ATOM     13  C   UNL     1      -2.408   4.796   2.253  0.00  0.00    +0.065 C 
ENDROOT
BRANCH   1  14
ATOM     14  C   UNL     1       2.489   1.040  -0.015  0.00  0.00    -0.044 C 
BRANCH  14  15
ATOM     15  N   UNL     1       2.402  -0.129   0.870  0.00  0.00    +0.383 N 
ATOM     16  H   UNL     1       2.181   0.203   1.895  0.00  0.00    -0.089 HD
ATOM     17  H   UNL     1       3.360  -0.670   0.858  0.00  0.00    -0.089 HD
ATOM     18  H   UNL     1       1.601  -0.796   0.519  0.00  0.00    -0.089 HD
ENDBRANCH  14  15
BRANCH  14  19
ATOM     19  C   UNL     1       2.797   0.578  -1.441  0.00  0.00    -0.012 C 
BRANCH  19  21
ATOM     20  C   UNL     1       4.493  -0.526  -2.907  0.00  0.00    +0.004 C 
ATOM     21  C   UNL     1       4.185  -0.064  -1.481  0.00  0.00    -0.005 C 
ENDBRANCH  19  21
ENDBRANCH  14  19
ENDBRANCH   1  14
BRANCH   7  22
ATOM     22  C   UNL     1       1.121   6.019  -0.317  0.00  0.00    +0.209 C 
BRANCH  22  23
ATOM     23  C   UNL     1       1.139   6.280  -1.801  0.00  0.00    +0.231 C 
ATOM     24  O   UNL     1       0.242   5.862  -2.502  0.00  0.00    -0.274 OA
ATOM     25  N   UNL     1       2.152   6.980  -2.349  0.00  0.00    -0.317 N 
ATOM     26  C   UNL     1       2.170   7.235  -3.792  0.00  0.00    +0.128 C 
ATOM     27  H   UNL     1       2.966   7.360  -1.714  0.00  0.00    +0.148 HD
ENDBRANCH  22  23
ENDBRANCH   7  22
TORSDOF 6
