REMARK  Name = ZINC11566033
REMARK  5 active torsions:
REMARK  status: ('A' for Active; 'I' for Inactive)
REMARK    1  A    between atoms: C_7  and  C_11
REMARK    2  A    between atoms: C_11  and  C_12
REMARK    3  A    between atoms: N_14  and  N_15
REMARK    4  A    between atoms: C_16  and  C_17
REMARK    5  A    between atoms: C_22  and  O_23
REMARK                            x       y       z     vdW  Elec       q    Type
REMARK                         _______ _______ _______ _____ _____    ______ ____
ROOT
ATOM      1  C   UNL     1      -1.714   2.526   1.440  0.00  0.00    +0.237 C 
ATOM      2  O   UNL     1      -1.117   1.995   2.353  0.00  0.00    -0.274 OA
ATOM      3  N   UNL     1      -2.801   3.280   1.694  0.00  0.00    -0.207 N 
ATOM      4  H   UNL     1      -3.279   3.705   0.965  0.00  0.00    +0.177 HD
ENDROOT
BRANCH   3   5
ATOM      5  N   UNL     1      -3.241   3.453   3.014  0.00  0.00    -0.188 NA
ATOM      6  C   UNL     1      -4.288   4.179   3.259  0.00  0.00    +0.142 C 
BRANCH   6   7
ATOM      7  C   UNL     1      -4.751   4.361   4.646  0.00  0.00    +0.038 A 
ATOM      8  C   UNL     1      -5.877   5.142   4.915  0.00  0.00    +0.028 A 
ATOM      9  C   UNL     1      -6.305   5.308   6.216  0.00  0.00    +0.020 A 
ATOM     10  C   UNL     1      -5.622   4.702   7.258  0.00  0.00    +0.034 A 
ATOM     11  C   UNL     1      -4.507   3.926   7.005  0.00  0.00    +0.061 A 
ATOM     12  C   UNL     1      -4.067   3.745   5.703  0.00  0.00    +0.139 A 
ATOM     13 BR   UNL     1      -3.584   3.103   8.436  0.00  0.00    -0.046 Br
ATOM     14 BR   UNL     1      -7.829   6.367   6.578  0.00  0.00    -0.050 Br
BRANCH  12  15
ATOM     15  O   UNL     1      -2.974   2.978   5.453  0.00  0.00    -0.505 OA
ATOM     16  H   UNL     1      -2.140   3.468   5.460  0.00  0.00    +0.292 HD
ENDBRANCH  12  15
ENDBRANCH   6   7
ENDBRANCH   3   5
BRANCH   1  17
ATOM     17  C   UNL     1      -1.241   2.341   0.021  0.00  0.00    +0.134 C 
BRANCH  17  24
ATOM     18  C   UNL     1      -0.634  -2.308  -0.004  0.00  0.00    +0.001 A 
ATOM     19  C   UNL     1       0.704  -2.678  -0.019  0.00  0.00    +0.002 A 
ATOM     20  C   UNL     1       1.697  -1.724  -0.023  0.00  0.00    +0.026 A 
ATOM     21  C   UNL     1       1.359  -0.374  -0.013  0.00  0.00    +0.047 A 
ATOM     22  C   UNL     1       0.002  -0.004   0.002  0.00  0.00    +0.003 A 
ATOM     23  C   UNL     1      -0.989  -0.988   0.007  0.00  0.00    +0.010 A 
ATOM     24  C   UNL     1      -0.018   1.461   0.010  0.00  0.00    -0.014 A 
ATOM     25  C   UNL     1       1.260   1.871   0.000  0.00  0.00    +0.087 A 
ATOM     26  N   UNL     1       2.097   0.788  -0.014  0.00  0.00    -0.360 N 
ATOM     27  H   UNL     1       3.066   0.833  -0.023  0.00  0.00    +0.165 HD
ENDBRANCH  17  24
ENDBRANCH   1  17
TORSDOF 5
