REMARK  Name = ZINC09324719
REMARK  6 active torsions:
REMARK  status: ('A' for Active; 'I' for Inactive)
REMARK    1  A    between atoms: C_1  and  C_2
REMARK    2  A    between atoms: C_5  and  C_8
REMARK    3  A    between atoms: C_11  and  C_13
REMARK    4  A    between atoms: C_16  and  C_27
REMARK    5  A    between atoms: C_22  and  N_26
REMARK    6  A    between atoms: C_23  and  C_24
REMARK                            x       y       z     vdW  Elec       q    Type
REMARK                         _______ _______ _______ _____ _____    ______ ____
ROOT
ATOM      1  C   UNL     1       0.100  -7.510  -1.672  0.00  0.00    +0.137 C 
ATOM      2  C   UNL     1      -1.121  -7.479  -2.555  0.00  0.00    +0.052 A 
ATOM      3  C   UNL     1      -2.405  -7.725  -2.250  0.00  0.00    +0.041 A 
ATOM      4  N   UNL     1      -3.132  -7.569  -3.380  0.00  0.00    -0.278 N 
ATOM      5  H   UNL     1      -4.092  -7.682  -3.459  0.00  0.00    +0.189 HD
ATOM      6  N   UNL     1      -2.256  -7.213  -4.417  0.00  0.00    -0.135 NA
ATOM      7  C   UNL     1      -1.051  -7.159  -3.929  0.00  0.00    +0.245 A 
ATOM      8  O   UNL     1       0.127  -6.862  -4.540  0.00  0.00    -0.421 OA
ATOM      9  C   UNL     1       1.262  -7.141  -3.869  0.00  0.00    +0.201 C 
ATOM     10  C   UNL     1       1.321  -7.448  -2.556  0.00  0.00    +0.101 C 
ATOM     11  C   UNL     1      -2.939  -8.107  -0.893  0.00  0.00    +0.065 C 
ENDROOT
BRANCH   1  15
ATOM     12  C   UNL     1       0.058  -4.251  -0.021  0.00  0.00    +0.135 A 
ATOM     13  C   UNL     1       0.069  -5.054   1.075  0.00  0.00    +0.050 A 
ATOM     14  C   UNL     1       0.086  -6.383   0.605  0.00  0.00    +0.046 A 
ATOM     15  C   UNL     1       0.085  -6.325  -0.742  0.00  0.00    +0.119 A 
ATOM     16  O   UNL     1       0.062  -5.035  -1.116  0.00  0.00    -0.459 OA
BRANCH  12  21
ATOM     17  C   UNL     1      -0.018   1.503   0.010  0.00  0.00    +0.044 C 
ATOM     18  C   UNL     1       0.002  -0.004   0.002  0.00  0.00    -0.050 A 
ATOM     19  C   UNL     1       0.006  -0.686  -1.202  0.00  0.00    +0.004 A 
ATOM     20  C   UNL     1       0.024  -2.066  -1.216  0.00  0.00    +0.012 A 
ATOM     21  C   UNL     1       0.039  -2.773  -0.013  0.00  0.00    +0.017 A 
ATOM     22  C   UNL     1       0.036  -2.079   1.198  0.00  0.00    +0.012 A 
ATOM     23  C   UNL     1       0.023  -0.699   1.198  0.00  0.00    +0.004 A 
ENDBRANCH  12  21
ENDBRANCH   1  15
BRANCH   9  24
ATOM     24  N   UNL     1       2.442  -7.111  -4.570  0.00  0.00    -0.328 N 
ATOM     25  H   UNL     1       2.439  -6.894  -5.516  0.00  0.00    +0.145 HD
ATOM     26  H   UNL     1       3.279  -7.306  -4.120  0.00  0.00    +0.145 HD
ENDBRANCH   9  24
BRANCH  10  27
ATOM     27  C   UNL     1       2.599  -7.728  -1.974  0.00  0.00    +0.101 C 
ATOM     28  N   UNL     1       3.613  -7.949  -1.513  0.00  0.00    -0.191 NA
ENDBRANCH  10  27
TORSDOF 4
