REMARK  Name = ZINC37463685
REMARK  9 active torsions:
REMARK  status: ('A' for Active; 'I' for Inactive)
REMARK    1  A    between atoms: C_1  and  C_2
REMARK    2  A    between atoms: C_3  and  S_9
REMARK    3  A    between atoms: C_4  and  C_8
REMARK    4  A    between atoms: N_5  and  C_7
REMARK    5  A    between atoms: S_9  and  N_12
REMARK    6  A    between atoms: N_12  and  C_13
REMARK    7  A    between atoms: C_13  and  C_14
REMARK    8  A    between atoms: C_13  and  C_15
REMARK    9  A    between atoms: C_13  and  C_18
REMARK                            x       y       z     vdW  Elec       q    Type
REMARK                         _______ _______ _______ _____ _____    ______ ____
ROOT
ATOM      1  S   UNL     1       0.860  -0.178  -2.805  0.00  0.00    +0.063 S 
ATOM      2  O   UNL     1       0.081  -1.264  -3.290  0.00  0.00    -0.153 OA
ATOM      3  O   UNL     1       0.375   1.157  -2.784  0.00  0.00    -0.153 OA
ENDROOT
BRANCH   1   6
ATOM      4  C   UNL     1       2.596   1.594  -0.591  0.00  0.00    +0.069 C 
ATOM      5  C   UNL     1       2.041   0.229  -0.276  0.00  0.00    +0.086 A 
ATOM      6  C   UNL     1       1.304  -0.579  -1.148  0.00  0.00    +0.148 A 
ATOM      7  C   UNL     1       0.991  -1.721  -0.493  0.00  0.00    +0.062 A 
ATOM      8  N   UNL     1       1.512  -1.640   0.749  0.00  0.00    -0.269 N 
ATOM      9  N   UNL     1       2.171  -0.408   0.860  0.00  0.00    -0.174 NA
ATOM     10  C   UNL     1       1.412  -2.661   1.794  0.00  0.00    +0.172 C 
ATOM     11  C   UNL     1       0.202  -2.877  -1.052  0.00  0.00    +0.067 C 
ENDBRANCH   1   6
BRANCH   1  12
ATOM     12  N   UNL     1       2.256  -0.162  -3.696  0.00  0.00    -0.173 NA
ATOM     13  H   UNL     1       2.578   0.670  -4.077  0.00  0.00    +0.149 HD
BRANCH  12  14
ATOM     14  C   UNL     1       3.004  -1.403  -3.908  0.00  0.00    +0.140 C 
ATOM     15  C   UNL     1       3.258  -2.083  -2.561  0.00  0.00    +0.042 C 
BRANCH  14  16
ATOM     16  C   UNL     1       4.342  -1.083  -4.578  0.00  0.00    +0.022 C 
ATOM     17  C   UNL     1       4.582  -1.647  -5.980  0.00  0.00    +0.006 C 
ATOM     18  C   UNL     1       5.324  -2.239  -4.780  0.00  0.00    +0.006 C 
ENDBRANCH  14  16
BRANCH  14  19
ATOM     19  C   UNL     1       2.206  -2.325  -4.794  0.00  0.00    +0.377 C 
ATOM     20  O   UNL     1       1.215  -1.910  -5.370  0.00  0.00    -0.244 OA
ATOM     21  O   UNL     1       2.552  -3.486  -4.934  0.00  0.00    -0.244 OA
ENDBRANCH  14  19
ENDBRANCH  12  14
ENDBRANCH   1  12
TORSDOF 5
