REMARK  Name = ZINC37032556
REMARK  3 active torsions:
REMARK  status: ('A' for Active; 'I' for Inactive)
REMARK    1  A    between atoms: C_5  and  N_8
REMARK    2  A    between atoms: C_9  and  C_11
REMARK    3  A    between atoms: C_14  and  O_18
REMARK                            x       y       z     vdW  Elec       q    Type
REMARK                         _______ _______ _______ _____ _____    ______ ____
ROOT
ATOM      1  C   UNL     1       0.148   1.382   0.584  0.00  0.00    +0.045 A 
ATOM      2  C   UNL     1       1.167   2.088  -0.027  0.00  0.00    -0.023 A 
ATOM      3  C   UNL     1       2.214   1.411  -0.639  0.00  0.00    +0.039 A 
ATOM      4  C   UNL     1       2.238   0.024  -0.637  0.00  0.00    +0.049 A 
ATOM      5  C   UNL     1       1.215  -0.684  -0.024  0.00  0.00    +0.071 A 
ATOM      6  C   UNL     1       0.168  -0.001   0.588  0.00  0.00    +0.145 A 
ATOM      7  F   UNL     1      -0.829  -0.689   1.186  0.00  0.00    -0.204 F 
ATOM      8  N   UNL     1       3.244   2.131  -1.255  0.00  0.00    -0.285 N 
ATOM      9  C   UNL     1       3.443   3.428  -0.958  0.00  0.00    +0.218 C 
ATOM     10  O   UNL     1       4.331   4.040  -1.512  0.00  0.00    -0.275 OA
ATOM     11  C   UNL     1       2.575   4.127   0.054  0.00  0.00    +0.101 C 
ATOM     12  C   UNL     1       1.145   3.595  -0.031  0.00  0.00    +0.046 C 
ATOM     13  H   UNL     1       3.819   1.691  -1.901  0.00  0.00    +0.155 HD
ENDROOT
BRANCH   5  14
ATOM     14  N   UNL     1       1.235  -2.084  -0.021  0.00  0.00    -0.285 N 
ATOM     15  C   UNL     1       2.406  -2.741  -0.137  0.00  0.00    +0.203 C 
ATOM     16  O   UNL     1       3.450  -2.124  -0.144  0.00  0.00    -0.277 OA
ATOM     17  H   UNL     1       0.406  -2.581   0.066  0.00  0.00    +0.155 HD
BRANCH  15  18
ATOM     18  C   UNL     1       2.418  -4.243  -0.259  0.00  0.00    +0.019 C 
ATOM     19  C   UNL     1       2.306  -4.906   1.137  0.00  0.00    +0.023 C 
ATOM     20  C   UNL     1       2.945  -6.296   0.912  0.00  0.00    +0.097 C 
ATOM     21  C   UNL     1       3.841  -6.130  -0.329  0.00  0.00    -0.050 C 
ATOM     22  N   UNL     1       3.733  -4.718  -0.760  0.00  0.00    +0.388 N 
ATOM     23  H   UNL     1       3.765  -4.655  -1.767  0.00  0.00    -0.085 HD
ATOM     24  H   UNL     1       4.478  -4.173  -0.353  0.00  0.00    -0.085 HD
BRANCH  20  25
ATOM     25  O   UNL     1       1.932  -7.274   0.668  0.00  0.00    -0.394 OA
ATOM     26  H   UNL     1       2.274  -8.166   0.519  0.00  0.00    +0.210 HD
ENDBRANCH  20  25
ENDBRANCH  15  18
ENDBRANCH   5  14
TORSDOF 3
