REMARK  Name = ZINC21513303
REMARK  3 active torsions:
REMARK  status: ('A' for Active; 'I' for Inactive)
REMARK    1  A    between atoms: C_6  and  C_7
REMARK    2  A    between atoms: C_7  and  C_9
REMARK    3  A    between atoms: C_7  and  N_17
REMARK                            x       y       z     vdW  Elec       q    Type
REMARK                         _______ _______ _______ _____ _____    ______ ____
ROOT
ATOM      1  C   UNL     1      -2.553   3.871   0.050  0.00  0.00    -0.012 C 
ENDROOT
BRANCH   1   7
ATOM      2  C   UNL     1      -2.513   4.984   2.291  0.00  0.00    +0.004 A 
ATOM      3  C   UNL     1      -2.950   5.109   3.595  0.00  0.00    +0.028 A 
ATOM      4  C   UNL     1      -3.918   4.246   4.085  0.00  0.00    +0.067 A 
ATOM      5  C   UNL     1      -4.447   3.253   3.257  0.00  0.00    +0.067 A 
ATOM      6  C   UNL     1      -4.006   3.138   1.948  0.00  0.00    +0.030 A 
ATOM      7  C   UNL     1      -3.037   4.000   1.471  0.00  0.00    -0.056 A 
ATOM      8  N   UNL     1      -5.383   2.554   4.016  0.00  0.00    -0.306 N 
ATOM      9  H   UNL     1      -5.937   1.715   3.569  0.00  0.00    +0.170 HD
ATOM     10  C   UNL     1      -5.422   3.097   5.247  0.00  0.00    +0.325 A 
ATOM     11  O   UNL     1      -6.138   2.720   6.157  0.00  0.00    -0.247 OA
ATOM     12  N   UNL     1      -4.550   4.120   5.320  0.00  0.00    -0.306 N 
ATOM     13  H   UNL     1      -4.292   4.803   6.142  0.00  0.00    +0.170 HD
ENDBRANCH   1   7
BRANCH   1  14
ATOM     14  C   UNL     1      -1.238   3.135   0.032  0.00  0.00    -0.039 A 
ATOM     15  C   UNL     1      -0.050   3.842   0.024  0.00  0.00    +0.005 A 
ATOM     16  C   UNL     1       1.156   3.167   0.008  0.00  0.00    +0.020 A 
ATOM     17  C   UNL     1       1.175   1.784   0.000  0.00  0.00    +0.042 A 
ATOM     18  C   UNL     1      -0.013   1.076   0.008  0.00  0.00    +0.040 A 
ATOM     19  C   UNL     1      -1.220   1.752   0.017  0.00  0.00    +0.044 A 
ATOM     20 CL   UNL     1      -2.712   0.864   0.019  0.00  0.00    -0.083 Cl
ATOM     21 CL   UNL     1       2.691   0.937  -0.018  0.00  0.00    -0.083 Cl
ENDBRANCH   1  14
BRANCH   1  22
ATOM     22  N   UNL     1      -2.373   5.209  -0.529  0.00  0.00    +0.385 N 
ATOM     23  H   UNL     1      -2.019   5.115  -1.567  0.00  0.00    -0.089 HD
ATOM     24  H   UNL     1      -1.632   5.767   0.061  0.00  0.00    -0.089 HD
ATOM     25  H   UNL     1      -3.333   5.746  -0.516  0.00  0.00    -0.089 HD
ENDBRANCH   1  22
TORSDOF 3
