REMARK  Name = ZINC65179344
REMARK  9 active torsions:
REMARK  status: ('A' for Active; 'I' for Inactive)
REMARK    1  A    between atoms: C_1  and  C_2
REMARK    2  A    between atoms: C_2  and  C_3
REMARK    3  A    between atoms: C_2  and  C_4
REMARK    4  A    between atoms: C_4  and  N_5
REMARK    5  A    between atoms: N_8  and  N_9
REMARK    6  A    between atoms: C_10  and  C_12
REMARK    7  A    between atoms: C_17  and  C_19
REMARK    8  A    between atoms: C_24  and  O_25
REMARK    9  A    between atoms: O_25  and  C_26
REMARK                            x       y       z     vdW  Elec       q    Type
REMARK                         _______ _______ _______ _____ _____    ______ ____
ROOT
ATOM      1  C   UNL     1      -3.660   1.692   5.549  0.00  0.00    +0.164 C 
ATOM      2  C   UNL     1      -3.687   3.044   4.806  0.00  0.00    +0.033 C 
ATOM      3  C   UNL     1      -4.767   3.845   5.580  0.00  0.00    +0.021 C 
ATOM      4  C   UNL     1      -4.538   3.353   7.031  0.00  0.00    +0.109 C 
ATOM      5  N   UNL     1      -4.202   1.924   6.896  0.00  0.00    -0.286 N 
ATOM      6  C   UNL     1      -4.365   0.985   7.850  0.00  0.00    +0.251 C 
ATOM      7  O   UNL     1      -4.144  -0.183   7.596  0.00  0.00    -0.270 OA
ENDROOT
BRANCH   6   8
ATOM      8  C   UNL     1      -4.811   1.375   9.201  0.00  0.00    +0.080 A 
ATOM      9  C   UNL     1      -4.372   2.576   9.766  0.00  0.00    +0.036 A 
ATOM     10  C   UNL     1      -4.793   2.934  11.029  0.00  0.00    +0.042 A 
ATOM     11  C   UNL     1      -5.650   2.109  11.741  0.00  0.00    +0.023 A 
ATOM     12  C   UNL     1      -6.090   0.921  11.194  0.00  0.00    +0.048 A 
ATOM     13  C   UNL     1      -5.681   0.547   9.922  0.00  0.00    +0.132 A 
ATOM     14 CL   UNL     1      -4.247   4.426  11.731  0.00  0.00    -0.084 Cl
BRANCH  13  15
ATOM     15  O   UNL     1      -6.118  -0.618   9.381  0.00  0.00    -0.494 OA
ATOM     16  C   UNL     1      -7.003  -1.410  10.175  0.00  0.00    +0.277 C 
ENDBRANCH  13  15
ENDBRANCH   6   8
BRANCH   1  18
ATOM     17  N   UNL     1      -1.548   0.910   4.526  0.00  0.00    -0.232 N 
ATOM     18  C   UNL     1      -2.243   1.189   5.647  0.00  0.00    +0.250 C 
ATOM     19  O   UNL     1      -1.727   1.036   6.734  0.00  0.00    -0.272 OA
ATOM     20  H   UNL     1      -1.961   1.032   3.656  0.00  0.00    +0.173 HD
BRANCH  17  24
ATOM     21  N   UNL     1      -0.110   0.333   2.288  0.00  0.00    -0.298 N 
ATOM     22  C   UNL     1       0.464   0.163   3.495  0.00  0.00    +0.316 C 
ATOM     23  O   UNL     1       1.607  -0.243   3.574  0.00  0.00    -0.251 OA
ATOM     24  N   UNL     1      -0.231   0.442   4.616  0.00  0.00    -0.218 N 
ATOM     25  H   UNL     1      -1.022   0.656   2.225  0.00  0.00    +0.150 HD
ATOM     26  H   UNL     1       0.182   0.320   5.486  0.00  0.00    +0.174 HD
BRANCH  21  27
ATOM     27  C   UNL     1       0.645   0.029   1.069  0.00  0.00    +0.108 C 
BRANCH  27  29
ATOM     28  C   UNL     1      -0.539   1.803  -0.233  0.00  0.00    +0.009 C 
ATOM     29  C   UNL     1      -0.230   0.306  -0.155  0.00  0.00    -0.000 C 
ATOM     30  C   UNL     1       0.512  -0.128  -1.421  0.00  0.00    +0.009 C 
ENDBRANCH  27  29
ENDBRANCH  21  27
ENDBRANCH  17  24
ENDBRANCH   1  18
TORSDOF 6
