REMARK  Name = ZINC51117224
REMARK  4 active torsions:
REMARK  status: ('A' for Active; 'I' for Inactive)
REMARK    1  A    between atoms: C_4  and  N_8
REMARK    2  A    between atoms: C_9  and  C_11
REMARK    3  A    between atoms: C_15  and  N_17
REMARK    4  A    between atoms: N_17  and  N_18
REMARK                            x       y       z     vdW  Elec       q    Type
REMARK                         _______ _______ _______ _____ _____    ______ ____
ROOT
ATOM      1  N   UNL     1       3.622  -0.651  -0.037  0.00  0.00    -0.279 N 
ATOM      2  C   UNL     1       3.645  -1.995   0.057  0.00  0.00    +0.268 C 
ATOM      3  O   UNL     1       2.604  -2.622   0.064  0.00  0.00    -0.268 OA
ATOM      4  H   UNL     1       4.452  -0.156  -0.124  0.00  0.00    +0.155 HD
ENDROOT
BRANCH   1   8
ATOM      5  C   UNL     1      -0.015   1.381   0.042  0.00  0.00    +0.016 A 
ATOM      6  C   UNL     1       1.082   1.955  -0.572  0.00  0.00    +0.018 A 
ATOM      7  C   UNL     1       2.290   1.284  -0.601  0.00  0.00    +0.039 A 
ATOM      8  C   UNL     1       2.401   0.031  -0.010  0.00  0.00    +0.049 A 
ATOM      9  C   UNL     1       1.297  -0.543   0.606  0.00  0.00    +0.039 A 
ATOM     10  C   UNL     1       0.092   0.134   0.631  0.00  0.00    +0.020 A 
ATOM     11 BR   UNL     1      -1.412  -0.647   1.470  0.00  0.00    -0.050 Br
ATOM     12 BR   UNL     1       3.790   2.070  -1.442  0.00  0.00    -0.048 Br
ENDBRANCH   1   8
BRANCH   2  13
ATOM     13  C   UNL     1       4.939  -2.708   0.151  0.00  0.00    +0.146 A 
ATOM     14  C   UNL     1       4.955  -4.098   0.243  0.00  0.00    +0.072 A 
ATOM     15  C   UNL     1       6.176  -4.757   0.331  0.00  0.00    +0.026 A 
ATOM     16  C   UNL     1       7.335  -4.004   0.324  0.00  0.00    +0.046 A 
ATOM     17  C   UNL     1       7.248  -2.615   0.230  0.00  0.00    +0.133 A 
ATOM     18  N   UNL     1       6.074  -2.017   0.142  0.00  0.00    -0.225 NA
ATOM     19 CL   UNL     1       3.470  -4.996   0.247  0.00  0.00    -0.081 Cl
BRANCH  17  20
ATOM     20  N   UNL     1       8.410  -1.852   0.224  0.00  0.00    -0.268 N 
ATOM     21  H   UNL     1       9.275  -2.286   0.284  0.00  0.00    +0.167 HD
BRANCH  20  22
ATOM     22  N   UNL     1       8.333  -0.491   0.132  0.00  0.00    -0.255 NA
ATOM     23  H   UNL     1       9.252  -0.076   0.139  0.00  0.00    +0.140 HD
ATOM     24  H   UNL     1       7.817  -0.213  -0.689  0.00  0.00    +0.140 HD
ENDBRANCH  20  22
ENDBRANCH  17  20
ENDBRANCH   2  13
TORSDOF 4
