REMARK  Name = ZINC39482032
REMARK  6 active torsions:
REMARK  status: ('A' for Active; 'I' for Inactive)
REMARK    1  A    between atoms: C_4  and  C_7
REMARK    2  A    between atoms: C_10  and  N_21
REMARK    3  A    between atoms: C_11  and  N_13
REMARK    4  A    between atoms: N_21  and  S_22
REMARK    5  A    between atoms: S_22  and  C_25
REMARK    6  A    between atoms: C_30  and  O_31
REMARK                            x       y       z     vdW  Elec       q    Type
REMARK                         _______ _______ _______ _____ _____    ______ ____
ROOT
ATOM      1  C   UNL     1       3.892  -1.091   1.188  0.00  0.00    -0.016 A 
ATOM      2  C   UNL     1       4.987  -0.268   0.928  0.00  0.00    +0.010 A 
ATOM      3  C   UNL     1       6.204  -0.823   0.588  0.00  0.00    +0.027 A 
ATOM      4  C   UNL     1       6.342  -2.201   0.504  0.00  0.00    +0.069 A 
ATOM      5  C   UNL     1       5.249  -3.030   0.764  0.00  0.00    +0.053 A 
ATOM      6  C   UNL     1       4.029  -2.476   1.111  0.00  0.00    +0.033 A 
ENDROOT
BRANCH   5   7
ATOM      7  N   UNL     1       5.389  -4.421   0.678  0.00  0.00    -0.330 N 
ATOM      8  C   UNL     1       5.779  -5.215   1.853  0.00  0.00    +0.086 C 
ATOM      9  C   UNL     1       6.947  -6.126   1.457  0.00  0.00    -0.060 C 
ATOM     10  N   UNL     1       6.568  -6.924   0.284  0.00  0.00    +0.400 N 
ATOM     11  C   UNL     1       6.345  -6.043  -0.869  0.00  0.00    +0.119 C 
ATOM     12  C   UNL     1       5.142  -5.130  -0.587  0.00  0.00    +0.120 C 
ATOM     13  O   UNL     1       6.079  -6.835  -2.029  0.00  0.00    -0.250 OA
ATOM     14  H   UNL     1       7.307  -7.576   0.070  0.00  0.00    -0.082 HD
ATOM     15  H   UNL     1       5.721  -7.434   0.486  0.00  0.00    -0.082 HD
ENDBRANCH   5   7
BRANCH   1  19
ATOM     16  C   UNL     1       0.144   0.622   2.234  0.00  0.00    +0.000 A 
ATOM     17  C   UNL     1       1.227   1.441   1.971  0.00  0.00    +0.001 A 
ATOM     18  C   UNL     1       2.446   0.891   1.631  0.00  0.00    +0.008 A 
ATOM     19  C   UNL     1       2.585  -0.494   1.553  0.00  0.00    -0.018 A 
ATOM     20  C   UNL     1       1.490  -1.315   1.819  0.00  0.00    +0.008 A 
ATOM     21  C   UNL     1       0.276  -0.753   2.158  0.00  0.00    +0.001 A 
ENDBRANCH   1  19
BRANCH   4  22
ATOM     22  N   UNL     1       7.577  -2.760   0.160  0.00  0.00    -0.214 N 
ATOM     23  H   UNL     1       7.611  -3.567  -0.379  0.00  0.00    +0.174 HD
BRANCH  22  24
ATOM     24  S   UNL     1       8.981  -2.046   0.671  0.00  0.00    +0.076 S 
ATOM     25  O   UNL     1       8.806  -1.747   2.049  0.00  0.00    -0.150 OA
ATOM     26  O   UNL     1      10.046  -2.859   0.197  0.00  0.00    -0.150 OA
BRANCH  24  27
ATOM     27  C   UNL     1       9.115  -0.502  -0.167  0.00  0.00    +0.150 A 
ATOM     28  C   UNL     1       9.097   0.678   0.551  0.00  0.00    +0.032 A 
ATOM     29  C   UNL     1       9.201   1.890  -0.105  0.00  0.00    +0.002 A 
ATOM     30  C   UNL     1       9.324   1.925  -1.482  0.00  0.00    +0.004 A 
ATOM     31  C   UNL     1       9.342   0.748  -2.205  0.00  0.00    +0.047 A 
ATOM     32  C   UNL     1       9.243  -0.470  -1.548  0.00  0.00    +0.143 A 
BRANCH  32  33
ATOM     33  O   UNL     1       9.267  -1.629  -2.256  0.00  0.00    -0.505 OA
ATOM     34  H   UNL     1       8.397  -1.922  -2.560  0.00  0.00    +0.292 HD
ENDBRANCH  32  33
ENDBRANCH  24  27
ENDBRANCH  22  24
ENDBRANCH   4  22
TORSDOF 6
