REMARK  Name = ZINC47830719
REMARK  7 active torsions:
REMARK  status: ('A' for Active; 'I' for Inactive)
REMARK    1  A    between atoms: C_1  and  C_2
REMARK    2  A    between atoms: C_2  and  N_9
REMARK    3  A    between atoms: C_10  and  C_12
REMARK    4  A    between atoms: C_12  and  C_13
REMARK    5  A    between atoms: C_13  and  C_14
REMARK    6  A    between atoms: C_14  and  C_15
REMARK    7  A    between atoms: C_15  and  N_16
REMARK                            x       y       z     vdW  Elec       q    Type
REMARK                         _______ _______ _______ _____ _____    ______ ____
ROOT
ATOM      1  N   UNL     1       0.731  -0.456  -1.186  0.00  0.00    -0.308 N 
ATOM      2  C   UNL     1       0.300  -0.105  -2.414  0.00  0.00    +0.213 C 
ATOM      3  O   UNL     1      -0.690   0.584  -2.536  0.00  0.00    -0.276 OA
ATOM      4  H   UNL     1       1.523  -1.007  -1.089  0.00  0.00    +0.149 HD
ENDROOT
BRANCH   1   6
ATOM      5  C   UNL     1      -0.019   1.526   0.010  0.00  0.00    +0.033 C 
ATOM      6  C   UNL     1       0.002  -0.004   0.002  0.00  0.00    +0.052 C 
ATOM      7  C   UNL     1      -1.436  -0.513  -0.087  0.00  0.00    +0.049 C 
ATOM      8  C   UNL     1      -1.556  -1.909   0.586  0.00  0.00    +0.168 C 
ATOM      9  S   UNL     1      -0.454  -1.644   2.043  0.00  0.00    -0.029 S 
ATOM     10  O   UNL     1      -1.172  -0.949   3.053  0.00  0.00    -0.174 OA
ATOM     11  O   UNL     1       0.202  -2.864   2.361  0.00  0.00    -0.174 OA
ATOM     12  C   UNL     1       0.751  -0.495   1.257  0.00  0.00    +0.191 C 
ENDBRANCH   1   6
BRANCH   2  13
ATOM     13  C   UNL     1       1.050  -0.570  -3.636  0.00  0.00    +0.096 C 
BRANCH  13  14
ATOM     14  C   UNL     1       0.357  -0.037  -4.892  0.00  0.00    +0.011 C 
BRANCH  14  15
ATOM     15  C   UNL     1       1.118  -0.509  -6.133  0.00  0.00    +0.019 C 
BRANCH  15  16
ATOM     16  C   UNL     1       0.425   0.024  -7.389  0.00  0.00    +0.106 C 
BRANCH  16  17
ATOM     17  N   UNL     1       1.154  -0.428  -8.577  0.00  0.00    -0.300 N 
ATOM     18  C   UNL     1       0.724  -0.078  -9.805  0.00  0.00    +0.297 C 
ATOM     19  O   UNL     1      -0.269   0.613  -9.927  0.00  0.00    -0.253 OA
ATOM     20  N   UNL     1       1.394  -0.493 -10.898  0.00  0.00    -0.313 N 
ATOM     21  H   UNL     1       1.946  -0.979  -8.480  0.00  0.00    +0.150 HD
ATOM     22  H   UNL     1       2.186  -1.044 -10.801  0.00  0.00    +0.146 HD
ATOM     23  H   UNL     1       1.084  -0.241 -11.782  0.00  0.00    +0.146 HD
ENDBRANCH  16  17
ENDBRANCH  15  16
ENDBRANCH  14  15
ENDBRANCH  13  14
ENDBRANCH   2  13
TORSDOF 6
