REMARK  Name = ZINC01201097
REMARK  4 active torsions:
REMARK  status: ('A' for Active; 'I' for Inactive)
REMARK    1  A    between atoms: C_2  and  C_3
REMARK    2  A    between atoms: C_3  and  N_4
REMARK    3  A    between atoms: C_8  and  C_9
REMARK    4  A    between atoms: C_12  and  O_16
REMARK                            x       y       z     vdW  Elec       q    Type
REMARK                         _______ _______ _______ _____ _____    ______ ____
ROOT
ATOM      1  N   UNL     1       2.333   0.125  -0.797  0.00  0.00    -0.245 N 
ATOM      2  C   UNL     1       1.298  -0.620  -0.356  0.00  0.00    +0.257 C 
ATOM      3  O   UNL     1       1.477  -1.740   0.084  0.00  0.00    -0.269 OA
ATOM      4  C   UNL     1      -0.058  -0.039  -0.423  0.00  0.00    +0.100 C 
ATOM      5  C   UNL     1      -1.166  -0.742   0.009  0.00  0.00    +0.026 C 
ATOM      6  C   UNL     1      -0.176   1.326  -0.974  0.00  0.00    +0.255 C 
ATOM      7  O   UNL     1      -1.260   1.871  -1.066  0.00  0.00    -0.270 OA
ATOM      8  N   UNL     1       0.950   1.950  -1.377  0.00  0.00    -0.263 N 
ATOM      9  C   UNL     1       2.150   1.359  -1.286  0.00  0.00    +0.146 C 
ATOM     10  S   UNL     1       3.523   2.230  -1.821  0.00  0.00    -0.018 S 
ATOM     11  H   UNL     1       0.890   2.847  -1.741  0.00  0.00    +0.157 HD
ENDROOT
BRANCH   5  12
ATOM     12  C   UNL     1      -2.457  -0.066   0.135  0.00  0.00    -0.021 A 
ATOM     13  C   UNL     1      -2.538   1.188   0.759  0.00  0.00    +0.031 A 
ATOM     14  C   UNL     1      -3.754   1.822   0.870  0.00  0.00    +0.084 A 
ATOM     15  C   UNL     1      -4.905   1.216   0.374  0.00  0.00    +0.153 A 
ATOM     16  C   UNL     1      -4.833  -0.030  -0.242  0.00  0.00    +0.084 A 
ATOM     17  C   UNL     1      -3.621  -0.671  -0.364  0.00  0.00    +0.031 A 
ATOM     18 CL   UNL     1      -6.273  -0.778  -0.858  0.00  0.00    -0.080 Cl
ATOM     19 CL   UNL     1      -3.855   3.377   1.636  0.00  0.00    -0.080 Cl
BRANCH  15  20
ATOM     20  O   UNL     1      -6.103   1.843   0.491  0.00  0.00    -0.504 OA
ATOM     21  H   UNL     1      -6.580   1.632   1.305  0.00  0.00    +0.292 HD
ENDBRANCH  15  20
ENDBRANCH   5  12
BRANCH   1  22
ATOM     22  C   UNL     1       3.688  -0.429  -0.742  0.00  0.00    +0.142 C 
BRANCH  22  24
ATOM     23  C   UNL     1       5.043  -0.840  -2.731  0.00  0.00    +0.005 C 
ATOM     24  C   UNL     1       3.985  -1.158  -2.027  0.00  0.00    -0.015 C 
ENDBRANCH  22  24
ENDBRANCH   1  22
TORSDOF 4
