REMARK  Name = ZINC15959323
REMARK  3 active torsions:
REMARK  status: ('A' for Active; 'I' for Inactive)
REMARK    1  A    between atoms: C_4  and  N_7
REMARK    2  A    between atoms: C_12  and  C_30
REMARK    3  A    between atoms: C_30  and  C_31
REMARK                            x       y       z     vdW  Elec       q    Type
REMARK                         _______ _______ _______ _____ _____    ______ ____
ROOT
ATOM      1  N   UNL     1       3.495  -1.190   0.389  0.00  0.00    -0.210 N 
ATOM      2  C   UNL     1       4.601  -0.607  -0.085  0.00  0.00    +0.232 C 
ATOM      3  O   UNL     1       4.649   0.487  -0.606  0.00  0.00    -0.274 OA
ATOM      4  C   UNL     1       5.784  -1.524   0.129  0.00  0.00    +0.108 C 
ATOM      5  C   UNL     1       6.735  -0.895   1.169  0.00  0.00    +0.072 C 
ATOM      6  N   UNL     1       6.211  -1.343   2.487  0.00  0.00    -0.295 NA
ATOM      7  C   UNL     1       5.786  -2.735   2.250  0.00  0.00    +0.136 C 
ATOM      8  C   UNL     1       5.157  -2.759   0.835  0.00  0.00    +0.123 C 
ATOM      9  C   UNL     1       3.691  -2.398   0.929  0.00  0.00    +0.233 C 
ATOM     10  O   UNL     1       2.828  -3.097   1.416  0.00  0.00    -0.274 OA
ATOM     11  C   UNL     1       4.813  -3.202   3.295  0.00  0.00    +0.005 A 
ATOM     12  C   UNL     1       3.575  -2.759   3.703  0.00  0.00    +0.027 A 
ATOM     13  C   UNL     1       2.904  -3.416   4.720  0.00  0.00    +0.041 A 
ATOM     14  C   UNL     1       3.481  -4.519   5.325  0.00  0.00    +0.022 A 
ATOM     15  C   UNL     1       4.722  -4.965   4.920  0.00  0.00    +0.025 A 
ATOM     16  C   UNL     1       5.403  -4.309   3.897  0.00  0.00    +0.039 A 
ATOM     17  N   UNL     1       6.649  -4.567   3.319  0.00  0.00    -0.283 N 
ATOM     18  C   UNL     1       6.947  -3.687   2.344  0.00  0.00    +0.243 C 
ATOM     19  O   UNL     1       7.956  -3.667   1.671  0.00  0.00    -0.273 OA
ATOM     20 CL   UNL     1       1.342  -2.858   5.235  0.00  0.00    -0.084 Cl
ATOM     21  H   UNL     1       6.929  -1.299   3.195  0.00  0.00    +0.124 HD
ATOM     22  H   UNL     1       7.231  -5.294   3.589  0.00  0.00    +0.155 HD
ENDROOT
BRANCH   1  26
ATOM     23  C   UNL     1      -0.257   0.619   0.214  0.00  0.00    +0.000 A 
ATOM     24  C   UNL     1       0.731   1.156   1.018  0.00  0.00    +0.002 A 
ATOM     25  C   UNL     1       1.975   0.559   1.078  0.00  0.00    +0.024 A 
ATOM     26  C   UNL     1       2.233  -0.582   0.331  0.00  0.00    +0.044 A 
ATOM     27  C   UNL     1       1.239  -1.120  -0.476  0.00  0.00    +0.024 A 
ATOM     28  C   UNL     1      -0.003  -0.518  -0.532  0.00  0.00    +0.002 A 
ENDBRANCH   1  26
BRANCH   5  29
ATOM     29  C   UNL     1       8.163  -1.403   0.960  0.00  0.00    +0.056 C 
BRANCH  29  30
ATOM     30  C   UNL     1       8.904  -0.457   0.050  0.00  0.00    -0.021 A 
ATOM     31  C   UNL     1       9.043  -0.573  -1.280  0.00  0.00    +0.087 A 
ATOM     32  N   UNL     1       9.780   0.472  -1.765  0.00  0.00    -0.360 N 
ATOM     33  H   UNL     1      10.012   0.605  -2.698  0.00  0.00    +0.165 HD
ATOM     34  C   UNL     1      10.143   1.308  -0.733  0.00  0.00    +0.047 A 
ATOM     35  C   UNL     1       9.605   0.766   0.449  0.00  0.00    +0.003 A 
ATOM     36  C   UNL     1       9.811   1.412   1.669  0.00  0.00    +0.010 A 
ATOM     37  C   UNL     1      10.532   2.573   1.708  0.00  0.00    +0.001 A 
ATOM     38  C   UNL     1      11.061   3.114   0.545  0.00  0.00    +0.002 A 
ATOM     39  C   UNL     1      10.878   2.487  -0.668  0.00  0.00    +0.026 A 
ENDBRANCH  29  30
ENDBRANCH   5  29
TORSDOF 3
