REMARK  Name = ZINC04356259
REMARK  5 active torsions:
REMARK  status: ('A' for Active; 'I' for Inactive)
REMARK    1  A    between atoms: C_1  and  C_2
REMARK    2  A    between atoms: C_6  and  N_9
REMARK    3  A    between atoms: C_7  and  C_8
REMARK    4  A    between atoms: C_10  and  C_12
REMARK    5  A    between atoms: N_21  and  C_22
REMARK                            x       y       z     vdW  Elec       q    Type
REMARK                         _______ _______ _______ _____ _____    ______ ____
ROOT
ATOM      1  C   UNL     1       0.810  -4.860   3.499  0.00  0.00    +0.093 C 
ATOM      2  C   UNL     1       0.297  -6.280   3.249  0.00  0.00    +0.016 C 
ATOM      3  C   UNL     1      -0.259  -6.860   4.552  0.00  0.00    +0.020 C 
ATOM      4  C   UNL     1       0.860  -6.927   5.595  0.00  0.00    +0.109 C 
ATOM      5  N   UNL     1       1.457  -5.591   5.736  0.00  0.00    -0.285 N 
ATOM      6  C   UNL     1       1.941  -4.903   4.531  0.00  0.00    +0.122 C 
ATOM      7  C   UNL     1       1.557  -5.008   6.946  0.00  0.00    +0.306 C 
ATOM      8  O   UNL     1       1.944  -3.859   7.037  0.00  0.00    -0.252 OA
ATOM      9  N   UNL     1       1.228  -5.698   8.056  0.00  0.00    -0.269 N 
ATOM     10  H   UNL     1       0.841  -6.584   7.980  0.00  0.00    +0.156 HD
ENDROOT
BRANCH   9  11
ATOM     11  C   UNL     1       1.445  -5.136   9.320  0.00  0.00    +0.035 A 
ATOM     12  C   UNL     1       1.494  -3.756   9.469  0.00  0.00    +0.023 A 
ATOM     13  C   UNL     1       1.707  -3.205  10.717  0.00  0.00    +0.002 A 
ATOM     14  C   UNL     1       1.873  -4.025  11.817  0.00  0.00    +0.000 A 
ATOM     15  C   UNL     1       1.826  -5.400  11.672  0.00  0.00    +0.002 A 
ATOM     16  C   UNL     1       1.607  -5.957  10.428  0.00  0.00    +0.023 A 
ENDBRANCH   9  11
BRANCH   1  18
ATOM     17  N   UNL     1       1.834  -3.029   2.189  0.00  0.00    -0.285 N 
ATOM     18  C   UNL     1       1.328  -4.278   2.209  0.00  0.00    +0.222 C 
ATOM     19  O   UNL     1       1.290  -4.933   1.190  0.00  0.00    -0.275 OA
ATOM     20  H   UNL     1       1.984  -2.552   3.021  0.00  0.00    +0.155 HD
BRANCH  17  26
ATOM     21  C   UNL     1       4.321   0.385  -0.327  0.00  0.00    +0.044 C 
ATOM     22  C   UNL     1       3.344  -0.762  -0.281  0.00  0.00    -0.046 A 
ATOM     23  C   UNL     1       2.752  -1.212  -1.446  0.00  0.00    +0.004 A 
ATOM     24  C   UNL     1       1.855  -2.264  -1.408  0.00  0.00    +0.002 A 
ATOM     25  C   UNL     1       1.549  -2.868  -0.204  0.00  0.00    +0.023 A 
ATOM     26  C   UNL     1       2.142  -2.419   0.968  0.00  0.00    +0.037 A 
ATOM     27  C   UNL     1       3.046  -1.365   0.925  0.00  0.00    -0.026 A 
ATOM     28  C   UNL     1       3.697  -0.877   2.194  0.00  0.00    +0.046 C 
ENDBRANCH  17  26
ENDBRANCH   1  18
TORSDOF 3
