REMARK  Name = ZINC20559736
REMARK  4 active torsions:
REMARK  status: ('A' for Active; 'I' for Inactive)
REMARK    1  A    between atoms: C_3  and  N_9
REMARK    2  A    between atoms: C_6  and  N_7
REMARK    3  A    between atoms: N_9  and  S_10
REMARK    4  A    between atoms: S_10  and  N_13
REMARK                            x       y       z     vdW  Elec       q    Type
REMARK                         _______ _______ _______ _____ _____    ______ ____
ROOT
ATOM      1  N   UNL     1      -4.872   3.687   0.046  0.00  0.00    -0.205 N 
ATOM      2  H   UNL     1      -5.704   3.298   0.652  0.00  0.00    +0.175 HD
ENDROOT
BRANCH   1   5
ATOM      3  C   UNL     1      -1.329   2.785  -0.358  0.00  0.00    +0.024 A 
ATOM      4  C   UNL     1      -2.473   3.541  -0.192  0.00  0.00    +0.028 A 
ATOM      5  C   UNL     1      -3.712   2.920  -0.127  0.00  0.00    +0.067 A 
ATOM      6  C   UNL     1      -3.803   1.538  -0.233  0.00  0.00    +0.065 A 
ATOM      7  C   UNL     1      -2.660   0.782  -0.404  0.00  0.00    +0.044 A 
ATOM      8  C   UNL     1      -1.420   1.404  -0.469  0.00  0.00    +0.026 A 
ATOM      9 CL   UNL     1      -5.354   0.760  -0.152  0.00  0.00    -0.082 Cl
BRANCH   8  10
ATOM     10  N   UNL     1      -0.261   0.638  -0.642  0.00  0.00    -0.358 N 
ATOM     11  H   UNL     1      -0.332  -0.456  -0.730  0.00  0.00    +0.142 HD
ATOM     12  H   UNL     1       0.722   1.130  -0.689  0.00  0.00    +0.142 HD
ENDBRANCH   8  10
ENDBRANCH   1   5
BRANCH   1  13
ATOM     13  S   UNL     1      -4.991   5.180  -0.662  0.00  0.00    +0.112 S 
ATOM     14  O   UNL     1      -6.309   5.645  -0.410  0.00  0.00    -0.138 OA
ATOM     15  O   UNL     1      -3.837   5.909  -0.267  0.00  0.00    -0.138 OA
BRANCH  13  16
ATOM     16  N   UNL     1      -4.872   4.956  -2.298  0.00  0.00    -0.164 NA
ATOM     17  C   UNL     1      -3.564   5.003  -2.911  0.00  0.00    +0.111 C 
ATOM     18  C   UNL     1      -3.227   6.452  -3.321  0.00  0.00    +0.017 C 
ATOM     19  C   UNL     1      -4.049   6.862  -4.470  0.00  0.00    +0.001 C 
ATOM     20  C   UNL     1      -5.549   6.885  -4.193  0.00  0.00    +0.001 C 
ATOM     21  C   UNL     1      -6.117   5.502  -4.400  0.00  0.00    +0.017 C 
ATOM     22  C   UNL     1      -6.107   4.723  -3.072  0.00  0.00    +0.111 C 
ENDBRANCH  13  16
ENDBRANCH   1  13
TORSDOF 4
