REMARK  Name = ZINC40572180
REMARK  4 active torsions:
REMARK  status: ('A' for Active; 'I' for Inactive)
REMARK    1  A    between atoms: C_1  and  C_2
REMARK    2  A    between atoms: C_7  and  N_10
REMARK    3  A    between atoms: N_16  and  C_19
REMARK    4  A    between atoms: C_19  and  C_20
REMARK                            x       y       z     vdW  Elec       q    Type
REMARK                         _______ _______ _______ _____ _____    ______ ____
ROOT
ATOM      1  N   UNL     1       1.474  -2.528   2.417  0.00  0.00    -0.296 N 
ATOM      2  C   UNL     1       1.207  -3.754   2.907  0.00  0.00    +0.302 C 
ATOM      3  O   UNL     1       0.315  -4.422   2.421  0.00  0.00    -0.253 OA
ATOM      4  N   UNL     1       1.928  -4.241   3.937  0.00  0.00    -0.289 N 
ATOM      5  C   UNL     1       2.930  -3.407   4.619  0.00  0.00    +0.091 C 
ATOM      6  C   UNL     1       2.677  -3.480   6.128  0.00  0.00    -0.059 C 
ATOM      7  N   UNL     1       2.667  -4.886   6.554  0.00  0.00    +0.389 N 
ATOM      8  C   UNL     1       1.539  -5.589   5.930  0.00  0.00    -0.059 C 
ATOM      9  C   UNL     1       1.732  -5.618   4.414  0.00  0.00    +0.091 C 
ATOM     10  H   UNL     1       2.136  -1.966   2.850  0.00  0.00    +0.151 HD
ATOM     11  H   UNL     1       3.531  -5.326   6.277  0.00  0.00    -0.081 HD
ENDROOT
BRANCH   1  17
ATOM     12  C   UNL     1      -0.007   1.524   0.002  0.00  0.00    +0.007 C 
ATOM     13  C   UNL     1       0.009  -0.006  -0.004  0.00  0.00    -0.012 C 
ATOM     14  C   UNL     1       0.721  -0.504  -1.262  0.00  0.00    +0.003 C 
ATOM     15  C   UNL     1       0.737  -2.034  -1.268  0.00  0.00    +0.002 C 
ATOM     16  C   UNL     1       1.478  -2.541  -0.029  0.00  0.00    +0.022 C 
ATOM     17  C   UNL     1       0.765  -2.043   1.230  0.00  0.00    +0.075 C 
ATOM     18  C   UNL     1       0.749  -0.513   1.236  0.00  0.00    +0.025 C 
ENDBRANCH   1  17
BRANCH   7  19
ATOM     19  C   UNL     1       2.534  -4.951   8.015  0.00  0.00    +0.048 C 
BRANCH  19  20
ATOM     20  C   UNL     1       2.646  -6.385   8.466  0.00  0.00    +0.340 C 
ATOM     21  O   UNL     1       2.820  -7.270   7.646  0.00  0.00    -0.249 OA
ATOM     22  O   UNL     1       2.563  -6.660   9.651  0.00  0.00    -0.249 OA
ENDBRANCH  19  20
ENDBRANCH   7  19
TORSDOF 3
