REMARK  Name = ZINC64414440
REMARK  11 active torsions:
REMARK  status: ('A' for Active; 'I' for Inactive)
REMARK    1  A    between atoms: C_1  and  C_2
REMARK    2  A    between atoms: C_2  and  C_4
REMARK    3  A    between atoms: C_2  and  N_23
REMARK    4  A    between atoms: N_6  and  C_7
REMARK    5  A    between atoms: C_7  and  C_8
REMARK    6  A    between atoms: C_11  and  C_14
REMARK    7  A    between atoms: C_24  and  O_26
REMARK    8  A    between atoms: O_26  and  C_27
REMARK    9  A    between atoms: C_27  and  C_28
REMARK   10  A    between atoms: C_27  and  C_29
REMARK   11  A    between atoms: C_27  and  C_30
REMARK                            x       y       z     vdW  Elec       q    Type
REMARK                         _______ _______ _______ _____ _____    ______ ____
ROOT
ATOM      1  C   UNL     1       0.270  -0.182   4.899  0.00  0.00    +0.006 C 
ATOM      2  C   UNL     1       0.358   1.343   4.971  0.00  0.00    +0.005 C 
ATOM      3  C   UNL     1       1.827   1.768   5.020  0.00  0.00    +0.008 C 
ATOM      4  C   UNL     1       2.492   1.160   6.257  0.00  0.00    +0.032 C 
ATOM      5  C   UNL     1       2.404  -0.366   6.185  0.00  0.00    +0.008 C 
ATOM      6  C   UNL     1       0.935  -0.790   6.135  0.00  0.00    +0.005 C 
ENDROOT
BRANCH   4   7
ATOM      7  C   UNL     1       3.961   1.584   6.306  0.00  0.00    +0.177 C 
ATOM      8  N   UNL     1       4.594   1.068   7.526  0.00  0.00    -0.363 N 
ATOM      9  C   UNL     1       5.008   2.092   8.215  0.00  0.00    +0.060 A 
ATOM     10  C   UNL     1       5.705   2.214   9.503  0.00  0.00    +0.027 A 
ATOM     11  C   UNL     1       6.013   3.437   9.979  0.00  0.00    +0.002 A 
ATOM     12  C   UNL     1       5.693   4.621   9.291  0.00  0.00    +0.002 A 
ATOM     13  C   UNL     1       5.055   4.622   8.104  0.00  0.00    +0.027 A 
ATOM     14  C   UNL     1       4.670   3.345   7.487  0.00  0.00    +0.060 A 
ATOM     15  N   UNL     1       4.061   3.048   6.375  0.00  0.00    -0.363 N 
ATOM     16  H   UNL     1       4.687   0.135   7.774  0.00  0.00    +0.162 HD
ATOM     17  H   UNL     1       3.733   3.677   5.714  0.00  0.00    +0.162 HD
ENDBRANCH   4   7
BRANCH   1  18
ATOM     18  C   UNL     1       0.986  -0.676   3.640  0.00  0.00    +0.107 C 
BRANCH  18  21
ATOM     19  C   UNL     1       0.731  -0.503   1.223  0.00  0.00    +0.233 C 
ATOM     20  O   UNL     1       1.725  -1.187   1.099  0.00  0.00    -0.274 OA
ATOM     21  N   UNL     1       0.278  -0.191   2.453  0.00  0.00    -0.314 N 
ATOM     22  H   UNL     1      -0.517   0.356   2.553  0.00  0.00    +0.149 HD
BRANCH  19  24
ATOM     23  C   UNL     1      -0.019   1.526   0.010  0.00  0.00    +0.038 C 
ATOM     24  C   UNL     1       0.002  -0.004   0.002  0.00  0.00    +0.159 C 
BRANCH  24  25
ATOM     25  N   UNL     1       0.688  -0.476  -1.203  0.00  0.00    -0.270 N 
ATOM     26  C   UNL     1       0.006  -0.608  -2.358  0.00  0.00    +0.401 C 
ATOM     27  O   UNL     1      -1.177  -0.335  -2.400  0.00  0.00    -0.226 OA
ATOM     28  H   UNL     1       1.632  -0.695  -1.170  0.00  0.00    +0.153 HD
BRANCH  26  29
ATOM     29  O   UNL     1       0.636  -1.042  -3.466  0.00  0.00    -0.445 OA
BRANCH  29  30
ATOM     30  C   UNL     1      -0.148  -1.158  -4.655  0.00  0.00    +0.107 C 
ATOM     31  C   UNL     1      -0.725   0.211  -5.021  0.00  0.00    +0.055 C 
ATOM     32  C   UNL     1       0.734  -1.662  -5.800  0.00  0.00    +0.055 C 
ATOM     33  C   UNL     1      -1.291  -2.147  -4.418  0.00  0.00    +0.055 C 
ENDBRANCH  29  30
ENDBRANCH  26  29
ENDBRANCH  24  25
ENDBRANCH  19  24
ENDBRANCH  18  21
ENDBRANCH   1  18
TORSDOF 7
