REMARK  Name = ZINC44828421
REMARK  5 active torsions:
REMARK  status: ('A' for Active; 'I' for Inactive)
REMARK    1  A    between atoms: C_1  and  C_2
REMARK    2  A    between atoms: C_2  and  C_3
REMARK    3  A    between atoms: C_3  and  C_5
REMARK    4  A    between atoms: C_3  and  C_8
REMARK    5  A    between atoms: C_5  and  N_7
REMARK                            x       y       z     vdW  Elec       q    Type
REMARK                         _______ _______ _______ _____ _____    ______ ____
ROOT
ATOM      1  C   UNL     1       0.595  -0.456  -1.230  0.00  0.00    +0.126 C 
ENDROOT
BRANCH   1   2
ATOM      2  C   UNL     1       1.960   0.046  -0.835  0.00  0.00    +0.225 C 
ATOM      3  O   UNL     1       2.880  -0.735  -0.710  0.00  0.00    -0.275 OA
ATOM      4  N   UNL     1       2.159   1.361  -0.619  0.00  0.00    -0.301 N 
ATOM      5  C   UNL     1       1.116   2.397  -0.626  0.00  0.00    +0.108 C 
ATOM      6  C   UNL     1       1.812   3.749  -0.359  0.00  0.00    +0.020 C 
ATOM      7  C   UNL     1       3.280   3.473  -0.779  0.00  0.00    +0.020 C 
ATOM      8  C   UNL     1       3.457   1.998  -0.332  0.00  0.00    +0.108 C 
ENDBRANCH   1   2
BRANCH   1  10
ATOM      9  C   UNL     1       0.410  -1.910   0.793  0.00  0.00    +0.005 C 
ATOM     10  C   UNL     1       0.417  -1.893  -0.737  0.00  0.00    +0.016 C 
ENDBRANCH   1  10
BRANCH   1  11
ATOM     11  C   UNL     1       0.462  -0.419  -2.731  0.00  0.00    +0.058 C 
ATOM     12  S   UNL     1       1.769  -0.334  -3.647  0.00  0.00    -0.040 S 
BRANCH  11  13
ATOM     13  N   UNL     1      -0.759  -0.459  -3.300  0.00  0.00    -0.355 N 
ATOM     14  H   UNL     1      -1.552  -0.511  -2.744  0.00  0.00    +0.143 HD
ATOM     15  H   UNL     1      -0.845  -0.436  -4.266  0.00  0.00    +0.143 HD
ENDBRANCH  11  13
ENDBRANCH   1  11
TORSDOF 4
