REMARK  Name = ZINC15959323
REMARK  3 active torsions:
REMARK  status: ('A' for Active; 'I' for Inactive)
REMARK    1  A    between atoms: C_4  and  N_7
REMARK    2  A    between atoms: C_12  and  C_30
REMARK    3  A    between atoms: C_30  and  C_31
REMARK                            x       y       z     vdW  Elec       q    Type
REMARK                         _______ _______ _______ _____ _____    ______ ____
ROOT
ATOM      1  N   UNL     1       3.624  -0.652  -0.037  0.00  0.00    -0.210 N 
ATOM      2  C   UNL     1       4.801  -0.025  -0.139  0.00  0.00    +0.232 C 
ATOM      3  O   UNL     1       4.950   1.175  -0.229  0.00  0.00    -0.274 OA
ATOM      4  C   UNL     1       5.917  -1.044  -0.123  0.00  0.00    +0.108 C 
ATOM      5  C   UNL     1       6.603  -1.072  -1.505  0.00  0.00    +0.072 C 
ATOM      6  N   UNL     1       5.802  -2.033  -2.309  0.00  0.00    -0.295 NA
ATOM      7  C   UNL     1       5.456  -3.102  -1.355  0.00  0.00    +0.136 C 
ATOM      8  C   UNL     1       5.163  -2.399  -0.006  0.00  0.00    +0.123 C 
ATOM      9  C   UNL     1       3.710  -1.984   0.053  0.00  0.00    +0.233 C 
ATOM     10  O   UNL     1       2.770  -2.741   0.161  0.00  0.00    -0.274 OA
ATOM     11  C   UNL     1       6.569  -4.102  -1.218  0.00  0.00    +0.005 A 
ATOM     12  C   UNL     1       7.888  -4.006  -0.832  0.00  0.00    +0.027 A 
ATOM     13  C   UNL     1       8.686  -5.136  -0.808  0.00  0.00    +0.041 A 
ATOM     14  C   UNL     1       8.156  -6.362  -1.172  0.00  0.00    +0.022 A 
ATOM     15  C   UNL     1       6.836  -6.462  -1.559  0.00  0.00    +0.025 A 
ATOM     16  C   UNL     1       6.026  -5.329  -1.587  0.00  0.00    +0.039 A 
ATOM     17  N   UNL     1       4.682  -5.176  -1.937  0.00  0.00    -0.283 N 
ATOM     18  C   UNL     1       4.271  -3.898  -1.828  0.00  0.00    +0.243 C 
ATOM     19  O   UNL     1       3.160  -3.472  -2.065  0.00  0.00    -0.273 OA
ATOM     20 CL   UNL     1      10.349  -5.017  -0.322  0.00  0.00    -0.084 Cl
ATOM     21  H   UNL     1       4.971  -1.593  -2.676  0.00  0.00    +0.124 HD
ATOM     22  H   UNL     1       4.111  -5.906  -2.225  0.00  0.00    +0.155 HD
ENDROOT
BRANCH   1  26
ATOM     23  C   UNL     1      -0.016   1.380   0.011  0.00  0.00    +0.000 A 
ATOM     24  C   UNL     1       0.420   0.718   1.145  0.00  0.00    +0.002 A 
ATOM     25  C   UNL     1       1.626   0.044   1.131  0.00  0.00    +0.024 A 
ATOM     26  C   UNL     1       2.399   0.031  -0.021  0.00  0.00    +0.044 A 
ATOM     27  C   UNL     1       1.958   0.695  -1.157  0.00  0.00    +0.024 A 
ATOM     28  C   UNL     1       0.752   1.368  -1.138  0.00  0.00    +0.002 A 
ENDBRANCH   1  26
BRANCH   5  29
ATOM     29  C   UNL     1       6.570   0.318  -2.143  0.00  0.00    +0.056 C 
BRANCH  29  30
ATOM     30  C   UNL     1       7.350   0.297  -3.432  0.00  0.00    -0.021 A 
ATOM     31  C   UNL     1       8.638   0.639  -3.592  0.00  0.00    +0.087 A 
ATOM     32  N   UNL     1       9.001   0.493  -4.903  0.00  0.00    -0.360 N 
ATOM     33  H   UNL     1       9.883   0.680  -5.261  0.00  0.00    +0.165 HD
ATOM     34  C   UNL     1       7.928   0.043  -5.638  0.00  0.00    +0.047 A 
ATOM     35  C   UNL     1       6.848  -0.106  -4.748  0.00  0.00    +0.003 A 
ATOM     36  C   UNL     1       5.615  -0.560  -5.219  0.00  0.00    +0.010 A 
ATOM     37  C   UNL     1       5.463  -0.862  -6.543  0.00  0.00    +0.001 A 
ATOM     38  C   UNL     1       6.526  -0.721  -7.424  0.00  0.00    +0.002 A 
ATOM     39  C   UNL     1       7.750  -0.265  -6.983  0.00  0.00    +0.026 A 
ENDBRANCH  29  30
ENDBRANCH   5  29
TORSDOF 3
