REMARK  Name = ZINC45111962
REMARK  10 active torsions:
REMARK  status: ('A' for Active; 'I' for Inactive)
REMARK    1  A    between atoms: C_1  and  C_2
REMARK    2  A    between atoms: C_2  and  C_3
REMARK    3  A    between atoms: C_6  and  C_9
REMARK    4  A    between atoms: C_6  and  N_12
REMARK    5  A    between atoms: N_15  and  C_16
REMARK    6  A    between atoms: C_16  and  C_17
REMARK    7  A    between atoms: C_17  and  C_19
REMARK    8  A    between atoms: C_17  and  N_20
REMARK    9  A    between atoms: N_20  and  C_21
REMARK   10  A    between atoms: N_20  and  C_22
REMARK                            x       y       z     vdW  Elec       q    Type
REMARK                         _______ _______ _______ _____ _____    ______ ____
ROOT
ATOM      1  N   UNL     1      -0.394  -2.936  -4.069  0.00  0.00    -0.284 N 
ATOM      2  C   UNL     1      -0.594  -4.254  -3.868  0.00  0.00    +0.300 C 
ATOM      3  O   UNL     1       0.355  -5.013  -3.819  0.00  0.00    -0.253 OA
ATOM      4  N   UNL     1      -1.846  -4.730  -3.722  0.00  0.00    -0.301 N 
ATOM      5  H   UNL     1      -1.150  -2.331  -4.108  0.00  0.00    +0.151 HD
ATOM      6  H   UNL     1      -2.603  -4.125  -3.761  0.00  0.00    +0.150 HD
ENDROOT
BRANCH   1  10
ATOM      7  C   UNL     1       1.070  -0.551  -1.974  0.00  0.00    -0.011 C 
ATOM      8  C   UNL     1       0.256  -0.241  -3.231  0.00  0.00    +0.006 C 
ATOM      9  C   UNL     1       0.915  -0.904  -4.442  0.00  0.00    +0.038 C 
ATOM     10  C   UNL     1       0.968  -2.418  -4.229  0.00  0.00    +0.137 C 
ATOM     11  C   UNL     1       1.782  -2.729  -2.971  0.00  0.00    +0.038 C 
ATOM     12  C   UNL     1       1.123  -2.065  -1.760  0.00  0.00    +0.006 C 
BRANCH  10  13
ATOM     13  C   UNL     1       1.617  -3.072  -5.422  0.00  0.00    +0.379 C 
ATOM     14  O   UNL     1       2.759  -2.778  -5.731  0.00  0.00    -0.244 OA
ATOM     15  O   UNL     1       1.000  -3.893  -6.078  0.00  0.00    -0.244 OA
ENDBRANCH  10  13
BRANCH   7  17
ATOM     16  C   UNL     1       0.471   1.633  -0.919  0.00  0.00    +0.004 C 
ATOM     17  C   UNL     1       0.411   0.112  -0.763  0.00  0.00    -0.000 C 
ENDBRANCH   7  17
ENDBRANCH   1  10
BRANCH   4  18
ATOM     18  C   UNL     1      -2.064  -6.162  -3.503  0.00  0.00    +0.090 C 
BRANCH  18  19
ATOM     19  C   UNL     1      -3.551  -6.419  -3.252  0.00  0.00    -0.055 C 
ATOM     20  C   UNL     1      -3.792  -7.923  -3.108  0.00  0.00    -0.012 C 
BRANCH  19  21
ATOM     21  N   UNL     1      -4.335  -5.904  -4.383  0.00  0.00    +0.379 N 
ATOM     22  C   UNL     1      -4.013  -6.673  -5.593  0.00  0.00    -0.096 C 
ATOM     23  C   UNL     1      -5.768  -6.037  -4.086  0.00  0.00    -0.096 C 
ATOM     24  H   UNL     1      -4.111  -4.932  -4.532  0.00  0.00    -0.082 HD
ENDBRANCH  19  21
ENDBRANCH  18  19
ENDBRANCH   4  18
TORSDOF 6
