REMARK  Name = ZINC19436208
REMARK  4 active torsions:
REMARK  status: ('A' for Active; 'I' for Inactive)
REMARK    1  A    between atoms: N_11  and  C_15
REMARK    2  A    between atoms: C_15  and  C_16
REMARK    3  A    between atoms: C_16  and  C_17
REMARK    4  A    between atoms: C_17  and  N_19
REMARK                            x       y       z     vdW  Elec       q    Type
REMARK                         _______ _______ _______ _____ _____    ______ ____
ROOT
ATOM      1  C   UNL     1      -3.223   0.267  -0.029  0.00  0.00    +0.000 C 
ATOM      2  C   UNL     1      -3.058   1.158  -1.253  0.00  0.00    +0.000 C 
ATOM      3  C   UNL     1      -1.655   0.998  -1.838  0.00  0.00    +0.003 C 
ATOM      4  C   UNL     1      -0.689   2.017  -1.240  0.00  0.00    +0.035 C 
ATOM      5  C   UNL     1      -0.018   1.463   0.010  0.00  0.00    +0.113 C 
ATOM      6  C   UNL     1      -0.663   1.977   1.289  0.00  0.00    +0.035 C 
ATOM      7  C   UNL     1      -2.149   2.271   1.106  0.00  0.00    +0.003 C 
ATOM      8  C   UNL     1      -2.975   1.005   1.278  0.00  0.00    +0.000 C 
ATOM      9  C   UNL     1       1.452   1.841  -0.002  0.00  0.00    +0.247 C 
ATOM     10  O   UNL     1       1.912   2.962   0.013  0.00  0.00    -0.273 OA
ATOM     11  N   UNL     1       2.127   0.675  -0.035  0.00  0.00    -0.224 N 
ATOM     12  C   UNL     1       1.297  -0.375  -0.041  0.00  0.00    +0.309 C 
ATOM     13  O   UNL     1       1.668  -1.531  -0.076  0.00  0.00    -0.252 OA
ATOM     14  N   UNL     1       0.002  -0.004   0.002  0.00  0.00    -0.285 N 
ATOM     15  H   UNL     1      -0.943  -0.567   0.029  0.00  0.00    +0.151 HD
ENDROOT
BRANCH  11  16
ATOM     16  C   UNL     1       3.588   0.568  -0.061  0.00  0.00    +0.124 C 
BRANCH  16  17
ATOM     17  C   UNL     1       4.073   0.557  -1.512  0.00  0.00    +0.078 C 
BRANCH  17  18
ATOM     18  C   UNL     1       5.576   0.447  -1.538  0.00  0.00    +0.048 C 
ATOM     19  S   UNL     1       6.396   0.364  -0.168  0.00  0.00    -0.041 S 
BRANCH  18  20
ATOM     20  N   UNL     1       6.229   0.419  -2.717  0.00  0.00    -0.355 N 
ATOM     21  H   UNL     1       7.326   0.339  -2.736  0.00  0.00    +0.143 HD
ATOM     22  H   UNL     1       5.665   0.477  -3.660  0.00  0.00    +0.143 HD
ENDBRANCH  18  20
ENDBRANCH  17  18
ENDBRANCH  16  17
ENDBRANCH  11  16
TORSDOF 4
