REMARK  Name = ZINC00872966
REMARK  7 active torsions:
REMARK  status: ('A' for Active; 'I' for Inactive)
REMARK    1  A    between atoms: C_1  and  C_2
REMARK    2  A    between atoms: C_2  and  O_3
REMARK    3  A    between atoms: O_3  and  C_4
REMARK    4  A    between atoms: C_4  and  C_6
REMARK    5  A    between atoms: C_7  and  C_27
REMARK    6  A    between atoms: C_12  and  C_14
REMARK    7  A    between atoms: C_17  and  C_19
REMARK                            x       y       z     vdW  Elec       q    Type
REMARK                         _______ _______ _______ _____ _____    ______ ____
ROOT
ATOM      1  C   UNL     1       1.423  -2.326  -2.478  0.00  0.00    +0.081 C 
ATOM      2  C   UNL     1       1.637  -3.654  -2.610  0.00  0.00    +0.019 C 
ATOM      3  N   UNL     1       2.263  -4.160  -3.712  0.00  0.00    -0.300 N 
ATOM      4  C   UNL     1       2.714  -3.405  -4.722  0.00  0.00    +0.135 C 
ATOM      5  S   UNL     1       3.488  -4.169  -6.044  0.00  0.00    -0.019 S 
ATOM      6  N   UNL     1       2.579  -2.064  -4.731  0.00  0.00    -0.312 N 
ATOM      7  C   UNL     1       1.911  -1.419  -3.588  0.00  0.00    +0.177 C 
ATOM      8  C   UNL     1       1.173  -4.591  -1.525  0.00  0.00    +0.061 C 
ATOM      9  H   UNL     1       2.391  -5.120  -3.765  0.00  0.00    +0.154 HD
ATOM     10  H   UNL     1       2.913  -1.537  -5.473  0.00  0.00    +0.149 HD
ENDROOT
BRANCH   7  11
ATOM     11  C   UNL     1       0.726  -0.651  -4.116  0.00  0.00    +0.131 A 
ATOM     12  C   UNL     1       0.408   0.618  -3.796  0.00  0.00    +0.047 A 
ATOM     13  C   UNL     1      -0.765   0.942  -4.508  0.00  0.00    +0.050 A 
ATOM     14  C   UNL     1      -1.101  -0.160  -5.230  0.00  0.00    +0.137 A 
ATOM     15  O   UNL     1      -0.184  -1.116  -4.987  0.00  0.00    -0.457 OA
BRANCH  14  16
ATOM     16  C   UNL     1      -2.266  -0.284  -6.131  0.00  0.00    +0.037 A 
ATOM     17  C   UNL     1      -3.539   0.074  -5.684  0.00  0.00    +0.033 A 
ATOM     18  C   UNL     1      -4.622  -0.039  -6.533  0.00  0.00    +0.042 A 
ATOM     19  C   UNL     1      -4.449  -0.518  -7.821  0.00  0.00    +0.021 A 
ATOM     20  C   UNL     1      -3.191  -0.880  -8.268  0.00  0.00    +0.022 A 
ATOM     21  C   UNL     1      -2.099  -0.767  -7.431  0.00  0.00    +0.052 A 
ATOM     22 CL   UNL     1      -0.521  -1.222  -7.994  0.00  0.00    -0.083 Cl
ATOM     23 CL   UNL     1      -6.205   0.413  -5.982  0.00  0.00    -0.084 Cl
ENDBRANCH  14  16
ENDBRANCH   7  11
BRANCH   1  24
ATOM     24  C   UNL     1       0.769  -1.801  -1.339  0.00  0.00    +0.339 C 
ATOM     25  O   UNL     1       0.295  -2.554  -0.508  0.00  0.00    -0.245 OA
BRANCH  24  26
ATOM     26  O   UNL     1       0.671  -0.466  -1.173  0.00  0.00    -0.462 OA
BRANCH  26  28
ATOM     27  C   UNL     1      -0.013   1.525   0.015  0.00  0.00    +0.048 C 
ATOM     28  C   UNL     1      -0.002  -0.005   0.001  0.00  0.00    +0.229 C 
ENDBRANCH  26  28
ENDBRANCH  24  26
ENDBRANCH   1  24
TORSDOF 5
