REMARK  Name = ZINC55330058
REMARK  4 active torsions:
REMARK  status: ('A' for Active; 'I' for Inactive)
REMARK    1  A    between atoms: C_1  and  C_2
REMARK    2  A    between atoms: C_5  and  C_9
REMARK    3  A    between atoms: C_6  and  C_8
REMARK    4  A    between atoms: C_18  and  N_21
REMARK                            x       y       z     vdW  Elec       q    Type
REMARK                         _______ _______ _______ _____ _____    ______ ____
ROOT
ATOM      1  C   UNL     1      -0.246  -3.931   0.244  0.00  0.00    +0.253 C 
ATOM      2  O   UNL     1      -0.273  -2.719   0.336  0.00  0.00    -0.270 OA
ATOM      3  N   UNL     1      -0.338  -4.517  -0.966  0.00  0.00    -0.267 N 
ATOM      4  C   UNL     1      -0.364  -5.981  -1.086  0.00  0.00    +0.114 C 
ATOM      5  C   UNL     1       0.580  -6.374  -2.230  0.00  0.00    +0.024 C 
ATOM      6  C   UNL     1       0.044  -5.787  -3.536  0.00  0.00    +0.038 C 
ATOM      7  C   UNL     1      -0.231  -4.315  -3.380  0.00  0.00    -0.026 A 
ATOM      8  C   UNL     1      -0.417  -3.741  -2.129  0.00  0.00    +0.041 A 
ATOM      9  C   UNL     1      -0.679  -2.381  -2.017  0.00  0.00    +0.046 A 
ATOM     10  C   UNL     1      -0.758  -1.594  -3.157  0.00  0.00    +0.026 A 
ATOM     11  C   UNL     1      -0.574  -2.171  -4.407  0.00  0.00    +0.023 A 
ATOM     12  C   UNL     1      -0.303  -3.524  -4.514  0.00  0.00    +0.007 A 
ENDROOT
BRANCH   1  17
ATOM     13  C   UNL     1       0.389  -7.060   4.977  0.00  0.00    +0.065 C 
ATOM     14  C   UNL     1       0.201  -6.248   3.721  0.00  0.00    +0.039 A 
ATOM     15  C   UNL     1      -0.834  -6.560   2.858  0.00  0.00    +0.024 A 
ATOM     16  C   UNL     1      -1.004  -5.812   1.706  0.00  0.00    +0.016 A 
ATOM     17  C   UNL     1      -0.112  -4.761   1.460  0.00  0.00    +0.058 A 
ATOM     18  C   UNL     1       0.906  -4.512   2.381  0.00  0.00    +0.051 A 
ATOM     19  N   UNL     1       1.024  -5.249   3.466  0.00  0.00    -0.256 NA
ATOM     20  C   UNL     1       1.877  -3.386   2.134  0.00  0.00    +0.066 C 
ENDBRANCH   1  17
BRANCH  10  21
ATOM     21  N   UNL     1      -1.022  -0.227  -3.047  0.00  0.00    -0.358 N 
ATOM     22  H   UNL     1      -1.227   0.160  -2.182  0.00  0.00    +0.142 HD
ATOM     23  H   UNL     1      -0.999   0.336  -3.837  0.00  0.00    +0.142 HD
ENDBRANCH  10  21
TORSDOF 2
