REMARK  Name = ZINC41030105
REMARK  5 active torsions:
REMARK  status: ('A' for Active; 'I' for Inactive)
REMARK    1  A    between atoms: C_3  and  S_15
REMARK    2  A    between atoms: C_6  and  N_7
REMARK    3  A    between atoms: C_11  and  N_14
REMARK    4  A    between atoms: S_15  and  N_18
REMARK    5  A    between atoms: N_18  and  C_19
REMARK                            x       y       z     vdW  Elec       q    Type
REMARK                         _______ _______ _______ _____ _____    ______ ____
ROOT
ATOM      1  C   UNL     1      -0.017   1.385  -0.007  0.00  0.00    +0.025 A 
ATOM      2  C   UNL     1       1.171   2.090  -0.014  0.00  0.00    +0.030 A 
ATOM      3  C   UNL     1       2.377   1.415  -0.013  0.00  0.00    +0.105 A 
ATOM      4  C   UNL     1       2.400   0.032  -0.005  0.00  0.00    +0.030 A 
ATOM      5  C   UNL     1       1.216  -0.679   0.003  0.00  0.00    +0.025 A 
ATOM      6  C   UNL     1       0.002  -0.004   0.002  0.00  0.00    +0.030 A 
ENDROOT
BRANCH   6   7
ATOM      7  N   UNL     1      -1.197  -0.720   0.010  0.00  0.00    -0.331 N 
ATOM      8  C   UNL     1      -2.485  -0.023   0.131  0.00  0.00    +0.105 C 
ATOM      9  C   UNL     1      -3.268  -0.633   1.297  0.00  0.00    +0.017 C 
ATOM     10  C   UNL     1      -3.389  -2.145   1.091  0.00  0.00    -0.013 C 
ATOM     11  C   UNL     1      -1.992  -2.771   1.067  0.00  0.00    -0.058 C 
ATOM     12  C   UNL     1      -1.195  -2.185  -0.108  0.00  0.00    +0.089 C 
BRANCH  11  13
ATOM     13  N   UNL     1      -2.111  -4.226   0.901  0.00  0.00    +0.381 N 
ATOM     14  H   UNL     1      -2.584  -4.428   0.034  0.00  0.00    -0.090 HD
ATOM     15  H   UNL     1      -1.190  -4.638   0.885  0.00  0.00    -0.090 HD
ATOM     16  H   UNL     1      -2.638  -4.610   1.670  0.00  0.00    -0.090 HD
ENDBRANCH  11  13
ENDBRANCH   6   7
BRANCH   3  17
ATOM     17  S   UNL     1       3.890   2.319  -0.024  0.00  0.00    +0.059 S 
ATOM     18  O   UNL     1       4.876   1.454  -0.572  0.00  0.00    -0.153 OA
ATOM     19  O   UNL     1       3.598   3.592  -0.583  0.00  0.00    -0.153 OA
BRANCH  17  20
ATOM     20  N   UNL     1       4.315   2.580   1.555  0.00  0.00    -0.187 NA
ATOM     21  H   UNL     1       4.340   3.484   1.907  0.00  0.00    +0.148 HD
BRANCH  20  22
ATOM     22  C   UNL     1       4.654   1.448   2.420  0.00  0.00    +0.077 C 
ATOM     23  C   UNL     1       4.281   1.552   3.900  0.00  0.00    +0.022 C 
ATOM     24  C   UNL     1       5.745   1.662   3.470  0.00  0.00    +0.022 C 
ENDBRANCH  20  22
ENDBRANCH  17  20
ENDBRANCH   3  17
TORSDOF 5
