REMARK  Name = ZINC04074017
REMARK  7 active torsions:
REMARK  status: ('A' for Active; 'I' for Inactive)
REMARK    1  A    between atoms: C_1  and  C_2
REMARK    2  A    between atoms: C_11  and  C_25
REMARK    3  A    between atoms: C_17  and  C_22
REMARK    4  A    between atoms: C_22  and  C_24
REMARK    5  A    between atoms: C_26  and  C_35
REMARK    6  A    between atoms: C_27  and  O_34
REMARK    7  A    between atoms: C_29  and  O_33
REMARK                            x       y       z     vdW  Elec       q    Type
REMARK                         _______ _______ _______ _____ _____    ______ ____
ROOT
ATOM      1  C   UNL     1       8.397   0.331   1.499  0.00  0.00    +0.010 C 
ATOM      2  C   UNL     1       6.993  -0.264   1.379  0.00  0.00    +0.019 C 
ATOM      3  C   UNL     1       5.965   0.849   1.251  0.00  0.00    +0.010 C 
ATOM      4  C   UNL     1       4.553   0.313   1.089  0.00  0.00    -0.003 C 
ATOM      5  C   UNL     1       4.437  -0.793   0.059  0.00  0.00    +0.001 C 
ATOM      6  C   UNL     1       4.219  -0.223  -1.342  0.00  0.00    +0.005 C 
ATOM      7  C   UNL     1       2.801   0.369  -1.434  0.00  0.00    +0.008 C 
ATOM      8  C   UNL     1       2.394   0.808  -0.038  0.00  0.00    -0.016 C 
ATOM      9  C   UNL     1       3.628   1.446   0.653  0.00  0.00    -0.000 C 
ATOM     10  C   UNL     1       2.985   2.204   1.826  0.00  0.00    +0.009 C 
ATOM     11  C   UNL     1       1.690   2.788   1.197  0.00  0.00    +0.003 C 
ATOM     12  C   UNL     1       1.356   1.937  -0.009  0.00  0.00    +0.037 C 
ATOM     13  C   UNL     1       1.326   2.661  -1.334  0.00  0.00    +0.015 C 
ATOM     14  C   UNL     1       0.725   4.051  -1.186  0.00  0.00    +0.001 C 
ATOM     15  C   UNL     1       1.688   4.860  -0.320  0.00  0.00    +0.000 C 
ATOM     16  C   UNL     1       1.793   4.270   1.066  0.00  0.00    +0.004 C 
ATOM     17  C   UNL     1       1.894  -0.385   0.780  0.00  0.00    +0.012 C 
ATOM     18  C   UNL     1       5.545  -1.814   0.080  0.00  0.00    +0.000 C 
ATOM     19  C   UNL     1       6.925  -1.171   0.148  0.00  0.00    +0.077 C 
ATOM     20  C   UNL     1       7.995  -2.261   0.270  0.00  0.00    +0.067 C 
ATOM     21  C   UNL     1       7.925  -3.161  -0.965  0.00  0.00    +0.117 C 
ATOM     22  C   UNL     1       6.541  -3.808  -1.049  0.00  0.00    +0.032 C 
ATOM     23  C   UNL     1       5.473  -2.717  -1.155  0.00  0.00    +0.012 C 
ATOM     24  C   UNL     1       5.364  -2.690   1.321  0.00  0.00    +0.014 C 
ENDROOT
BRANCH  12  25
ATOM     25  C   UNL     1       0.002   1.316   0.218  0.00  0.00    +0.137 C 
ATOM     26  O   UNL     1      -0.601   1.539   1.240  0.00  0.00    -0.297 OA
ATOM     27  C   UNL     1      -0.598   0.412  -0.828  0.00  0.00    +0.086 C 
ENDBRANCH  12  25
BRANCH  21  28
ATOM     28  O   UNL     1       8.921  -4.181  -0.867  0.00  0.00    -0.392 OA
ATOM     29  H   UNL     1       8.936  -4.790  -1.618  0.00  0.00    +0.210 HD
ENDBRANCH  21  28
BRANCH  19  30
ATOM     30  O   UNL     1       7.149  -0.395  -1.030  0.00  0.00    -0.388 OA
ATOM     31  H   UNL     1       8.010   0.044  -1.055  0.00  0.00    +0.210 HD
ENDBRANCH  19  30
TORSDOF 3
