REMARK  Name = ZINC48934204
REMARK  4 active torsions:
REMARK  status: ('A' for Active; 'I' for Inactive)
REMARK    1  A    between atoms: C_1  and  C_2
REMARK    2  A    between atoms: C_2  and  C_4
REMARK    3  A    between atoms: C_2  and  N_19
REMARK    4  A    between atoms: C_10  and  C_12
REMARK                            x       y       z     vdW  Elec       q    Type
REMARK                         _______ _______ _______ _____ _____    ______ ____
ROOT
ATOM      1  C   UNL     1      -1.420  -0.486   0.130  0.00  0.00    +0.236 C 
ATOM      2  O   UNL     1      -1.879  -1.245  -0.697  0.00  0.00    -0.274 OA
ATOM      3  N   UNL     1      -2.181  -0.075   1.163  0.00  0.00    -0.293 N 
ATOM      4  C   UNL     1      -1.790   0.926   2.173  0.00  0.00    +0.108 C 
ATOM      5  C   UNL     1      -3.128   1.489   2.713  0.00  0.00    +0.021 C 
ATOM      6  C   UNL     1      -4.020   0.219   2.719  0.00  0.00    +0.029 C 
ATOM      7  C   UNL     1      -3.541  -0.544   1.467  0.00  0.00    +0.106 C 
ENDROOT
BRANCH   7   8
ATOM      8  C   UNL     1      -3.521  -2.024   1.748  0.00  0.00    -0.027 A 
ATOM      9  C   UNL     1      -2.492  -2.573   2.490  0.00  0.00    +0.007 A 
ATOM     10  C   UNL     1      -2.473  -3.931   2.748  0.00  0.00    +0.020 A 
ATOM     11  C   UNL     1      -3.486  -4.740   2.264  0.00  0.00    +0.041 A 
ATOM     12  C   UNL     1      -4.516  -4.191   1.522  0.00  0.00    +0.020 A 
ATOM     13  C   UNL     1      -4.536  -2.832   1.269  0.00  0.00    +0.007 A 
ATOM     14 CL   UNL     1      -3.463  -6.446   2.588  0.00  0.00    -0.084 Cl
ENDBRANCH   7   8
BRANCH   1  16
ATOM     15  C   UNL     1       0.023   1.324  -0.758  0.00  0.00    +0.038 C 
ATOM     16  C   UNL     1       0.002  -0.004   0.002  0.00  0.00    +0.157 C 
BRANCH  16  17
ATOM     17  N   UNL     1       0.791  -0.998  -0.730  0.00  0.00    -0.289 N 
ATOM     18  C   UNL     1       2.125  -1.065  -0.549  0.00  0.00    +0.298 C 
ATOM     19  O   UNL     1       2.674  -0.300   0.220  0.00  0.00    -0.253 OA
ATOM     20  N   UNL     1       2.851  -1.980  -1.222  0.00  0.00    -0.313 N 
ATOM     21  H   UNL     1       0.353  -1.608  -1.343  0.00  0.00    +0.151 HD
ATOM     22  H   UNL     1       2.413  -2.590  -1.836  0.00  0.00    +0.146 HD
ATOM     23  H   UNL     1       3.811  -2.028  -1.093  0.00  0.00    +0.146 HD
ENDBRANCH  16  17
ENDBRANCH   1  16
TORSDOF 3
