REMARK  Name = ZINC63637659
REMARK  1 active torsions:
REMARK  status: ('A' for Active; 'I' for Inactive)
REMARK    1  A    between atoms: C_3  and  C_6
REMARK                            x       y       z     vdW  Elec       q    Type
REMARK                         _______ _______ _______ _____ _____    ______ ____
ROOT
ATOM      1  C   UNL     1       3.761   1.845  -0.024  0.00  0.00    +0.079 C 
ATOM      2  C   UNL     1       4.491   1.338   1.221  0.00  0.00    +0.149 C 
ATOM      3  C   UNL     1       5.969   1.551   0.998  0.00  0.00    +0.106 C 
ATOM      4  N   UNL     1       6.701   2.249   1.810  0.00  0.00    -0.151 NA
ATOM      5  C   UNL     1       6.198   2.855   2.894  0.00  0.00    +0.331 C 
ATOM      6  O   UNL     1       6.946   3.474   3.628  0.00  0.00    -0.250 OA
ATOM      7  N   UNL     1       4.890   2.796   3.190  0.00  0.00    -0.238 N 
ATOM      8  C   UNL     1       4.025   2.092   2.433  0.00  0.00    +0.231 C 
ATOM      9  O   UNL     1       2.850   2.069   2.730  0.00  0.00    -0.275 OA
ATOM     10  N   UNL     1       6.502   0.975  -0.123  0.00  0.00    -0.307 N 
ATOM     11  C   UNL     1       5.745   0.968  -1.274  0.00  0.00    +0.016 C 
ATOM     12  C   UNL     1       4.458   1.357  -1.273  0.00  0.00    +0.021 C 
ATOM     13  C   UNL     1       3.699   1.331  -2.461  0.00  0.00    +0.161 C 
ATOM     14  O   UNL     1       2.531   1.666  -2.429  0.00  0.00    -0.292 OA
ATOM     15  C   UNL     1       4.303   0.898  -3.768  0.00  0.00    +0.080 C 
ATOM     16  C   UNL     1       5.806   1.198  -3.743  0.00  0.00    +0.014 C 
ATOM     17  C   UNL     1       6.415   0.494  -2.542  0.00  0.00    +0.051 C 
ATOM     18  H   UNL     1       4.559   3.268   3.970  0.00  0.00    +0.159 HD
ATOM     19  H   UNL     1       7.389   0.583  -0.108  0.00  0.00    +0.153 HD
ENDROOT
BRANCH   1  22
ATOM     20  C   UNL     1      -0.016   1.351   0.009  0.00  0.00    +0.008 A 
ATOM     21  C   UNL     1       1.183   2.038   0.002  0.00  0.00    +0.012 A 
ATOM     22  C   UNL     1       2.343   1.336  -0.013  0.00  0.00    -0.002 A 
ATOM     23  S   UNL     1       1.754  -0.349  -0.017  0.00  0.00    -0.101 S 
ATOM     24  C   UNL     1       0.002  -0.004   0.002  0.00  0.00    +0.045 A 
ENDBRANCH   1  22
TORSDOF 1
