REMARK  Name = ZINC40704526
REMARK  5 active torsions:
REMARK  status: ('A' for Active; 'I' for Inactive)
REMARK    1  A    between atoms: C_1  and  C_2
REMARK    2  A    between atoms: C_5  and  C_24
REMARK    3  A    between atoms: C_6  and  N_8
REMARK    4  A    between atoms: C_10  and  N_23
REMARK    5  A    between atoms: C_11  and  N_15
REMARK                            x       y       z     vdW  Elec       q    Type
REMARK                         _______ _______ _______ _____ _____    ______ ____
ROOT
ATOM      1  N   UNL     1       0.048  -2.797   2.391  0.00  0.00    -0.298 N 
ATOM      2  C   UNL     1       0.151  -2.114   3.598  0.00  0.00    +0.149 A 
ATOM      3  C   UNL     1       0.279  -2.812   4.800  0.00  0.00    +0.106 A 
ATOM      4  C   UNL     1       0.379  -2.077   5.982  0.00  0.00    +0.150 A 
ATOM      5  N   UNL     1       0.349  -0.748   5.919  0.00  0.00    -0.219 NA
ATOM      6  C   UNL     1       0.227  -0.127   4.763  0.00  0.00    +0.225 A 
ATOM      7  N   UNL     1       0.135  -0.783   3.624  0.00  0.00    -0.219 NA
ATOM      8  H   UNL     1      -0.023  -3.765   2.386  0.00  0.00    +0.154 HD
ENDROOT
BRANCH   4   9
ATOM      9  N   UNL     1       0.507  -2.723   7.207  0.00  0.00    -0.283 N 
ATOM     10  C   UNL     1       0.500  -1.985   8.387  0.00  0.00    +0.124 A 
ATOM     11  C   UNL     1       0.523  -2.643   9.612  0.00  0.00    +0.045 A 
ATOM     12  C   UNL     1       0.516  -1.898  10.777  0.00  0.00    +0.020 A 
ATOM     13  C   UNL     1       0.486  -0.512  10.678  0.00  0.00    +0.036 A 
ATOM     14  C   UNL     1       0.465   0.075   9.428  0.00  0.00    +0.128 A 
ATOM     15  N   UNL     1       0.478  -0.662   8.333  0.00  0.00    -0.239 NA
ATOM     16 BR   UNL     1       0.474   0.557  12.237  0.00  0.00    -0.049 Br
ATOM     17  H   UNL     1       0.601  -3.688   7.239  0.00  0.00    +0.155 HD
ENDBRANCH   4   9
BRANCH   1  23
ATOM     18  C   UNL     1       1.270   1.224  -0.157  0.00  0.00    +0.044 C 
ATOM     19  C   UNL     1       0.632  -0.139  -0.079  0.00  0.00    -0.049 A 
ATOM     20  C   UNL     1       0.043  -0.692  -1.202  0.00  0.00    +0.004 A 
ATOM     21  C   UNL     1      -0.543  -1.942  -1.134  0.00  0.00    +0.005 A 
ATOM     22  C   UNL     1      -0.543  -2.643   0.056  0.00  0.00    -0.029 A 
ATOM     23  C   UNL     1       0.047  -2.091   1.185  0.00  0.00    +0.036 A 
ATOM     24  C   UNL     1       0.640  -0.836   1.113  0.00  0.00    +0.027 A 
ATOM     25  C   UNL     1      -1.184  -4.005   0.129  0.00  0.00    +0.045 C 
ENDBRANCH   1  23
BRANCH   3  26
ATOM     26  N   UNL     1       0.305  -4.215   4.819  0.00  0.00    -0.353 N 
ATOM     27  H   UNL     1       0.234  -4.713   3.990  0.00  0.00    +0.143 HD
ATOM     28  H   UNL     1       0.394  -4.687   5.662  0.00  0.00    +0.143 HD
ENDBRANCH   3  26
TORSDOF 3
