REMARK  Name = ZINC47619518
REMARK  9 active torsions:
REMARK  status: ('A' for Active; 'I' for Inactive)
REMARK    1  A    between atoms: C_1  and  C_2
REMARK    2  A    between atoms: N_7  and  C_9
REMARK    3  A    between atoms: C_9  and  C_10
REMARK    4  A    between atoms: C_10  and  C_11
REMARK    5  A    between atoms: C_11  and  N_12
REMARK    6  A    between atoms: N_15  and  C_16
REMARK    7  A    between atoms: C_16  and  C_17
REMARK    8  A    between atoms: C_20  and  S_23
REMARK    9  A    between atoms: S_23  and  N_26
REMARK                            x       y       z     vdW  Elec       q    Type
REMARK                         _______ _______ _______ _____ _____    ______ ____
ROOT
ATOM      1  N   UNL     1       1.902  -5.954   3.854  0.00  0.00    -0.299 N 
ATOM      2  C   UNL     1       2.430  -6.622   4.899  0.00  0.00    +0.300 C 
ATOM      3  O   UNL     1       2.980  -6.012   5.795  0.00  0.00    -0.253 OA
ATOM      4  N   UNL     1       2.347  -7.966   4.950  0.00  0.00    -0.295 N 
ATOM      5  H   UNL     1       1.463  -6.441   3.139  0.00  0.00    +0.150 HD
ATOM      6  H   UNL     1       1.908  -8.453   4.235  0.00  0.00    +0.151 HD
ENDROOT
BRANCH   1   7
ATOM      7  C   UNL     1       1.992  -4.493   3.798  0.00  0.00    +0.104 C 
BRANCH   7   8
ATOM      8  C   UNL     1       1.320  -3.989   2.519  0.00  0.00    +0.000 C 
BRANCH   8   9
ATOM      9  C   UNL     1       1.413  -2.463   2.461  0.00  0.00    -0.077 C 
BRANCH   9  15
ATOM     10  C   UNL     1      -0.019   1.526   0.010  0.00  0.00    +0.005 C 
ATOM     11  C   UNL     1       0.002  -0.004   0.002  0.00  0.00    -0.031 C 
ATOM     12  C   UNL     1       0.721  -0.499  -1.257  0.00  0.00    -0.001 C 
ATOM     13  C   UNL     1       0.805  -2.027  -1.217  0.00  0.00    -0.018 C 
ATOM     14  C   UNL     1       1.518  -2.460   0.066  0.00  0.00    -0.079 C 
ATOM     15  N   UNL     1       0.768  -1.979   1.233  0.00  0.00    +0.380 N 
ATOM     16  C   UNL     1       0.744  -0.512   1.240  0.00  0.00    -0.076 C 
ATOM     17  H   UNL     1      -0.177  -2.330   1.192  0.00  0.00    -0.082 HD
ENDBRANCH   9  15
ENDBRANCH   8   9
ENDBRANCH   7   8
ENDBRANCH   1   7
BRANCH   4  18
ATOM     18  C   UNL     1       2.921  -8.693   6.086  0.00  0.00    +0.141 C 
BRANCH  18  19
ATOM     19  C   UNL     1       2.696 -10.171   5.902  0.00  0.00    -0.030 A 
ATOM     20  C   UNL     1       1.547 -10.762   6.395  0.00  0.00    +0.007 A 
ATOM     21  C   UNL     1       1.341 -12.118   6.226  0.00  0.00    +0.029 A 
ATOM     22  C   UNL     1       2.282 -12.884   5.564  0.00  0.00    +0.105 A 
ATOM     23  C   UNL     1       3.430 -12.293   5.071  0.00  0.00    +0.029 A 
ATOM     24  C   UNL     1       3.635 -10.936   5.236  0.00  0.00    +0.007 A 
BRANCH  22  25
ATOM     25  S   UNL     1       2.020 -14.613   5.350  0.00  0.00    +0.056 S 
ATOM     26  O   UNL     1       3.302 -15.200   5.178  0.00  0.00    -0.153 OA
ATOM     27  O   UNL     1       1.128 -15.019   6.380  0.00  0.00    -0.153 OA
BRANCH  25  28
ATOM     28  N   UNL     1       1.212 -14.812   3.919  0.00  0.00    -0.204 NA
ATOM     29  H   UNL     1       1.338 -15.621   3.399  0.00  0.00    +0.144 HD
ATOM     30  H   UNL     1       0.612 -14.120   3.600  0.00  0.00    +0.144 HD
ENDBRANCH  25  28
ENDBRANCH  22  25
ENDBRANCH  18  19
ENDBRANCH   4  18
TORSDOF 8
