REMARK  Name = ZINC66859661
REMARK  3 active torsions:
REMARK  status: ('A' for Active; 'I' for Inactive)
REMARK    1  A    between atoms: C_4  and  S_10
REMARK    2  A    between atoms: C_5  and  C_7
REMARK    3  A    between atoms: S_10  and  C_11
REMARK                            x       y       z     vdW  Elec       q    Type
REMARK                         _______ _______ _______ _____ _____    ______ ____
ROOT
ATOM      1  S   UNL     1       3.970  -0.798  -0.043  0.00  0.00    -0.068 S 
ENDROOT
BRANCH   1   2
ATOM      2  C   UNL     1       5.157   0.495  -0.197  0.00  0.00    +0.113 A 
ATOM      3  C   UNL     1       6.533   0.203  -0.360  0.00  0.00    +0.034 A 
ATOM      4  C   UNL     1       7.015  -1.109  -0.408  0.00  0.00    +0.013 A 
ATOM      5  C   UNL     1       8.352  -1.329  -0.568  0.00  0.00    +0.002 A 
ATOM      6  C   UNL     1       9.242  -0.266  -0.685  0.00  0.00    +0.017 A 
ATOM      7  C   UNL     1       8.804   1.025  -0.643  0.00  0.00    +0.044 A 
ATOM      8  C   UNL     1       7.436   1.287  -0.479  0.00  0.00    +0.089 A 
ATOM      9  N   UNL     1       6.953   2.538  -0.432  0.00  0.00    -0.234 NA
ATOM     10  C   UNL     1       5.667   2.748  -0.279  0.00  0.00    +0.223 A 
ATOM     11  N   UNL     1       4.785   1.768  -0.169  0.00  0.00    -0.228 NA
ATOM     12 BR   UNL     1      10.034   2.453  -0.803  0.00  0.00    -0.048 Br
ENDBRANCH   1   2
BRANCH   1  16
ATOM     13  C   UNL     1       0.075   1.378   0.796  0.00  0.00    +0.001 A 
ATOM     14  C   UNL     1       0.340   0.883  -0.472  0.00  0.00    +0.001 A 
ATOM     15  C   UNL     1       1.523   0.222  -0.730  0.00  0.00    +0.016 A 
ATOM     16  C   UNL     1       2.458   0.047   0.283  0.00  0.00    +0.026 A 
ATOM     17  C   UNL     1       2.192   0.547   1.568  0.00  0.00    +0.050 A 
ATOM     18  C   UNL     1       0.990   1.214   1.813  0.00  0.00    +0.014 A 
BRANCH  17  19
ATOM     19  C   UNL     1       3.175   0.368   2.652  0.00  0.00    +0.243 C 
ATOM     20  O   UNL     1       4.221  -0.214   2.435  0.00  0.00    -0.270 OA
ATOM     21  N   UNL     1       2.916   0.850   3.884  0.00  0.00    -0.325 N 
ATOM     22  H   UNL     1       2.082   1.314   4.057  0.00  0.00    +0.145 HD
ATOM     23  H   UNL     1       3.563   0.732   4.597  0.00  0.00    +0.145 HD
ENDBRANCH  17  19
ENDBRANCH   1  16
TORSDOF 3
