REMARK  Name = ZINC43133285
REMARK  2 active torsions:
REMARK  status: ('A' for Active; 'I' for Inactive)
REMARK    1  A    between atoms: C_9  and  N_11
REMARK    2  A    between atoms: N_14  and  C_15
REMARK                            x       y       z     vdW  Elec       q    Type
REMARK                         _______ _______ _______ _____ _____    ______ ____
ROOT
ATOM      1  N   UNL     1       4.587  -0.508  -0.992  0.00  0.00    -0.292 N 
ATOM      2  C   UNL     1       5.528   0.380  -0.615  0.00  0.00    +0.304 C 
ATOM      3  O   UNL     1       5.539   0.807   0.523  0.00  0.00    -0.252 OA
ATOM      4  N   UNL     1       6.456   0.794  -1.500  0.00  0.00    -0.268 N 
ATOM      5  H   UNL     1       4.577  -0.849  -1.900  0.00  0.00    +0.151 HD
ATOM      6  H   UNL     1       6.487   0.405  -2.388  0.00  0.00    +0.156 HD
ENDROOT
BRANCH   1  15
ATOM      7  C   UNL     1      -0.019   1.335   0.013  0.00  0.00    +0.000 A 
ATOM      8  C   UNL     1       1.164   2.050   0.003  0.00  0.00    +0.000 A 
ATOM      9  C   UNL     1       2.373   1.381  -0.011  0.00  0.00    +0.006 A 
ATOM     10  C   UNL     1       2.403  -0.003  -0.015  0.00  0.00    -0.024 A 
ATOM     11  C   UNL     1       1.220  -0.718  -0.005  0.00  0.00    -0.042 A 
ATOM     12  C   UNL     1       0.009  -0.045   0.010  0.00  0.00    +0.004 A 
ATOM     13  C   UNL     1       1.518  -2.201  -0.012  0.00  0.00    +0.037 C 
ATOM     14  C   UNL     1       2.988  -2.316  -0.468  0.00  0.00    +0.032 C 
ATOM     15  C   UNL     1       3.577  -0.958  -0.030  0.00  0.00    +0.105 C 
ENDBRANCH   1  15
BRANCH   4  16
ATOM     16  C   UNL     1       7.375   1.786  -1.137  0.00  0.00    +0.049 A 
ATOM     17  C   UNL     1       7.851   1.851   0.165  0.00  0.00    +0.024 A 
ATOM     18  C   UNL     1       8.759   2.830   0.520  0.00  0.00    +0.002 A 
ATOM     19  C   UNL     1       9.193   3.745  -0.421  0.00  0.00    +0.001 A 
ATOM     20  C   UNL     1       8.722   3.684  -1.719  0.00  0.00    +0.017 A 
ATOM     21  C   UNL     1       7.818   2.704  -2.082  0.00  0.00    +0.039 A 
ATOM     22 BR   UNL     1       7.178   2.616  -3.859  0.00  0.00    -0.048 Br
ENDBRANCH   4  16
TORSDOF 2
