REMARK  Name = ZINC37419457
REMARK  5 active torsions:
REMARK  status: ('A' for Active; 'I' for Inactive)
REMARK    1  A    between atoms: C_1  and  S_2
REMARK    2  A    between atoms: S_2  and  N_5
REMARK    3  A    between atoms: C_9  and  C_12
REMARK    4  A    between atoms: N_14  and  C_15
REMARK    5  A    between atoms: C_15  and  C_20
REMARK                            x       y       z     vdW  Elec       q    Type
REMARK                         _______ _______ _______ _____ _____    ______ ____
ROOT
ATOM      1  C   UNL     1       4.331   0.030  -2.609  0.00  0.00    +0.218 C 
ATOM      2  O   UNL     1       4.856  -0.788  -1.884  0.00  0.00    -0.275 OA
ATOM      3  N   UNL     1       5.070   0.699  -3.516  0.00  0.00    -0.300 N 
ATOM      4  H   UNL     1       4.651   1.353  -4.096  0.00  0.00    +0.150 HD
ENDROOT
BRANCH   1   9
ATOM      5  N   UNL     1       0.795  -0.411  -1.394  0.00  0.00    -0.181 NA
ATOM      6  C   UNL     1       0.053  -0.601  -2.648  0.00  0.00    +0.109 C 
ATOM      7  C   UNL     1       0.677   0.287  -3.729  0.00  0.00    +0.018 C 
ATOM      8  C   UNL     1       2.174  -0.017  -3.832  0.00  0.00    +0.015 C 
ATOM      9  C   UNL     1       2.853   0.298  -2.497  0.00  0.00    +0.091 C 
ATOM     10  C   UNL     1       2.254  -0.584  -1.403  0.00  0.00    +0.121 C 
BRANCH   5  12
ATOM     11  C   UNL     1      -0.022   1.810   0.012  0.00  0.00    +0.215 C 
ATOM     12  S   UNL     1       0.002  -0.004   0.002  0.00  0.00    +0.029 S 
ATOM     13  O   UNL     1       0.835  -0.488   1.046  0.00  0.00    -0.158 OA
ATOM     14  O   UNL     1      -1.315  -0.510  -0.168  0.00  0.00    -0.158 OA
ENDBRANCH   5  12
ENDBRANCH   1   9
BRANCH   3  15
ATOM     15  C   UNL     1       6.508   0.439  -3.625  0.00  0.00    +0.136 C 
ATOM     16  C   UNL     1       7.238   0.873  -2.330  0.00  0.00    +0.037 C 
ATOM     17  C   UNL     1       7.390   2.403  -2.520  0.00  0.00    +0.003 C 
ATOM     18  C   UNL     1       7.695   2.568  -4.023  0.00  0.00    +0.003 C 
ATOM     19  C   UNL     1       7.134   1.320  -4.726  0.00  0.00    +0.037 C 
BRANCH  15  20
ATOM     20  C   UNL     1       6.758  -1.020  -3.911  0.00  0.00    +0.379 C 
ATOM     21  O   UNL     1       5.819  -1.788  -4.030  0.00  0.00    -0.244 OA
ATOM     22  O   UNL     1       7.900  -1.432  -4.023  0.00  0.00    -0.244 OA
ENDBRANCH  15  20
ENDBRANCH   3  15
TORSDOF 4
