REMARK  Name = ZINC32940373
REMARK  2 active torsions:
REMARK  status: ('A' for Active; 'I' for Inactive)
REMARK    1  A    between atoms: C_1  and  C_2
REMARK    2  A    between atoms: C_12  and  C_14
REMARK                            x       y       z     vdW  Elec       q    Type
REMARK                         _______ _______ _______ _____ _____    ______ ____
ROOT
ATOM      1  C   UNL     1       0.837  -3.083   1.675  0.00  0.00    +0.029 C 
ATOM      2  C   UNL     1       0.030  -1.784   1.615  0.00  0.00    +0.083 C 
ATOM      3  C   UNL     1      -1.108  -1.910   0.589  0.00  0.00    +0.059 C 
ATOM      4  C   UNL     1      -0.816  -0.839  -0.437  0.00  0.00    -0.024 A 
ATOM      5  C   UNL     1      -1.491  -0.477  -1.587  0.00  0.00    +0.005 A 
ATOM      6  C   UNL     1      -1.017   0.555  -2.376  0.00  0.00    +0.000 A 
ATOM      7  C   UNL     1       0.136   1.226  -2.010  0.00  0.00    +0.002 A 
ATOM      8  C   UNL     1       0.813   0.869  -0.864  0.00  0.00    +0.024 A 
ATOM      9  C   UNL     1       0.340  -0.173  -0.063  0.00  0.00    +0.040 A 
ATOM     10  N   UNL     1       0.870  -0.687   1.127  0.00  0.00    -0.268 N 
ATOM     11  C   UNL     1       1.986  -0.239   1.736  0.00  0.00    +0.225 C 
ATOM     12  O   UNL     1       2.571   0.728   1.295  0.00  0.00    -0.275 OA
ENDROOT
BRANCH  11  13
ATOM     13  C   UNL     1       2.508  -0.940   2.963  0.00  0.00    +0.093 C 
ATOM     14  C   UNL     1       3.895  -0.395   3.312  0.00  0.00    +0.016 C 
ATOM     15  C   UNL     1       4.440  -1.130   4.539  0.00  0.00    +0.020 C 
ATOM     16  C   UNL     1       3.510  -0.883   5.731  0.00  0.00    +0.109 C 
ATOM     17  N   UNL     1       2.144  -1.270   5.354  0.00  0.00    -0.285 N 
ATOM     18  C   UNL     1       1.556  -0.692   4.137  0.00  0.00    +0.122 C 
ATOM     19  C   UNL     1       1.443  -2.140   6.108  0.00  0.00    +0.300 C 
ATOM     20  O   UNL     1       0.283  -2.382   5.837  0.00  0.00    -0.253 OA
ATOM     21  N   UNL     1       2.029  -2.740   7.163  0.00  0.00    -0.313 N 
ATOM     22  H   UNL     1       2.929  -2.493   7.424  0.00  0.00    +0.146 HD
ATOM     23  H   UNL     1       1.549  -3.420   7.662  0.00  0.00    +0.146 HD
ENDBRANCH  11  13
TORSDOF 1
