REMARK  Name = ZINC42430008
REMARK  5 active torsions:
REMARK  status: ('A' for Active; 'I' for Inactive)
REMARK    1  A    between atoms: C_1  and  C_2
REMARK    2  A    between atoms: C_2  and  C_4
REMARK    3  A    between atoms: C_2  and  N_8
REMARK    4  A    between atoms: C_4  and  C_5
REMARK    5  A    between atoms: C_14  and  N_17
REMARK                            x       y       z     vdW  Elec       q    Type
REMARK                         _______ _______ _______ _____ _____    ______ ____
ROOT
ATOM      1  N   UNL     1       2.745  -0.264   0.066  0.00  0.00    -0.296 N 
ATOM      2  C   UNL     1       2.054  -0.600   1.174  0.00  0.00    +0.302 C 
ATOM      3  O   UNL     1       0.853  -0.414   1.220  0.00  0.00    -0.253 OA
ATOM      4  N   UNL     1       2.694  -1.141   2.229  0.00  0.00    -0.286 N 
ATOM      5  C   UNL     1       1.940  -1.618   3.397  0.00  0.00    +0.108 C 
ATOM      6  C   UNL     1       2.336  -3.071   3.679  0.00  0.00    +0.003 C 
ATOM      7  C   UNL     1       3.856  -3.161   3.832  0.00  0.00    -0.072 C 
ATOM      8  C   UNL     1       4.529  -2.721   2.529  0.00  0.00    +0.003 C 
ATOM      9  C   UNL     1       4.157  -1.270   2.232  0.00  0.00    +0.108 C 
ATOM     10  H   UNL     1       3.712  -0.343   0.056  0.00  0.00    +0.151 HD
ENDROOT
BRANCH   7  11
ATOM     11  N   UNL     1       4.237  -4.547   4.135  0.00  0.00    +0.380 N 
ATOM     12  H   UNL     1       3.938  -5.150   3.383  0.00  0.00    -0.090 HD
ATOM     13  H   UNL     1       5.239  -4.606   4.236  0.00  0.00    -0.090 HD
ATOM     14  H   UNL     1       3.794  -4.837   4.994  0.00  0.00    -0.090 HD
ENDBRANCH   7  11
BRANCH   1  16
ATOM     15  C   UNL     1       1.564  -0.974  -1.955  0.00  0.00    +0.028 C 
ATOM     16  C   UNL     1       2.036   0.219  -1.121  0.00  0.00    +0.082 C 
BRANCH  16  17
ATOM     17  C   UNL     1       2.978   1.087  -1.959  0.00  0.00    +0.147 C 
BRANCH  17  18
ATOM     18  C   UNL     1       3.345   2.324  -1.182  0.00  0.00    +0.358 C 
ATOM     19  O   UNL     1       2.896   2.497  -0.062  0.00  0.00    -0.246 OA
ATOM     20  O   UNL     1       4.092   3.153  -1.674  0.00  0.00    -0.246 OA
ENDBRANCH  17  18
ENDBRANCH  16  17
ENDBRANCH   1  16
TORSDOF 4
