REMARK  Name = ZINC37388148
REMARK  2 active torsions:
REMARK  status: ('A' for Active; 'I' for Inactive)
REMARK    1  A    between atoms: C_1  and  C_2
REMARK    2  A    between atoms: C_10  and  C_11
REMARK                            x       y       z     vdW  Elec       q    Type
REMARK                         _______ _______ _______ _____ _____    ______ ____
ROOT
ATOM      1  C   UNL     1      -0.018   1.503   0.010  0.00  0.00    +0.048 C 
ATOM      2  C   UNL     1       0.002  -0.004   0.002  0.00  0.00    +0.008 A 
ATOM      3  C   UNL     1       0.009  -0.877  -1.171  0.00  0.00    +0.025 A 
ATOM      4  C   UNL     1      -0.001  -0.654  -2.551  0.00  0.00    +0.027 A 
ATOM      5  C   UNL     1       0.009  -1.718  -3.409  0.00  0.00    +0.019 A 
ATOM      6  C   UNL     1       0.029  -3.018  -2.918  0.00  0.00    +0.019 A 
ATOM      7  C   UNL     1       0.038  -3.258  -1.561  0.00  0.00    +0.048 A 
ATOM      8  C   UNL     1       0.029  -2.191  -0.669  0.00  0.00    +0.136 A 
ATOM      9  O   UNL     1       0.034  -2.113   0.676  0.00  0.00    -0.450 OA
ATOM     10  C   UNL     1       0.024  -0.826   1.083  0.00  0.00    +0.193 A 
ATOM     11 BR   UNL     1      -0.003  -1.420  -5.276  0.00  0.00    -0.050 Br
ENDROOT
BRANCH  10  12
ATOM     12  C   UNL     1       0.033  -0.382   2.484  0.00  0.00    +0.277 C 
ATOM     13  O   UNL     1       0.020   0.806   2.745  0.00  0.00    -0.267 OA
ATOM     14  N   UNL     1       0.055  -1.291   3.479  0.00  0.00    -0.323 N 
ATOM     15  H   UNL     1       0.065  -2.238   3.270  0.00  0.00    +0.145 HD
ATOM     16  H   UNL     1       0.060  -0.997   4.403  0.00  0.00    +0.145 HD
ENDBRANCH  10  12
TORSDOF 1
