REMARK  Name = ZINC53169392
REMARK  2 active torsions:
REMARK  status: ('A' for Active; 'I' for Inactive)
REMARK    1  A    between atoms: N_9  and  C_10
REMARK    2  A    between atoms: C_16  and  O_18
REMARK                            x       y       z     vdW  Elec       q    Type
REMARK                         _______ _______ _______ _____ _____    ______ ____
ROOT
ATOM      1  C   UNL     1      -0.049   1.358  -0.340  0.00  0.00    +0.031 A 
ATOM      2  C   UNL     1       1.111   2.043  -0.647  0.00  0.00    +0.043 A 
ATOM      3  C   UNL     1       2.313   1.364  -0.762  0.00  0.00    +0.161 A 
ATOM      4  C   UNL     1       2.360  -0.007  -0.571  0.00  0.00    +0.184 A 
ATOM      5  C   UNL     1       1.198  -0.701  -0.263  0.00  0.00    +0.106 A 
ATOM      6  C   UNL     1      -0.012  -0.014  -0.147  0.00  0.00    +0.068 A 
ATOM      7  N   UNL     1      -0.985  -0.963   0.164  0.00  0.00    -0.334 N 
ATOM      8  C   UNL     1      -0.393  -2.170   0.234  0.00  0.00    +0.159 A 
ATOM      9  N   UNL     1       0.924  -2.045  -0.018  0.00  0.00    -0.312 N 
ATOM     10  S   UNL     1      -1.194  -3.641   0.591  0.00  0.00    -0.013 S 
ATOM     11  F   UNL     1       3.533  -0.668  -0.685  0.00  0.00    -0.200 F 
ATOM     12  F   UNL     1       3.443   2.041  -1.062  0.00  0.00    -0.202 F 
ATOM     13  H   UNL     1      -1.927  -0.783   0.306  0.00  0.00    +0.168 HD
ENDROOT
BRANCH   9  14
ATOM     14  C   UNL     1       1.901  -3.137  -0.034  0.00  0.00    +0.118 C 
ATOM     15  C   UNL     1       1.800  -3.930   1.270  0.00  0.00    +0.028 C 
ATOM     16  C   UNL     1       2.820  -5.070   1.254  0.00  0.00    +0.002 C 
ATOM     17  C   UNL     1       2.532  -5.996   0.070  0.00  0.00    +0.003 C 
ATOM     18  C   UNL     1       2.633  -5.202  -1.234  0.00  0.00    +0.033 C 
ATOM     19  C   UNL     1       1.613  -4.062  -1.218  0.00  0.00    +0.137 C 
BRANCH  19  20
ATOM     20  O   UNL     1       0.296  -4.603  -1.090  0.00  0.00    -0.390 OA
ATOM     21  H   UNL     1       0.045  -5.201  -1.808  0.00  0.00    +0.210 HD
ENDBRANCH  19  20
ENDBRANCH   9  14
TORSDOF 2
