REMARK  Name = ZINC40378864
REMARK  4 active torsions:
REMARK  status: ('A' for Active; 'I' for Inactive)
REMARK    1  A    between atoms: C_4  and  N_11
REMARK    2  A    between atoms: C_6  and  S_7
REMARK    3  A    between atoms: S_7  and  N_10
REMARK    4  A    between atoms: C_12  and  C_14
REMARK                            x       y       z     vdW  Elec       q    Type
REMARK                         _______ _______ _______ _____ _____    ______ ____
ROOT
ATOM      1  C   UNL     1      -0.023   1.366   0.040  0.00  0.00    +0.030 A 
ATOM      2  C   UNL     1       1.161   2.081   0.025  0.00  0.00    +0.024 A 
ATOM      3  C   UNL     1       2.371   1.415  -0.000  0.00  0.00    +0.062 A 
ATOM      4  C   UNL     1       2.397   0.025  -0.011  0.00  0.00    +0.054 A 
ATOM      5  C   UNL     1       1.207  -0.689   0.004  0.00  0.00    +0.053 A 
ATOM      6  C   UNL     1       0.000  -0.016   0.029  0.00  0.00    +0.107 A 
ATOM      7 CL   UNL     1       3.857   2.312  -0.019  0.00  0.00    -0.082 Cl
ENDROOT
BRANCH   4   8
ATOM      8  N   UNL     1       3.622  -0.653  -0.037  0.00  0.00    -0.277 N 
ATOM      9  C   UNL     1       3.689  -1.903  -0.538  0.00  0.00    +0.322 C 
ATOM     10  O   UNL     1       2.713  -2.401  -1.057  0.00  0.00    -0.266 OA
ATOM     11  H   UNL     1       4.421  -0.224   0.305  0.00  0.00    +0.155 HD
BRANCH   9  12
ATOM     12  C   UNL     1       4.978  -2.680  -0.454  0.00  0.00    +0.470 C 
ATOM     13  F   UNL     1       4.802  -3.939  -1.036  0.00  0.00    -0.162 F 
ATOM     14  F   UNL     1       5.985  -1.988  -1.134  0.00  0.00    -0.162 F 
ATOM     15  F   UNL     1       5.342  -2.834   0.888  0.00  0.00    -0.162 F 
ENDBRANCH   9  12
ENDBRANCH   4   8
BRANCH   6  16
ATOM     16  S   UNL     1      -1.511  -0.922   0.048  0.00  0.00    +0.056 S 
ATOM     17  O   UNL     1      -1.210  -2.203   0.584  0.00  0.00    -0.153 OA
ATOM     18  O   UNL     1      -2.490  -0.067   0.622  0.00  0.00    -0.153 OA
BRANCH  16  19
ATOM     19  N   UNL     1      -1.958  -1.162  -1.529  0.00  0.00    -0.204 NA
ATOM     20  H   UNL     1      -2.465  -1.951  -1.774  0.00  0.00    +0.144 HD
ATOM     21  H   UNL     1      -1.712  -0.513  -2.207  0.00  0.00    +0.144 HD
ENDBRANCH  16  19
ENDBRANCH   6  16
TORSDOF 4
