REMARK  Name = ZINC13424025
REMARK  4 active torsions:
REMARK  status: ('A' for Active; 'I' for Inactive)
REMARK    1  A    between atoms: C_1  and  N_2
REMARK    2  A    between atoms: N_13  and  C_17
REMARK    3  A    between atoms: C_17  and  C_18
REMARK    4  A    between atoms: C_18  and  S_19
REMARK                            x       y       z     vdW  Elec       q    Type
REMARK                         _______ _______ _______ _____ _____    ______ ____
ROOT
ATOM      1  C   UNL     1      -3.690   7.439   8.369  0.00  0.00    +0.138 C 
ATOM      2  N   UNL     1      -2.919   6.681   7.381  0.00  0.00    -0.270 N 
ATOM      3  C   UNL     1      -1.777   7.156   6.745  0.00  0.00    +0.044 A 
ATOM      4  C   UNL     1      -1.098   8.365   6.847  0.00  0.00    +0.025 A 
ATOM      5  C   UNL     1       0.034   8.591   6.089  0.00  0.00    +0.017 A 
ATOM      6  C   UNL     1       0.507   7.620   5.220  0.00  0.00    +0.019 A 
ATOM      7  C   UNL     1      -0.153   6.413   5.105  0.00  0.00    +0.025 A 
ATOM      8  C   UNL     1      -1.295   6.176   5.865  0.00  0.00    +0.011 A 
ATOM      9  C   UNL     1      -2.214   5.025   5.978  0.00  0.00    +0.065 C 
ATOM     10  C   UNL     1      -2.144   3.823   5.300  0.00  0.00    +0.089 C 
ATOM     11  C   UNL     1      -1.247   3.413   4.186  0.00  0.00    +0.259 C 
ATOM     12  O   UNL     1      -0.413   4.167   3.723  0.00  0.00    -0.269 OA
ATOM     13  N   UNL     1      -1.410   2.184   3.724  0.00  0.00    -0.254 N 
ATOM     14  C   UNL     1      -2.332   1.350   4.245  0.00  0.00    +0.121 C 
ATOM     15  S   UNL     1      -2.682  -0.262   3.789  0.00  0.00    -0.027 S 
ATOM     16  S   UNL     1      -3.101   2.330   5.524  0.00  0.00    -0.060 S 
ATOM     17  C   UNL     1      -3.228   5.440   6.969  0.00  0.00    +0.252 C 
ATOM     18  O   UNL     1      -4.174   4.775   7.347  0.00  0.00    -0.270 OA
ATOM     19 BR   UNL     1       2.059   7.950   4.191  0.00  0.00    -0.050 Br
ENDROOT
BRANCH  13  20
ATOM     20  C   UNL     1      -0.563   1.716   2.624  0.00  0.00    +0.140 C 
BRANCH  20  21
ATOM     21  C   UNL     1      -1.239   2.033   1.289  0.00  0.00    +0.220 C 
BRANCH  21  22
ATOM     22  S   UNL     1      -0.190   1.453  -0.073  0.00  0.00    +0.112 S 
ATOM     23  O   UNL     1      -0.136   0.033  -0.078  0.00  0.00    -0.145 OA
ATOM     24  O   UNL     1       1.002   2.224  -0.134  0.00  0.00    -0.145 OA
ATOM     25  O   UNL     1      -0.954   1.818  -1.337  0.00  0.00    -0.048 OA
ENDBRANCH  21  22
ENDBRANCH  20  21
ENDBRANCH  13  20
TORSDOF 3
