REMARK  Name = ZINC35287532
REMARK  10 active torsions:
REMARK  status: ('A' for Active; 'I' for Inactive)
REMARK    1  A    between atoms: C_1  and  C_2
REMARK    2  A    between atoms: N_4  and  C_5
REMARK    3  A    between atoms: C_5  and  C_6
REMARK    4  A    between atoms: C_5  and  C_7
REMARK    5  A    between atoms: C_5  and  C_20
REMARK    6  A    between atoms: C_13  and  O_15
REMARK    7  A    between atoms: O_15  and  C_16
REMARK    8  A    between atoms: C_16  and  C_17
REMARK    9  A    between atoms: C_16  and  C_18
REMARK   10  A    between atoms: C_16  and  C_19
REMARK                            x       y       z     vdW  Elec       q    Type
REMARK                         _______ _______ _______ _____ _____    ______ ____
ROOT
ATOM      1  C   UNL     1      -2.571  -2.688   0.012  0.00  0.00    +0.026 C 
ATOM      2  C   UNL     1      -3.249  -2.298   1.328  0.00  0.00    +0.025 C 
ATOM      3  C   UNL     1      -4.696  -2.800   1.321  0.00  0.00    +0.111 C 
ATOM      4  N   UNL     1      -4.695  -4.244   1.048  0.00  0.00    -0.267 N 
ATOM      5  C   UNL     1      -3.993  -4.736  -0.145  0.00  0.00    +0.111 C 
ATOM      6  C   UNL     1      -2.553  -4.213  -0.122  0.00  0.00    +0.025 C 
ATOM      7  C   UNL     1      -5.325  -5.100   1.876  0.00  0.00    +0.403 C 
ATOM      8  O   UNL     1      -5.902  -4.680   2.860  0.00  0.00    -0.226 OA
ENDROOT
BRANCH   1   9
ATOM      9  C   UNL     1      -1.136  -2.159   0.001  0.00  0.00    +0.136 C 
ATOM     10  C   UNL     1      -0.420  -2.652  -1.258  0.00  0.00    +0.044 C 
BRANCH   9  14
ATOM     11  C   UNL     1      -0.018   1.503   0.010  0.00  0.00    +0.109 C 
ATOM     12  C   UNL     1       0.002  -0.004   0.002  0.00  0.00    +0.211 C 
ATOM     13  O   UNL     1       1.060  -0.596  -0.011  0.00  0.00    -0.276 OA
ATOM     14  N   UNL     1      -1.156  -0.694   0.009  0.00  0.00    -0.300 N 
ATOM     15  H   UNL     1      -2.002  -0.220   0.020  0.00  0.00    +0.150 HD
ENDBRANCH   9  14
BRANCH   9  16
ATOM     16  C   UNL     1      -0.407  -2.658   1.222  0.00  0.00    +0.379 C 
ATOM     17  O   UNL     1       0.053  -1.864   2.025  0.00  0.00    -0.244 OA
ATOM     18  O   UNL     1      -0.278  -3.856   1.407  0.00  0.00    -0.244 OA
ENDBRANCH   9  16
ENDBRANCH   1   9
BRANCH   7  19
ATOM     19  O   UNL     1      -5.316  -6.420   1.613  0.00  0.00    -0.445 OA
BRANCH  19  20
ATOM     20  C   UNL     1      -6.004  -7.269   2.534  0.00  0.00    +0.107 C 
ATOM     21  C   UNL     1      -7.480  -6.872   2.589  0.00  0.00    +0.055 C 
ATOM     22  C   UNL     1      -5.885  -8.724   2.073  0.00  0.00    +0.055 C 
ATOM     23  C   UNL     1      -5.384  -7.123   3.925  0.00  0.00    +0.055 C 
ENDBRANCH  19  20
ENDBRANCH   7  19
TORSDOF 5
