REMARK  Name = ZINC21964583
REMARK  2 active torsions:
REMARK  status: ('A' for Active; 'I' for Inactive)
REMARK    1  A    between atoms: C_4  and  N_18
REMARK    2  A    between atoms: C_5  and  C_7
REMARK                            x       y       z     vdW  Elec       q    Type
REMARK                         _______ _______ _______ _____ _____    ______ ____
ROOT
ATOM      1  C   UNL     1      -2.231  -0.535  -0.096  0.00  0.00    +0.249 C 
ATOM      2  O   UNL     1      -1.146  -1.071   0.024  0.00  0.00    -0.270 OA
ATOM      3  N   UNL     1      -3.337  -1.285  -0.273  0.00  0.00    -0.293 N 
ATOM      4  C   UNL     1      -3.256  -2.753  -0.234  0.00  0.00    +0.113 C 
ATOM      5  C   UNL     1      -4.068  -3.243   0.981  0.00  0.00    +0.061 C 
ATOM      6  C   UNL     1      -5.351  -2.479   1.040  0.00  0.00    -0.004 A 
ATOM      7  C   UNL     1      -5.662  -1.318   0.402  0.00  0.00    -0.020 A 
ATOM      8  C   UNL     1      -6.936  -0.801   0.631  0.00  0.00    +0.013 A 
ATOM      9  C   UNL     1      -7.793  -1.451   1.450  0.00  0.00    +0.046 A 
ATOM     10  S   UNL     1      -6.821  -2.862   1.955  0.00  0.00    -0.101 S 
ATOM     11  C   UNL     1      -4.638  -0.647  -0.512  0.00  0.00    +0.144 C 
ENDROOT
BRANCH   1  16
ATOM     12  C   UNL     1      -3.044   3.003  -1.045  0.00  0.00    +0.001 A 
ATOM     13  C   UNL     1      -2.536   3.701   0.039  0.00  0.00    +0.002 A 
ATOM     14  C   UNL     1      -1.933   3.030   1.082  0.00  0.00    +0.023 A 
ATOM     15  C   UNL     1      -1.822   1.645   1.047  0.00  0.00    +0.037 A 
ATOM     16  C   UNL     1      -2.337   0.935  -0.049  0.00  0.00    +0.057 A 
ATOM     17  C   UNL     1      -2.949   1.630  -1.095  0.00  0.00    +0.015 A 
BRANCH  15  18
ATOM     18  N   UNL     1      -1.212   0.967   2.094  0.00  0.00    -0.357 N 
ATOM     19  H   UNL     1      -1.126  -0.130   2.064  0.00  0.00    +0.142 HD
ATOM     20  H   UNL     1      -0.814   1.526   2.954  0.00  0.00    +0.142 HD
ENDBRANCH  15  18
ENDBRANCH   1  16
TORSDOF 2
