REMARK  Name = ZINC48935085
REMARK  4 active torsions:
REMARK  status: ('A' for Active; 'I' for Inactive)
REMARK    1  A    between atoms: C_1  and  C_2
REMARK    2  A    between atoms: C_15  and  C_17
REMARK    3  A    between atoms: C_17  and  C_19
REMARK    4  A    between atoms: C_17  and  N_20
REMARK                            x       y       z     vdW  Elec       q    Type
REMARK                         _______ _______ _______ _____ _____    ______ ____
ROOT
ATOM      1  C   UNL     1       0.629   1.462   1.448  0.00  0.00    +0.008 C 
ATOM      2  C   UNL     1       0.511  -0.017   1.076  0.00  0.00    -0.008 C 
ATOM      3  C   UNL     1      -0.963  -0.378   0.878  0.00  0.00    +0.022 C 
ATOM      4  C   UNL     1      -1.079  -1.850   0.470  0.00  0.00    +0.108 C 
ATOM      5  N   UNL     1      -0.378  -2.676   1.464  0.00  0.00    -0.297 N 
ATOM      6  C   UNL     1       1.015  -2.349   1.788  0.00  0.00    +0.079 C 
ATOM      7  C   UNL     1       1.096  -0.878   2.203  0.00  0.00    +0.012 C 
ATOM      8  C   UNL     1       0.267  -0.657   3.470  0.00  0.00    +0.005 C 
ATOM      9  C   UNL     1       0.795  -1.548   4.595  0.00  0.00    +0.000 C 
ATOM     10  C   UNL     1       0.680  -3.015   4.175  0.00  0.00    +0.002 C 
ATOM     11  C   UNL     1       1.512  -3.236   2.926  0.00  0.00    +0.023 C 
ATOM     12  C   UNL     1      -1.001  -3.709   2.065  0.00  0.00    +0.236 C 
ATOM     13  O   UNL     1      -0.371  -4.475   2.763  0.00  0.00    -0.274 OA
ENDROOT
BRANCH  12  14
ATOM     14  C   UNL     1      -2.481  -3.913   1.869  0.00  0.00    +0.157 C 
ATOM     15  C   UNL     1      -2.725  -4.648   0.549  0.00  0.00    +0.038 C 
BRANCH  14  16
ATOM     16  N   UNL     1      -3.015  -4.710   2.977  0.00  0.00    -0.289 N 
ATOM     17  C   UNL     1      -4.317  -4.612   3.311  0.00  0.00    +0.298 C 
ATOM     18  O   UNL     1      -5.048  -3.862   2.694  0.00  0.00    -0.253 OA
ATOM     19  N   UNL     1      -4.808  -5.345   4.330  0.00  0.00    -0.313 N 
ATOM     20  H   UNL     1      -2.432  -5.308   3.469  0.00  0.00    +0.151 HD
ATOM     21  H   UNL     1      -4.225  -5.943   4.822  0.00  0.00    +0.146 HD
ATOM     22  H   UNL     1      -5.745  -5.274   4.571  0.00  0.00    +0.146 HD
ENDBRANCH  14  16
ENDBRANCH  12  14
TORSDOF 2
