REMARK  Name = ZINC08191858
REMARK  7 active torsions:
REMARK  status: ('A' for Active; 'I' for Inactive)
REMARK    1  A    between atoms: C_1  and  C_2
REMARK    2  A    between atoms: C_2  and  C_4
REMARK    3  A    between atoms: C_2  and  S_17
REMARK    4  A    between atoms: N_6  and  C_7
REMARK    5  A    between atoms: C_10  and  N_13
REMARK    6  A    between atoms: C_14  and  C_16
REMARK    7  A    between atoms: S_17  and  C_18
REMARK                            x       y       z     vdW  Elec       q    Type
REMARK                         _______ _______ _______ _____ _____    ______ ____
ROOT
ATOM      1  C   UNL     1      -3.866  -0.928  -1.631  0.00  0.00    +0.029 C 
ATOM      2  C   UNL     1      -4.484  -0.913  -0.231  0.00  0.00    +0.137 C 
ENDROOT
BRANCH   2   3
ATOM      3  C   UNL     1      -5.599  -1.924  -0.164  0.00  0.00    +0.230 C 
ATOM      4  O   UNL     1      -6.745  -1.577  -0.358  0.00  0.00    -0.274 OA
ATOM      5  N   UNL     1      -5.324  -3.214   0.112  0.00  0.00    -0.285 N 
ATOM      6  H   UNL     1      -4.402  -3.506   0.195  0.00  0.00    +0.155 HD
BRANCH   5   7
ATOM      7  C   UNL     1      -6.367  -4.133   0.280  0.00  0.00    +0.034 A 
ATOM      8  C   UNL     1      -7.567  -3.725   0.848  0.00  0.00    +0.025 A 
ATOM      9  C   UNL     1      -8.597  -4.630   1.009  0.00  0.00    +0.025 A 
ATOM     10  C   UNL     1      -8.431  -5.950   0.613  0.00  0.00    +0.033 A 
ATOM     11  C   UNL     1      -7.229  -6.359   0.050  0.00  0.00    +0.025 A 
ATOM     12  C   UNL     1      -6.200  -5.454  -0.116  0.00  0.00    +0.025 A 
BRANCH  10  13
ATOM     13  N   UNL     1      -9.475  -6.869   0.780  0.00  0.00    -0.286 N 
ATOM     14  C   UNL     1     -10.753  -6.472   0.623  0.00  0.00    +0.214 C 
ATOM     15  O   UNL     1     -11.005  -5.303   0.420  0.00  0.00    -0.276 OA
ATOM     16  C   UNL     1     -11.870  -7.481   0.700  0.00  0.00    +0.109 C 
ATOM     17  H   UNL     1      -9.277  -7.791   1.008  0.00  0.00    +0.155 HD
ENDBRANCH  10  13
ENDBRANCH   5   7
ENDBRANCH   2   3
BRANCH   2  18
ATOM     18  S   UNL     1      -5.143   0.736   0.120  0.00  0.00    -0.076 S 
BRANCH  18  19
ATOM     19  C   UNL     1      -3.647   1.668   0.126  0.00  0.00    +0.178 C 
ATOM     20  N   UNL     1      -2.472   1.101  -0.092  0.00  0.00    -0.224 NA
ATOM     21  C   UNL     1      -1.313   1.829  -0.048  0.00  0.00    +0.072 A 
ATOM     22  C   UNL     1      -0.089   1.175   0.121  0.00  0.00    +0.028 A 
ATOM     23  C   UNL     1       1.081   1.904   0.155  0.00  0.00    +0.002 A 
ATOM     24  C   UNL     1       1.052   3.282   0.029  0.00  0.00    +0.000 A 
ATOM     25  C   UNL     1      -0.156   3.941  -0.128  0.00  0.00    +0.007 A 
ATOM     26  C   UNL     1      -1.328   3.225  -0.161  0.00  0.00    +0.001 A 
ATOM     27  C   UNL     1      -2.661   3.912  -0.321  0.00  0.00    +0.137 C 
ATOM     28  N   UNL     1      -3.639   3.026   0.359  0.00  0.00    -0.194 N 
ATOM     29  N   UNL     1      -4.378   3.783   1.250  0.00  0.00    -0.190 NA
ATOM     30  C   UNL     1      -3.944   4.970   1.407  0.00  0.00    +0.105 C 
ATOM     31  C   UNL     1      -2.739   5.196   0.518  0.00  0.00    +0.078 C 
ENDBRANCH  18  19
ENDBRANCH   2  18
TORSDOF 5
