REMARK  Name = ZINC13013718
REMARK  3 active torsions:
REMARK  status: ('A' for Active; 'I' for Inactive)
REMARK    1  A    between atoms: C_4  and  N_7
REMARK    2  A    between atoms: C_8  and  N_17
REMARK    3  A    between atoms: C_10  and  C_12
REMARK                            x       y       z     vdW  Elec       q    Type
REMARK                         _______ _______ _______ _____ _____    ______ ____
ROOT
ATOM      1  N   UNL     1       1.162   3.486   0.009  0.00  0.00    -0.218 N 
ATOM      2  C   UNL     1       2.062   4.294   0.637  0.00  0.00    +0.120 A 
ATOM      3  C   UNL     1       1.696   5.581   0.403  0.00  0.00    +0.074 A 
ATOM      4  C   UNL     1       0.534   5.561  -0.395  0.00  0.00    +0.102 A 
ATOM      5  N   UNL     1       0.222   4.302  -0.633  0.00  0.00    -0.164 NA
ENDROOT
BRANCH   1   9
ATOM      6  C   UNL     1       1.208  -0.681  -0.013  0.00  0.00    +0.000 A 
ATOM      7  C   UNL     1       0.002  -0.004   0.002  0.00  0.00    +0.002 A 
ATOM      8  C   UNL     1      -0.017   1.377   0.010  0.00  0.00    +0.028 A 
ATOM      9  C   UNL     1       1.177   2.086   0.002  0.00  0.00    +0.067 A 
ATOM     10  C   UNL     1       2.387   1.404  -0.013  0.00  0.00    +0.028 A 
ATOM     11  C   UNL     1       2.399   0.023  -0.021  0.00  0.00    +0.002 A 
ENDBRANCH   1   9
BRANCH   4  12
ATOM     12  C   UNL     1      -0.202   6.745  -0.886  0.00  0.00    +0.039 A 
ATOM     13  C   UNL     1      -1.330   6.800  -1.659  0.00  0.00    +0.018 A 
ATOM     14  C   UNL     1      -1.844   8.034  -1.996  0.00  0.00    +0.008 A 
ATOM     15  C   UNL     1      -1.218   9.154  -1.552  0.00  0.00    +0.046 A 
ATOM     16  S   UNL     1       0.144   8.476  -0.617  0.00  0.00    -0.095 S 
ENDBRANCH   4  12
BRANCH   2  17
ATOM     17  N   UNL     1       3.158   3.875   1.385  0.00  0.00    -0.343 N 
ATOM     18  H   UNL     1       3.337   2.928   1.496  0.00  0.00    +0.144 HD
ATOM     19  H   UNL     1       3.744   4.530   1.795  0.00  0.00    +0.144 HD
ENDBRANCH   2  17
TORSDOF 3
