REMARK  Name = ZINC01155603
REMARK  6 active torsions:
REMARK  status: ('A' for Active; 'I' for Inactive)
REMARK    1  A    between atoms: C_4  and  N_10
REMARK    2  A    between atoms: C_5  and  C_7
REMARK    3  A    between atoms: C_11  and  C_13
REMARK    4  A    between atoms: C_18  and  N_19
REMARK    5  A    between atoms: N_19  and  S_20
REMARK    6  A    between atoms: S_20  and  C_23
REMARK                            x       y       z     vdW  Elec       q    Type
REMARK                         _______ _______ _______ _____ _____    ______ ____
ROOT
ATOM      1  C   UNL     1       1.975  -2.115  -3.778  0.00  0.00    +0.059 A 
ATOM      2  C   UNL     1       3.014  -1.708  -4.619  0.00  0.00    +0.015 A 
ATOM      3  C   UNL     1       4.308  -1.675  -4.147  0.00  0.00    +0.001 A 
ATOM      4  C   UNL     1       4.586  -2.044  -2.840  0.00  0.00    +0.002 A 
ATOM      5  C   UNL     1       3.570  -2.444  -1.996  0.00  0.00    +0.025 A 
ATOM      6  C   UNL     1       2.260  -2.489  -2.455  0.00  0.00    +0.060 A 
ENDROOT
BRANCH   1   8
ATOM      7  N   UNL     1       0.320  -1.793  -5.548  0.00  0.00    -0.281 N 
ATOM      8  C   UNL     1       0.589  -2.152  -4.277  0.00  0.00    +0.250 C 
ATOM      9  O   UNL     1      -0.313  -2.507  -3.542  0.00  0.00    -0.270 OA
ATOM     10  H   UNL     1       1.046  -1.589  -6.158  0.00  0.00    +0.155 HD
BRANCH   7  14
ATOM     11  C   UNL     1      -3.632  -1.559  -6.855  0.00  0.00    +0.001 A 
ATOM     12  C   UNL     1      -3.330  -1.400  -5.512  0.00  0.00    +0.002 A 
ATOM     13  C   UNL     1      -2.023  -1.482  -5.076  0.00  0.00    +0.024 A 
ATOM     14  C   UNL     1      -1.000  -1.715  -5.985  0.00  0.00    +0.046 A 
ATOM     15  C   UNL     1      -1.302  -1.877  -7.345  0.00  0.00    +0.058 A 
ATOM     16  C   UNL     1      -2.631  -1.796  -7.770  0.00  0.00    +0.015 A 
BRANCH  15  17
ATOM     17  C   UNL     1      -0.225  -2.131  -8.320  0.00  0.00    +0.243 C 
ATOM     18  O   UNL     1       0.916  -2.300  -7.935  0.00  0.00    -0.270 OA
ATOM     19  N   UNL     1      -0.506  -2.177  -9.637  0.00  0.00    -0.325 N 
ATOM     20  H   UNL     1      -1.416  -2.043  -9.944  0.00  0.00    +0.145 HD
ATOM     21  H   UNL     1       0.203  -2.344 -10.279  0.00  0.00    +0.145 HD
ENDBRANCH  15  17
ENDBRANCH   7  14
ENDBRANCH   1   8
BRANCH   6  22
ATOM     22  N   UNL     1       1.237  -2.895  -1.609  0.00  0.00    -0.216 N 
ATOM     23  H   UNL     1       0.493  -3.411  -1.959  0.00  0.00    +0.174 HD
BRANCH  22  24
ATOM     24  S   UNL     1       1.285  -2.500  -0.002  0.00  0.00    +0.072 S 
ATOM     25  O   UNL     1       2.542  -2.946   0.488  0.00  0.00    -0.150 OA
ATOM     26  O   UNL     1       0.053  -2.929   0.560  0.00  0.00    -0.150 OA
BRANCH  24  27
ATOM     27  C   UNL     1       1.300  -0.741   0.102  0.00  0.00    +0.109 A 
ATOM     28  C   UNL     1       0.109  -0.043   0.177  0.00  0.00    +0.030 A 
ATOM     29  C   UNL     1       0.119   1.336   0.259  0.00  0.00    +0.022 A 
ATOM     30  C   UNL     1       1.322   2.019   0.265  0.00  0.00    +0.041 A 
ATOM     31  C   UNL     1       2.514   1.321   0.190  0.00  0.00    +0.022 A 
ATOM     32  C   UNL     1       2.502  -0.059   0.109  0.00  0.00    +0.030 A 
ATOM     33 CL   UNL     1       1.337   3.752   0.367  0.00  0.00    -0.084 Cl
ENDBRANCH  24  27
ENDBRANCH  22  24
ENDBRANCH   6  22
TORSDOF 6
