REMARK  Name = ZINC48871601
REMARK  7 active torsions:
REMARK  status: ('A' for Active; 'I' for Inactive)
REMARK    1  A    between atoms: C_1  and  C_2
REMARK    2  A    between atoms: C_2  and  C_4
REMARK    3  A    between atoms: C_2  and  N_15
REMARK    4  A    between atoms: N_6  and  C_7
REMARK    5  A    between atoms: N_15  and  C_16
REMARK    6  A    between atoms: N_15  and  C_17
REMARK    7  A    between atoms: C_17  and  C_18
REMARK                            x       y       z     vdW  Elec       q    Type
REMARK                         _______ _______ _______ _____ _____    ______ ____
ROOT
ATOM      1  C   UNL     1      -1.420  -0.217   0.291  0.00  0.00    +0.203 C 
ATOM      2  O   UNL     1      -1.666  -0.833   1.307  0.00  0.00    -0.277 OA
ATOM      3  N   UNL     1      -2.411   0.082  -0.572  0.00  0.00    -0.286 N 
ATOM      4  H   UNL     1      -2.205   0.511  -1.417  0.00  0.00    +0.155 HD
ENDROOT
BRANCH   3   5
ATOM      5  C   UNL     1      -3.738  -0.225  -0.249  0.00  0.00    +0.047 A 
ATOM      6  C   UNL     1      -4.099  -0.441   1.075  0.00  0.00    +0.025 A 
ATOM      7  C   UNL     1      -5.409  -0.744   1.391  0.00  0.00    +0.017 A 
ATOM      8  C   UNL     1      -6.361  -0.833   0.391  0.00  0.00    +0.019 A 
ATOM      9  C   UNL     1      -6.005  -0.620  -0.929  0.00  0.00    +0.032 A 
ATOM     10  C   UNL     1      -4.697  -0.310  -1.250  0.00  0.00    +0.040 A 
ATOM     11 BR   UNL     1      -4.211  -0.009  -3.053  0.00  0.00    -0.048 Br
ATOM     12 BR   UNL     1      -8.153  -1.249   0.828  0.00  0.00    -0.050 Br
ENDBRANCH   3   5
BRANCH   1  14
ATOM     13  C   UNL     1       0.222   1.624   0.543  0.00  0.00    -0.004 C 
ATOM     14  C   UNL     1      -0.007   0.214  -0.005  0.00  0.00    +0.017 C 
BRANCH  14  15
ATOM     15  N   UNL     1       0.933  -0.718   0.633  0.00  0.00    +0.391 N 
ATOM     16  C   UNL     1       0.760  -2.058   0.058  0.00  0.00    -0.094 C 
ATOM     17  H   UNL     1       0.751  -0.751   1.625  0.00  0.00    -0.080 HD
BRANCH  15  18
ATOM     18  C   UNL     1       2.309  -0.259   0.402  0.00  0.00    +0.019 C 
BRANCH  18  19
ATOM     19  C   UNL     1       3.267  -1.144   1.159  0.00  0.00    +0.194 C 
ATOM     20  O   UNL     1       2.844  -2.065   1.824  0.00  0.00    -0.278 OA
ATOM     21  N   UNL     1       4.593  -0.911   1.095  0.00  0.00    -0.331 N 
ATOM     22  H   UNL     1       4.931  -0.174   0.563  0.00  0.00    +0.145 HD
ATOM     23  H   UNL     1       5.209  -1.480   1.582  0.00  0.00    +0.145 HD
ENDBRANCH  18  19
ENDBRANCH  15  18
ENDBRANCH  14  15
ENDBRANCH   1  14
TORSDOF 5
