REMARK  Name = ZINC39336780
REMARK  5 active torsions:
REMARK  status: ('A' for Active; 'I' for Inactive)
REMARK    1  A    between atoms: C_1  and  C_2
REMARK    2  A    between atoms: C_4  and  C_21
REMARK    3  A    between atoms: C_8  and  N_20
REMARK    4  A    between atoms: C_10  and  C_13
REMARK    5  A    between atoms: N_18  and  C_19
REMARK                            x       y       z     vdW  Elec       q    Type
REMARK                         _______ _______ _______ _____ _____    ______ ____
ROOT
ATOM      1  C   UNL     1      -0.506   1.155  -0.082  0.00  0.00    +0.044 C 
ATOM      2  C   UNL     1      -0.442  -0.340   0.096  0.00  0.00    -0.045 A 
ATOM      3  C   UNL     1      -0.725  -1.181  -0.965  0.00  0.00    +0.026 A 
ATOM      4  C   UNL     1      -0.665  -2.549  -0.794  0.00  0.00    +0.040 A 
ATOM      5  N   UNL     1      -0.346  -3.053   0.384  0.00  0.00    -0.245 NA
ATOM      6  C   UNL     1      -0.075  -2.280   1.418  0.00  0.00    +0.100 A 
ATOM      7  C   UNL     1      -0.090  -0.888   1.332  0.00  0.00    -0.026 A 
ATOM      8  C   UNL     1       0.288  -0.134   2.582  0.00  0.00    -0.020 C 
ATOM      9  C   UNL     1       0.135  -1.010   3.846  0.00  0.00    +0.110 C 
ATOM     10  S   UNL     1       0.354  -2.675   3.100  0.00  0.00    -0.096 S 
ATOM     11  C   UNL     1      -0.964  -3.468  -1.951  0.00  0.00    +0.065 C 
ENDROOT
BRANCH   9  12
ATOM     12  C   UNL     1       1.210  -0.706   4.858  0.00  0.00    +0.146 A 
ATOM     13  N   UNL     1       2.460  -1.067   4.788  0.00  0.00    -0.132 NA
ATOM     14  N   UNL     1       3.100  -0.641   5.818  0.00  0.00    -0.122 NA
ATOM     15  C   UNL     1       2.286   0.020   6.607  0.00  0.00    +0.202 A 
ATOM     16  S   UNL     1       2.704   0.790   8.136  0.00  0.00    -0.009 SA
ATOM     17  N   UNL     1       1.055   0.004   6.016  0.00  0.00    -0.308 N 
ATOM     18  C   UNL     1      -0.176   0.617   6.520  0.00  0.00    +0.152 C 
ENDBRANCH   9  12
BRANCH   8  19
ATOM     19  N   UNL     1      -0.577   1.046   2.710  0.00  0.00    +0.384 N 
ATOM     20  H   UNL     1      -1.543   0.765   2.622  0.00  0.00    -0.089 HD
ATOM     21  H   UNL     1      -0.432   1.473   3.613  0.00  0.00    -0.089 HD
ATOM     22  H   UNL     1      -0.352   1.709   1.984  0.00  0.00    -0.089 HD
ENDBRANCH   8  19
TORSDOF 2
