REMARK  Name = ZINC07304944
REMARK  7 active torsions:
REMARK  status: ('A' for Active; 'I' for Inactive)
REMARK    1  A    between atoms: C_1  and  C_2
REMARK    2  A    between atoms: C_4  and  C_23
REMARK    3  A    between atoms: C_5  and  C_22
REMARK    4  A    between atoms: C_6  and  S_9
REMARK    5  A    between atoms: C_7  and  C_8
REMARK    6  A    between atoms: S_9  and  N_12
REMARK    7  A    between atoms: C_16  and  C_19
REMARK                            x       y       z     vdW  Elec       q    Type
REMARK                         _______ _______ _______ _____ _____    ______ ____
ROOT
ATOM      1  S   UNL     1       0.037  -2.514   2.930  0.00  0.00    +0.061 S 
ATOM      2  O   UNL     1      -0.410  -1.460   3.772  0.00  0.00    -0.153 OA
ATOM      3  O   UNL     1      -0.609  -3.778   2.882  0.00  0.00    -0.153 OA
ENDROOT
BRANCH   1   9
ATOM      4  C   UNL     1      -0.250  -3.191  -2.245  0.00  0.00    +0.044 C 
ATOM      5  C   UNL     1      -0.107  -2.250  -1.077  0.00  0.00    -0.045 A 
ATOM      6  C   UNL     1       0.017  -0.891  -1.296  0.00  0.00    +0.007 A 
ATOM      7  C   UNL     1       0.148  -0.027  -0.224  0.00  0.00    -0.045 A 
ATOM      8  C   UNL     1       0.154  -0.523   1.066  0.00  0.00    -0.021 A 
ATOM      9  C   UNL     1       0.029  -1.882   1.285  0.00  0.00    +0.112 A 
ATOM     10  C   UNL     1      -0.106  -2.745   0.214  0.00  0.00    -0.021 A 
ATOM     11  C   UNL     1      -0.248  -4.226   0.453  0.00  0.00    +0.046 C 
ATOM     12  C   UNL     1       0.298   0.418   2.234  0.00  0.00    +0.046 C 
ATOM     13  C   UNL     1       0.284   1.455  -0.463  0.00  0.00    +0.044 C 
ENDBRANCH   1   9
BRANCH   1  14
ATOM     14  N   UNL     1       1.617  -2.804   3.335  0.00  0.00    -0.176 NA
ATOM     15  C   UNL     1       2.232  -4.110   3.061  0.00  0.00    +0.109 C 
ATOM     16  C   UNL     1       2.840  -4.651   4.358  0.00  0.00    +0.018 C 
ATOM     17  C   UNL     1       3.803  -3.612   4.938  0.00  0.00    +0.015 C 
ATOM     18  C   UNL     1       3.036  -2.328   5.262  0.00  0.00    +0.090 C 
ATOM     19  C   UNL     1       2.431  -1.759   3.969  0.00  0.00    +0.122 C 
BRANCH  18  20
ATOM     20  C   UNL     1       3.978  -1.317   5.862  0.00  0.00    +0.215 C 
ATOM     21  O   UNL     1       4.148  -0.247   5.317  0.00  0.00    -0.276 OA
ATOM     22  N   UNL     1       4.633  -1.602   7.006  0.00  0.00    -0.329 N 
ATOM     23  H   UNL     1       4.497  -2.458   7.441  0.00  0.00    +0.145 HD
ATOM     24  H   UNL     1       5.240  -0.952   7.392  0.00  0.00    +0.145 HD
ENDBRANCH  18  20
ENDBRANCH   1  14
TORSDOF 3
