REMARK  Name = ZINC28323828
REMARK  5 active torsions:
REMARK  status: ('A' for Active; 'I' for Inactive)
REMARK    1  A    between atoms: C_1  and  C_2
REMARK    2  A    between atoms: C_5  and  C_8
REMARK    3  A    between atoms: N_11  and  N_12
REMARK    4  A    between atoms: C_15  and  C_20
REMARK    5  A    between atoms: C_17  and  C_19
REMARK                            x       y       z     vdW  Elec       q    Type
REMARK                         _______ _______ _______ _____ _____    ______ ____
ROOT
ATOM      1  C   UNL     1       3.604  -1.016   0.225  0.00  0.00    +0.138 A 
ATOM      2  C   UNL     1       2.409  -0.433  -0.023  0.00  0.00    +0.074 A 
ATOM      3  C   UNL     1       2.338   1.042  -0.015  0.00  0.00    +0.067 A 
ATOM      4  N   UNL     1       1.193   1.683  -0.000  0.00  0.00    -0.303 N 
ATOM      5  C   UNL     1       3.640   1.758  -0.029  0.00  0.00    +0.045 A 
ATOM      6  C   UNL     1       3.715   3.118  -0.293  0.00  0.00    +0.033 A 
ATOM      7  C   UNL     1       4.948   3.744  -0.302  0.00  0.00    +0.043 A 
ATOM      8  C   UNL     1       6.099   3.015  -0.049  0.00  0.00    +0.043 A 
ATOM      9  C   UNL     1       6.030   1.659   0.228  0.00  0.00    +0.085 A 
ATOM     10  C   UNL     1       4.799   1.016   0.237  0.00  0.00    +0.156 A 
ATOM     11  O   UNL     1       4.718  -0.309   0.493  0.00  0.00    -0.453 OA
ATOM     12 CL   UNL     1       7.481   0.760   0.543  0.00  0.00    -0.080 Cl
ATOM     13 CL   UNL     1       5.054   5.446  -0.630  0.00  0.00    -0.083 Cl
ATOM     14  H   UNL     1       1.178   2.783   0.006  0.00  0.00    +0.184 HD
ENDROOT
BRANCH   4  15
ATOM     15  N   UNL     1      -0.011   0.966   0.007  0.00  0.00    -0.227 N 
ATOM     16  C   UNL     1      -1.217   1.641   0.017  0.00  0.00    +0.234 A 
ATOM     17  N   UNL     1      -1.217   2.966   0.029  0.00  0.00    -0.218 NA
ATOM     18  C   UNL     1      -2.354   3.642   0.034  0.00  0.00    +0.044 A 
ATOM     19  C   UNL     1      -3.554   2.948   0.036  0.00  0.00    +0.046 A 
ATOM     20  C   UNL     1      -3.518   1.562   0.028  0.00  0.00    +0.044 A 
ATOM     21  N   UNL     1      -2.347   0.947   0.018  0.00  0.00    -0.218 NA
ATOM     22  C   UNL     1      -4.798   0.766   0.029  0.00  0.00    +0.066 C 
ATOM     23  C   UNL     1      -2.345   5.149   0.043  0.00  0.00    +0.066 C 
ATOM     24  H   UNL     1       0.004  -0.134   0.006  0.00  0.00    +0.175 HD
ENDBRANCH   4  15
BRANCH   1  29
ATOM     25  C   UNL     1       3.939  -6.758   0.130  0.00  0.00    +0.044 C 
ATOM     26  C   UNL     1       3.851  -5.254   0.155  0.00  0.00    -0.050 A 
ATOM     27  C   UNL     1       4.981  -4.502   0.428  0.00  0.00    +0.004 A 
ATOM     28  C   UNL     1       4.908  -3.125   0.452  0.00  0.00    +0.012 A 
ATOM     29  C   UNL     1       3.690  -2.489   0.201  0.00  0.00    +0.017 A 
ATOM     30  C   UNL     1       2.553  -3.254  -0.069  0.00  0.00    +0.012 A 
ATOM     31  C   UNL     1       2.642  -4.630  -0.096  0.00  0.00    +0.004 A 
ENDBRANCH   1  29
TORSDOF 2
