REMARK  Name = ZINC03013864
REMARK  8 active torsions:
REMARK  status: ('A' for Active; 'I' for Inactive)
REMARK    1  A    between atoms: C_1  and  N_2
REMARK    2  A    between atoms: N_2  and  C_3
REMARK    3  A    between atoms: N_6  and  C_7
REMARK    4  A    between atoms: C_7  and  C_9
REMARK    5  A    between atoms: C_7  and  N_13
REMARK    6  A    between atoms: N_13  and  C_14
REMARK    7  A    between atoms: C_14  and  N_16
REMARK    8  A    between atoms: N_16  and  C_17
REMARK                            x       y       z     vdW  Elec       q    Type
REMARK                         _______ _______ _______ _____ _____    ______ ____
ROOT
ATOM      1  N   UNL     1      -1.141  -2.084   1.749  0.00  0.00    -0.305 N 
ATOM      2  H   UNL     1      -2.059  -2.314   1.960  0.00  0.00    +0.150 HD
ENDROOT
BRANCH   1   3
ATOM      3  C   UNL     1      -0.139  -2.524   2.535  0.00  0.00    +0.136 C 
ATOM      4  S   UNL     1       1.482  -2.118   2.164  0.00  0.00    -0.019 S 
BRANCH   3   5
ATOM      5  N   UNL     1      -0.413  -3.284   3.614  0.00  0.00    -0.297 N 
ATOM      6  H   UNL     1      -1.334  -3.467   3.858  0.00  0.00    +0.154 HD
BRANCH   5   7
ATOM      7  C   UNL     1       0.631  -3.810   4.383  0.00  0.00    +0.034 A 
ATOM      8  C   UNL     1       0.583  -5.131   4.811  0.00  0.00    +0.023 A 
ATOM      9  C   UNL     1       1.617  -5.649   5.566  0.00  0.00    +0.003 A 
ATOM     10  C   UNL     1       2.695  -4.852   5.904  0.00  0.00    +0.020 A 
ATOM     11  C   UNL     1       2.744  -3.534   5.484  0.00  0.00    +0.043 A 
ATOM     12  C   UNL     1       1.714  -3.011   4.724  0.00  0.00    +0.043 A 
ATOM     13 CL   UNL     1       4.099  -2.537   5.912  0.00  0.00    -0.083 Cl
ENDBRANCH   5   7
ENDBRANCH   3   5
ENDBRANCH   1   3
BRANCH   1  14
ATOM     14  C   UNL     1      -0.843  -1.258   0.577  0.00  0.00    +0.212 C 
BRANCH  14  20
ATOM     15  C   UNL     1       0.494   3.242   1.856  0.00  0.00    +0.133 C 
ATOM     16  N   UNL     1      -0.555   2.294   1.474  0.00  0.00    -0.292 N 
ATOM     17  C   UNL     1      -1.960   2.711   1.487  0.00  0.00    +0.133 C 
ATOM     18  C   UNL     1      -0.228   1.040   1.105  0.00  0.00    +0.303 C 
ATOM     19  O   UNL     1       0.941   0.724   0.994  0.00  0.00    -0.253 OA
ATOM     20  N   UNL     1      -1.196   0.136   0.858  0.00  0.00    -0.277 N 
ATOM     21  H   UNL     1      -2.127   0.407   0.868  0.00  0.00    +0.152 HD
ENDBRANCH  14  20
BRANCH  14  22
ATOM     22  C   UNL     1      -1.655  -1.758  -0.619  0.00  0.00    +0.225 C 
ATOM     23 CL   UNL     1      -1.289  -0.742  -2.063  0.00  0.00    -0.080 Cl
ATOM     24 CL   UNL     1      -1.220  -3.473  -0.966  0.00  0.00    -0.080 Cl
ATOM     25 CL   UNL     1      -3.414  -1.650  -0.239  0.00  0.00    -0.080 Cl
ENDBRANCH  14  22
ENDBRANCH   1  14
TORSDOF 6
