REMARK  Name = ZINC53169384
REMARK  2 active torsions:
REMARK  status: ('A' for Active; 'I' for Inactive)
REMARK    1  A    between atoms: N_9  and  C_10
REMARK    2  A    between atoms: C_16  and  O_18
REMARK                            x       y       z     vdW  Elec       q    Type
REMARK                         _______ _______ _______ _____ _____    ______ ____
ROOT
ATOM      1  C   UNL     1      -0.023   1.379  -0.130  0.00  0.00    +0.031 A 
ATOM      2  C   UNL     1       1.160   2.082  -0.256  0.00  0.00    +0.043 A 
ATOM      3  C   UNL     1       2.370   1.408  -0.311  0.00  0.00    +0.161 A 
ATOM      4  C   UNL     1       2.402   0.025  -0.240  0.00  0.00    +0.184 A 
ATOM      5  C   UNL     1       1.217  -0.686  -0.113  0.00  0.00    +0.106 A 
ATOM      6  C   UNL     1      -0.001  -0.005  -0.057  0.00  0.00    +0.068 A 
ATOM      7  N   UNL     1      -0.996  -0.972   0.069  0.00  0.00    -0.334 N 
ATOM      8  C   UNL     1      -0.411  -2.184   0.089  0.00  0.00    +0.159 A 
ATOM      9  N   UNL     1       0.924  -2.045  -0.018  0.00  0.00    -0.312 N 
ATOM     10  S   UNL     1      -1.239  -3.676   0.231  0.00  0.00    -0.013 S 
ATOM     11  F   UNL     1       3.583  -0.629  -0.295  0.00  0.00    -0.200 F 
ATOM     12  F   UNL     1       3.522   2.103  -0.435  0.00  0.00    -0.202 F 
ATOM     13  H   UNL     1      -1.949  -0.800   0.131  0.00  0.00    +0.168 HD
ENDROOT
BRANCH   9  14
ATOM     14  C   UNL     1       1.901  -3.137  -0.034  0.00  0.00    +0.118 C 
ATOM     15  C   UNL     1       1.613  -4.062  -1.218  0.00  0.00    +0.028 C 
ATOM     16  C   UNL     1       0.203  -4.641  -1.081  0.00  0.00    +0.002 C 
ATOM     17  C   UNL     1       0.102  -5.435   0.223  0.00  0.00    +0.003 C 
ATOM     18  C   UNL     1       0.390  -4.510   1.407  0.00  0.00    +0.033 C 
ATOM     19  C   UNL     1       1.800  -3.930   1.270  0.00  0.00    +0.137 C 
BRANCH  19  20
ATOM     20  O   UNL     1       2.069  -3.066   2.376  0.00  0.00    -0.390 OA
ATOM     21  H   UNL     1       2.022  -3.503   3.237  0.00  0.00    +0.210 HD
ENDBRANCH  19  20
ENDBRANCH   9  14
TORSDOF 2
