REMARK  Name = ZINC35280475
REMARK  3 active torsions:
REMARK  status: ('A' for Active; 'I' for Inactive)
REMARK    1  A    between atoms: C_4  and  N_10
REMARK    2  A    between atoms: C_5  and  C_7
REMARK    3  A    between atoms: C_7  and  N_9
REMARK                            x       y       z     vdW  Elec       q    Type
REMARK                         _______ _______ _______ _____ _____    ______ ____
ROOT
ATOM      1  N   UNL     1       3.648  -0.625  -0.038  0.00  0.00    -0.209 N 
ATOM      2  C   UNL     1       4.276  -0.960  -1.173  0.00  0.00    +0.227 C 
ATOM      3  O   UNL     1       3.872  -0.733  -2.293  0.00  0.00    -0.275 OA
ATOM      4  C   UNL     1       5.571  -1.668  -0.834  0.00  0.00    +0.113 C 
ATOM      5  C   UNL     1       5.578  -1.680   0.703  0.00  0.00    +0.056 C 
ATOM      6  C   UNL     1       4.297  -0.978   1.080  0.00  0.00    +0.233 C 
ATOM      7  O   UNL     1       3.915  -0.769   2.211  0.00  0.00    -0.274 OA
ATOM      8  C   UNL     1       6.783  -0.911   1.233  0.00  0.00    +0.016 C 
ATOM      9  C   UNL     1       6.759  -0.912   2.764  0.00  0.00    +0.001 C 
ATOM     10  C   UNL     1       6.789  -2.355   3.272  0.00  0.00    +0.000 C 
ATOM     11  C   UNL     1       5.563  -3.107   2.751  0.00  0.00    +0.001 C 
ATOM     12  C   UNL     1       5.582  -3.114   1.220  0.00  0.00    +0.016 C 
ENDROOT
BRANCH   1  16
ATOM     13  C   UNL     1      -0.017   1.374   0.010  0.00  0.00    +0.001 A 
ATOM     14  C   UNL     1       1.170   2.090   0.002  0.00  0.00    +0.002 A 
ATOM     15  C   UNL     1       2.383   1.431  -0.013  0.00  0.00    +0.024 A 
ATOM     16  C   UNL     1       2.421   0.044  -0.022  0.00  0.00    +0.053 A 
ATOM     17  C   UNL     1       1.222  -0.684  -0.014  0.00  0.00    +0.025 A 
ATOM     18  C   UNL     1       0.002  -0.004   0.002  0.00  0.00    +0.012 A 
BRANCH  17  19
ATOM     19  C   UNL     1       1.250  -2.158  -0.023  0.00  0.00    +0.079 C 
ATOM     20  S   UNL     1       2.748  -2.986  -0.043  0.00  0.00    -0.035 S 
BRANCH  19  21
ATOM     21  N   UNL     1       0.095  -2.853  -0.015  0.00  0.00    -0.352 N 
ATOM     22  H   UNL     1      -0.753  -2.384  -0.003  0.00  0.00    +0.143 HD
ATOM     23  H   UNL     1       0.113  -3.823  -0.021  0.00  0.00    +0.143 HD
ENDBRANCH  19  21
ENDBRANCH  17  19
ENDBRANCH   1  16
TORSDOF 3
