REMARK  Name = ZINC63917101
REMARK  3 active torsions:
REMARK  status: ('A' for Active; 'I' for Inactive)
REMARK    1  A    between atoms: C_1  and  N_2
REMARK    2  A    between atoms: C_4  and  C_7
REMARK    3  A    between atoms: C_9  and  C_10
REMARK                            x       y       z     vdW  Elec       q    Type
REMARK                         _______ _______ _______ _____ _____    ______ ____
ROOT
ATOM      1  C   UNL     1      -2.191  -3.962  -0.409  0.00  0.00    +0.222 C 
ATOM      2  O   UNL     1      -2.109  -2.952   0.258  0.00  0.00    -0.275 OA
ATOM      3  N   UNL     1      -3.237  -4.795  -0.244  0.00  0.00    -0.265 N 
ATOM      4  C   UNL     1      -4.215  -4.500   0.683  0.00  0.00    +0.161 C 
ATOM      5  N   UNL     1      -4.150  -3.420   1.406  0.00  0.00    -0.230 NA
ATOM      6  C   UNL     1      -5.044  -2.997   2.340  0.00  0.00    +0.044 C 
ATOM      7  C   UNL     1      -5.928  -3.779   2.934  0.00  0.00    -0.032 C 
ATOM      8  C   UNL     1      -6.950  -3.271   3.925  0.00  0.00    +0.034 C 
ATOM      9  C   UNL     1      -6.531  -1.930   4.518  0.00  0.00    +0.005 C 
ATOM     10  C   UNL     1      -6.174  -0.997   3.354  0.00  0.00    +0.006 C 
ATOM     11  C   UNL     1      -4.906  -1.530   2.699  0.00  0.00    +0.055 C 
ATOM     12  C   UNL     1      -5.970  -5.276   2.680  0.00  0.00    +0.047 C 
ATOM     13  S   UNL     1      -5.601  -5.577   0.923  0.00  0.00    -0.079 S 
ATOM     14  C   UNL     1      -7.364  -5.806   3.009  0.00  0.00    +0.022 C 
ATOM     15  C   UNL     1      -7.408  -7.316   2.764  0.00  0.00    +0.002 C 
ATOM     16  C   UNL     1      -6.370  -8.006   3.652  0.00  0.00    +0.000 C 
ATOM     17  C   UNL     1      -4.975  -7.478   3.311  0.00  0.00    +0.002 C 
ATOM     18  C   UNL     1      -4.928  -5.968   3.556  0.00  0.00    +0.022 C 
ATOM     19  H   UNL     1      -3.302  -5.603  -0.777  0.00  0.00    +0.157 HD
ENDROOT
BRANCH   1  22
ATOM     20  C   UNL     1       0.039  -3.298  -1.561  0.00  0.00    +0.035 C 
ATOM     21  C   UNL     1       0.264  -4.655  -0.892  0.00  0.00    +0.022 C 
ATOM     22  C   UNL     1      -1.123  -4.284  -1.421  0.00  0.00    +0.083 C 
BRANCH  20  26
ATOM     23  C   UNL     1      -0.018   1.461   0.010  0.00  0.00    +0.172 C 
ATOM     24  N   UNL     1       0.002  -0.004   0.002  0.00  0.00    -0.274 N 
ATOM     25  C   UNL     1       0.008  -0.792  -1.094  0.00  0.00    +0.112 A 
ATOM     26  C   UNL     1       0.027  -2.079  -0.676  0.00  0.00    -0.006 A 
ATOM     27  C   UNL     1       0.034  -2.078   0.723  0.00  0.00    +0.138 A 
ATOM     28  N   UNL     1       0.025  -0.834   1.130  0.00  0.00    -0.180 NA
ENDBRANCH  20  26
ENDBRANCH   1  22
TORSDOF 2
