REMARK  Name = ZINC00406532
REMARK  4 active torsions:
REMARK  status: ('A' for Active; 'I' for Inactive)
REMARK    1  A    between atoms: C_8  and  N_12
REMARK    2  A    between atoms: N_12  and  S_13
REMARK    3  A    between atoms: S_13  and  C_16
REMARK    4  A    between atoms: C_19  and  N_22
REMARK                            x       y       z     vdW  Elec       q    Type
REMARK                         _______ _______ _______ _____ _____    ______ ____
ROOT
ATOM      1  N   UNL     1       0.002  -0.004   0.002  0.00  0.00    -0.197 N 
ATOM      2  H   UNL     1      -0.831  -0.500   0.007  0.00  0.00    +0.175 HD
ENDROOT
BRANCH   1  10
ATOM      3  C   UNL     1       2.243   5.494   0.008  0.00  0.00    +0.002 A 
ATOM      4  C   UNL     1       1.023   6.165   0.023  0.00  0.00    +0.002 A 
ATOM      5  C   UNL     1      -0.154   5.480   0.031  0.00  0.00    +0.030 A 
ATOM      6  C   UNL     1      -0.142   4.075   0.025  0.00  0.00    +0.091 A 
ATOM      7  C   UNL     1       1.099   3.392   0.009  0.00  0.00    +0.091 A 
ATOM      8  C   UNL     1       2.293   4.133   0.001  0.00  0.00    +0.030 A 
ATOM      9  N   UNL     1       1.119   2.053   0.002  0.00  0.00    -0.226 NA
ATOM     10  C   UNL     1      -0.017   1.383   0.010  0.00  0.00    +0.176 A 
ATOM     11  C   UNL     1      -1.248   2.065   0.019  0.00  0.00    +0.171 A 
ATOM     12  N   UNL     1      -1.285   3.376   0.032  0.00  0.00    -0.230 NA
ATOM     13 CL   UNL     1      -2.732   1.163   0.022  0.00  0.00    -0.058 Cl
ENDBRANCH   1  10
BRANCH   1  14
ATOM     14  S   UNL     1       1.447  -0.812  -0.016  0.00  0.00    +0.074 S 
ATOM     15  O   UNL     1       1.137  -2.199   0.006  0.00  0.00    -0.150 OA
ATOM     16  O   UNL     1       2.229  -0.223  -1.046  0.00  0.00    -0.150 OA
BRANCH  14  17
ATOM     17  C   UNL     1       2.264  -0.454   1.504  0.00  0.00    +0.109 A 
ATOM     18  C   UNL     1       3.113   0.634   1.591  0.00  0.00    +0.030 A 
ATOM     19  C   UNL     1       3.750   0.921   2.782  0.00  0.00    +0.024 A 
ATOM     20  C   UNL     1       3.546   0.109   3.890  0.00  0.00    +0.025 A 
ATOM     21  C   UNL     1       2.696  -0.987   3.798  0.00  0.00    +0.024 A 
ATOM     22  C   UNL     1       2.058  -1.264   2.605  0.00  0.00    +0.030 A 
BRANCH  20  23
ATOM     23  N   UNL     1       4.193   0.393   5.095  0.00  0.00    -0.358 N 
ATOM     24  H   UNL     1       4.049  -0.175   5.868  0.00  0.00    +0.142 HD
ATOM     25  H   UNL     1       4.786   1.158   5.158  0.00  0.00    +0.142 HD
ENDBRANCH  20  23
ENDBRANCH  14  17
ENDBRANCH   1  14
TORSDOF 4
