REMARK  Name = ZINC20650058
REMARK  12 active torsions:
REMARK  status: ('A' for Active; 'I' for Inactive)
REMARK    1  A    between atoms: C_1  and  C_2
REMARK    2  A    between atoms: C_2  and  C_29
REMARK    3  A    between atoms: C_6  and  N_21
REMARK    4  A    between atoms: C_9  and  C_10
REMARK    5  A    between atoms: N_12  and  C_13
REMARK    6  A    between atoms: C_16  and  O_19
REMARK    7  A    between atoms: O_19  and  C_20
REMARK    8  A    between atoms: N_21  and  C_22
REMARK    9  A    between atoms: C_22  and  C_23
REMARK   10  A    between atoms: C_23  and  N_24
REMARK   11  A    between atoms: N_24  and  C_25
REMARK   12  A    between atoms: N_24  and  C_26
REMARK                            x       y       z     vdW  Elec       q    Type
REMARK                         _______ _______ _______ _____ _____    ______ ____
ROOT
ATOM      1  C   UNL     1      -3.121   7.624   2.463  0.00  0.00    +0.041 C 
ATOM      2  C   UNL     1      -3.534   7.679   0.991  0.00  0.00    +0.068 C 
ATOM      3  C   UNL     1      -3.789   6.260   0.475  0.00  0.00    +0.071 C 
ATOM      4  C   UNL     1      -2.483   5.522   0.358  0.00  0.00    -0.015 A 
ATOM      5  C   UNL     1      -1.278   6.182   0.354  0.00  0.00    +0.022 A 
ATOM      6  C   UNL     1      -0.097   5.445   0.236  0.00  0.00    +0.127 A 
ATOM      7  N   UNL     1      -0.122   4.126   0.129  0.00  0.00    -0.216 NA
ATOM      8  C   UNL     1      -1.258   3.448   0.131  0.00  0.00    +0.143 A 
ATOM      9  C   UNL     1      -2.487   4.123   0.241  0.00  0.00    +0.095 A 
ATOM     10  N   UNL     1      -1.238   2.068   0.019  0.00  0.00    -0.298 N 
ATOM     11  C   UNL     1      -1.202   7.681   0.477  0.00  0.00    +0.199 C 
ATOM     12  O   UNL     1      -2.480   8.262   0.217  0.00  0.00    -0.369 OA
ATOM     13  C   UNL     1      -4.805   8.519   0.845  0.00  0.00    +0.041 C 
ATOM     14  H   UNL     1      -2.173   1.496   0.109  0.00  0.00    +0.154 HD
ENDROOT
BRANCH  10  15
ATOM     15  C   UNL     1      -0.028   1.402  -0.209  0.00  0.00    +0.033 A 
ATOM     16  C   UNL     1       0.920   1.955  -1.060  0.00  0.00    +0.027 A 
ATOM     17  C   UNL     1       2.110   1.294  -1.289  0.00  0.00    +0.047 A 
ATOM     18  C   UNL     1       2.360   0.079  -0.668  0.00  0.00    +0.120 A 
ATOM     19  C   UNL     1       1.414  -0.474   0.182  0.00  0.00    +0.047 A 
ATOM     20  C   UNL     1       0.222   0.185   0.412  0.00  0.00    +0.027 A 
BRANCH  18  21
ATOM     21  O   UNL     1       3.533  -0.572  -0.894  0.00  0.00    -0.495 OA
ATOM     22  C   UNL     1       4.461   0.055  -1.781  0.00  0.00    +0.277 C 
ENDBRANCH  18  21
ENDBRANCH  10  15
BRANCH   9  23
ATOM     23  C   UNL     1      -3.720   3.396   0.238  0.00  0.00    +0.103 C 
ATOM     24  N   UNL     1      -4.699   2.819   0.236  0.00  0.00    -0.191 NA
ENDBRANCH   9  23
BRANCH   6  25
ATOM     25  N   UNL     1       1.120   6.107   0.231  0.00  0.00    -0.331 N 
ATOM     26  H   UNL     1       1.151   7.203   0.319  0.00  0.00    +0.147 HD
BRANCH  25  27
ATOM     27  C   UNL     1       2.366   5.346   0.108  0.00  0.00    +0.084 C 
BRANCH  27  28
ATOM     28  C   UNL     1       3.555   6.309   0.129  0.00  0.00    -0.061 C 
BRANCH  28  29
ATOM     29  N   UNL     1       4.805   5.546   0.006  0.00  0.00    +0.377 N 
ATOM     30  C   UNL     1       5.949   6.441  -0.215  0.00  0.00    -0.097 C 
ATOM     31  C   UNL     1       5.022   4.697   1.186  0.00  0.00    -0.097 C 
ATOM     32  H   UNL     1       4.715   4.889  -0.871  0.00  0.00    -0.083 HD
ENDBRANCH  28  29
ENDBRANCH  27  28
ENDBRANCH  25  27
ENDBRANCH   6  25
TORSDOF 7
