REMARK  Name = ZINC25589079
REMARK  8 active torsions:
REMARK  status: ('A' for Active; 'I' for Inactive)
REMARK    1  A    between atoms: C_1  and  C_2
REMARK    2  A    between atoms: C_2  and  C_3
REMARK    3  A    between atoms: C_4  and  C_24
REMARK    4  A    between atoms: C_5  and  N_23
REMARK    5  A    between atoms: C_7  and  S_9
REMARK    6  A    between atoms: S_9  and  C_10
REMARK    7  A    between atoms: C_10  and  C_11
REMARK    8  A    between atoms: C_17  and  C_20
REMARK                            x       y       z     vdW  Elec       q    Type
REMARK                         _______ _______ _______ _____ _____    ______ ____
ROOT
ATOM      1  C   UNL     1      -3.434  -1.886   0.025  0.00  0.00    +0.055 A 
ATOM      2  C   UNL     1      -4.365  -0.849   0.040  0.00  0.00    +0.043 A 
ATOM      3  C   UNL     1      -3.889   0.475   0.043  0.00  0.00    +0.129 A 
ATOM      4  N   UNL     1      -2.577   0.684   0.036  0.00  0.00    -0.207 NA
ATOM      5  C   UNL     1      -1.729  -0.334   0.017  0.00  0.00    +0.191 A 
ATOM      6  N   UNL     1      -2.144  -1.593   0.014  0.00  0.00    -0.226 NA
ENDROOT
BRANCH   2   7
ATOM      7  C   UNL     1      -5.821  -1.134   0.052  0.00  0.00    -0.013 A 
ATOM      8  C   UNL     1      -6.421  -1.757  -1.041  0.00  0.00    +0.010 A 
ATOM      9  C   UNL     1      -7.774  -2.024  -1.022  0.00  0.00    +0.020 A 
ATOM     10  C   UNL     1      -8.538  -1.665   0.076  0.00  0.00    +0.041 A 
ATOM     11  C   UNL     1      -7.948  -1.041   1.161  0.00  0.00    +0.020 A 
ATOM     12  C   UNL     1      -6.594  -0.774   1.155  0.00  0.00    +0.010 A 
ATOM     13 CL   UNL     1     -10.242  -1.999   0.090  0.00  0.00    -0.084 Cl
ENDBRANCH   2   7
BRANCH   3  14
ATOM     14  N   UNL     1      -4.771   1.540   0.057  0.00  0.00    -0.343 N 
ATOM     15  H   UNL     1      -4.388   2.571   0.059  0.00  0.00    +0.144 HD
ATOM     16  H   UNL     1      -5.855   1.356   0.067  0.00  0.00    +0.144 HD
ENDBRANCH   3  14
BRANCH   1  18
ATOM     17  C   UNL     1      -4.031  -3.817   1.462  0.00  0.00    +0.010 C 
ATOM     18  C   UNL     1      -3.891  -3.322   0.021  0.00  0.00    +0.053 C 
ENDBRANCH   1  18
BRANCH   5  19
ATOM     19  S   UNL     1       0.002  -0.004   0.002  0.00  0.00    -0.077 S 
BRANCH  19  20
ATOM     20  C   UNL     1      -0.022   1.806   0.012  0.00  0.00    +0.173 C 
BRANCH  20  21
ATOM     21  C   UNL     1       1.391   2.327   0.001  0.00  0.00    +0.226 C 
ATOM     22  O   UNL     1       2.324   1.552  -0.012  0.00  0.00    -0.275 OA
ATOM     23  N   UNL     1       1.620   3.656   0.006  0.00  0.00    -0.300 N 
ATOM     24  C   UNL     1       0.500   4.607   0.016  0.00  0.00    +0.108 C 
ATOM     25  C   UNL     1       0.671   5.588  -1.143  0.00  0.00    +0.020 C 
ATOM     26  C   UNL     1       2.053   6.241  -1.056  0.00  0.00    +0.016 C 
ATOM     27  C   UNL     1       3.135   5.165  -1.168  0.00  0.00    +0.092 C 
ATOM     28  C   UNL     1       2.992   4.179  -0.004  0.00  0.00    +0.120 C 
BRANCH  27  29
ATOM     29  C   UNL     1       4.495   5.812  -1.115  0.00  0.00    +0.215 C 
ATOM     30  O   UNL     1       4.590   7.016  -1.002  0.00  0.00    -0.276 OA
ATOM     31  N   UNL     1       5.606   5.053  -1.193  0.00  0.00    -0.329 N 
ATOM     32  H   UNL     1       6.599   5.525  -1.155  0.00  0.00    +0.145 HD
ATOM     33  H   UNL     1       5.520   3.961  -1.296  0.00  0.00    +0.145 HD
ENDBRANCH  27  29
ENDBRANCH  20  21
ENDBRANCH  19  20
ENDBRANCH   5  19
TORSDOF 7
