REMARK  Name = ZINC40480135
REMARK  9 active torsions:
REMARK  status: ('A' for Active; 'I' for Inactive)
REMARK    1  A    between atoms: C_1  and  C_2
REMARK    2  A    between atoms: C_5  and  N_11
REMARK    3  A    between atoms: C_6  and  C_8
REMARK    4  A    between atoms: C_12  and  C_14
REMARK    5  A    between atoms: C_14  and  C_16
REMARK    6  A    between atoms: C_14  and  N_22
REMARK    7  A    between atoms: C_16  and  C_17
REMARK    8  A    between atoms: C_17  and  S_18
REMARK    9  A    between atoms: S_18  and  C_21
REMARK                            x       y       z     vdW  Elec       q    Type
REMARK                         _______ _______ _______ _____ _____    ______ ____
ROOT
ATOM      1  N   UNL     1       0.038  -4.017  -0.065  0.00  0.00    -0.286 N 
ATOM      2  C   UNL     1      -0.097  -4.627  -1.259  0.00  0.00    +0.203 C 
ATOM      3  O   UNL     1      -0.133  -3.967  -2.276  0.00  0.00    -0.277 OA
ATOM      4  H   UNL     1       0.147  -4.547   0.741  0.00  0.00    +0.155 HD
ENDROOT
BRANCH   1   9
ATOM      5  C   UNL     1      -0.047   1.651   0.241  0.00  0.00    +0.044 C 
ATOM      6  C   UNL     1      -0.019   0.146   0.168  0.00  0.00    -0.050 A 
ATOM      7  C   UNL     1      -0.649  -0.505  -0.882  0.00  0.00    +0.005 A 
ATOM      8  C   UNL     1      -0.631  -1.883  -0.961  0.00  0.00    +0.024 A 
ATOM      9  C   UNL     1       0.019  -2.628   0.013  0.00  0.00    +0.048 A 
ATOM     10  C   UNL     1       0.658  -1.972   1.078  0.00  0.00    +0.085 A 
ATOM     11  C   UNL     1       0.636  -0.575   1.141  0.00  0.00    +0.020 A 
BRANCH  10  12
ATOM     12  C   UNL     1       1.351  -2.750   2.118  0.00  0.00    +0.388 C 
ATOM     13  O   UNL     1       1.823  -2.182   3.093  0.00  0.00    -0.241 OA
ATOM     14  O   UNL     1       1.455  -3.963   2.006  0.00  0.00    -0.241 OA
ENDBRANCH  10  12
ENDBRANCH   1   9
BRANCH   2  15
ATOM     15  C   UNL     1      -0.204  -6.129  -1.331  0.00  0.00    +0.015 C 
BRANCH  15  16
ATOM     16  N   UNL     1       0.136  -6.579  -2.687  0.00  0.00    +0.386 N 
ATOM     17  H   UNL     1       0.064  -7.585  -2.735  0.00  0.00    -0.089 HD
ATOM     18  H   UNL     1      -0.503  -6.165  -3.349  0.00  0.00    -0.089 HD
ATOM     19  H   UNL     1       1.079  -6.298  -2.909  0.00  0.00    -0.089 HD
ENDBRANCH  15  16
BRANCH  15  20
ATOM     20  C   UNL     1      -1.634  -6.555  -0.995  0.00  0.00    +0.015 C 
BRANCH  20  21
ATOM     21  C   UNL     1      -1.713  -8.082  -0.945  0.00  0.00    +0.164 C 
BRANCH  21  22
ATOM     22  S   UNL     1      -3.409  -8.588  -0.546  0.00  0.00    -0.034 S 
ATOM     23  O   UNL     1      -3.711  -8.148   0.771  0.00  0.00    -0.175 OA
ATOM     24  O   UNL     1      -4.258  -8.197  -1.617  0.00  0.00    -0.175 OA
ATOM     25  C   UNL     1      -3.295 -10.398  -0.535  0.00  0.00    +0.194 C 
ENDBRANCH  21  22
ENDBRANCH  20  21
ENDBRANCH  15  20
ENDBRANCH   2  15
TORSDOF 7
