REMARK  Name = ZINC39681512
REMARK  9 active torsions:
REMARK  status: ('A' for Active; 'I' for Inactive)
REMARK    1  A    between atoms: C_1  and  N_2
REMARK    2  A    between atoms: C_3  and  C_5
REMARK    3  A    between atoms: C_16  and  C_18
REMARK    4  A    between atoms: C_20  and  O_28
REMARK    5  A    between atoms: C_21  and  O_26
REMARK    6  A    between atoms: C_22  and  O_24
REMARK    7  A    between atoms: O_24  and  C_25
REMARK    8  A    between atoms: O_26  and  C_27
REMARK    9  A    between atoms: O_28  and  C_29
REMARK                            x       y       z     vdW  Elec       q    Type
REMARK                         _______ _______ _______ _____ _____    ______ ____
ROOT
ATOM      1  C   UNL     1      -0.873  -2.825  -0.023  0.00  0.00    +0.100 C 
ATOM      2  C   UNL     1      -0.148  -3.036   1.325  0.00  0.00    +0.121 C 
ATOM      3  N   UNL     1      -1.237  -3.241   2.308  0.00  0.00    -0.296 N 
ATOM      4  C   UNL     1      -2.233  -4.071   1.588  0.00  0.00    +0.115 C 
ATOM      5  C   UNL     1      -2.239  -3.509   0.152  0.00  0.00    -0.004 C 
ATOM      6  C   UNL     1      -2.397  -4.641  -0.858  0.00  0.00    -0.010 C 
ATOM      7  C   UNL     1      -3.786  -5.267  -0.703  0.00  0.00    -0.082 C 
ATOM      8  N   UNL     1      -4.814  -4.242  -0.922  0.00  0.00    +0.379 N 
ATOM      9  C   UNL     1      -4.713  -3.204   0.110  0.00  0.00    -0.082 C 
ATOM     10  C   UNL     1      -3.364  -2.490  -0.010  0.00  0.00    -0.010 C 
ATOM     11  C   UNL     1      -1.307  -2.779   3.572  0.00  0.00    +0.247 C 
ATOM     12  O   UNL     1      -0.466  -2.003   3.983  0.00  0.00    -0.270 OA
ATOM     13  H   UNL     1      -4.682  -3.825  -1.831  0.00  0.00    -0.086 HD
ATOM     14  H   UNL     1      -5.727  -4.670  -0.880  0.00  0.00    -0.086 HD
ENDROOT
BRANCH  11  15
ATOM     15  C   UNL     1      -2.405  -3.214   4.458  0.00  0.00    +0.044 A 
ATOM     16  C   UNL     1      -3.099  -4.395   4.183  0.00  0.00    +0.062 A 
ATOM     17  C   UNL     1      -4.126  -4.801   5.014  0.00  0.00    +0.166 A 
ATOM     18  C   UNL     1      -4.470  -4.033   6.124  0.00  0.00    +0.204 A 
ATOM     19  C   UNL     1      -3.781  -2.855   6.399  0.00  0.00    +0.166 A 
ATOM     20  C   UNL     1      -2.749  -2.448   5.574  0.00  0.00    +0.062 A 
BRANCH  19  21
ATOM     21  O   UNL     1      -4.120  -2.107   7.483  0.00  0.00    -0.491 OA
ATOM     22  C   UNL     1      -3.371  -0.910   7.705  0.00  0.00    +0.277 C 
ENDBRANCH  19  21
BRANCH  18  23
ATOM     23  O   UNL     1      -5.481  -4.434   6.939  0.00  0.00    -0.488 OA
ATOM     24  C   UNL     1      -5.132  -5.278   8.038  0.00  0.00    +0.277 C 
ENDBRANCH  18  23
BRANCH  17  25
ATOM     25  O   UNL     1      -4.801  -5.951   4.748  0.00  0.00    -0.491 OA
ATOM     26  C   UNL     1      -4.396  -6.689   3.594  0.00  0.00    +0.277 C 
ENDBRANCH  17  25
ENDBRANCH  11  15
BRANCH   1  29
ATOM     27  C   UNL     1      -1.382   0.512  -1.829  0.00  0.00    +0.128 C 
ATOM     28  N   UNL     1      -1.206  -0.918  -1.563  0.00  0.00    -0.318 N 
ATOM     29  C   UNL     1      -1.053  -1.354  -0.297  0.00  0.00    +0.218 C 
ATOM     30  O   UNL     1      -1.061  -0.562   0.622  0.00  0.00    -0.275 OA
ATOM     31  H   UNL     1      -1.200  -1.551  -2.298  0.00  0.00    +0.148 HD
ENDBRANCH   1  29
TORSDOF 5
