REMARK  Name = ZINC16805893
REMARK  7 active torsions:
REMARK  status: ('A' for Active; 'I' for Inactive)
REMARK    1  A    between atoms: C_2  and  C_3
REMARK    2  A    between atoms: C_3  and  N_4
REMARK    3  A    between atoms: C_7  and  C_19
REMARK    4  A    between atoms: N_11  and  C_12
REMARK    5  A    between atoms: C_19  and  C_20
REMARK    6  A    between atoms: N_22  and  C_23
REMARK    7  A    between atoms: C_23  and  C_24
REMARK                            x       y       z     vdW  Elec       q    Type
REMARK                         _______ _______ _______ _____ _____    ______ ____
ROOT
ATOM      1  N   UNL     1      -0.016   1.318   0.009  0.00  0.00    -0.246 N 
ATOM      2  C   UNL     1       0.002  -0.004   0.002  0.00  0.00    +0.235 C 
ATOM      3  O   UNL     1      -1.016  -0.662   0.009  0.00  0.00    -0.274 OA
ATOM      4  C   UNL     1       1.379  -0.647  -0.015  0.00  0.00    +0.149 C 
ATOM      5  S   UNL     1       2.443   0.850  -0.017  0.00  0.00    -0.077 S 
ATOM      6  C   UNL     1       1.139   2.071   0.002  0.00  0.00    +0.164 C 
ATOM      7  N   UNL     1       1.254   3.378   0.008  0.00  0.00    -0.226 NA
ENDROOT
BRANCH   7   8
ATOM      8  C   UNL     1       2.496   3.957  -0.001  0.00  0.00    +0.067 A 
ATOM      9  C   UNL     1       3.498   3.478   0.845  0.00  0.00    +0.030 A 
ATOM     10  C   UNL     1       4.748   4.062   0.829  0.00  0.00    +0.040 A 
ATOM     11  C   UNL     1       5.007   5.128  -0.018  0.00  0.00    +0.124 A 
ATOM     12  C   UNL     1       4.015   5.611  -0.855  0.00  0.00    +0.040 A 
ATOM     13  C   UNL     1       2.763   5.032  -0.851  0.00  0.00    +0.030 A 
ATOM     14  F   UNL     1       6.231   5.699  -0.026  0.00  0.00    -0.205 F 
ENDBRANCH   7   8
BRANCH   1  15
ATOM     15  C   UNL     1      -1.309   2.007   0.019  0.00  0.00    +0.142 C 
BRANCH  15  17
ATOM     16  C   UNL     1      -2.041   3.445   1.852  0.00  0.00    +0.005 C 
ATOM     17  C   UNL     1      -1.745   2.235   1.443  0.00  0.00    -0.015 C 
ENDBRANCH  15  17
ENDBRANCH   1  15
BRANCH   4  18
ATOM     18  C   UNL     1       1.612  -1.492   1.240  0.00  0.00    +0.119 C 
BRANCH  18  19
ATOM     19  C   UNL     1       2.933  -2.207   1.126  0.00  0.00    +0.215 C 
ATOM     20  O   UNL     1       3.622  -2.056   0.139  0.00  0.00    -0.276 OA
ATOM     21  N   UNL     1       3.350  -3.014   2.122  0.00  0.00    -0.305 N 
ATOM     22  H   UNL     1       2.800  -3.135   2.911  0.00  0.00    +0.149 HD
BRANCH  21  23
ATOM     23  C   UNL     1       4.635  -3.709   2.011  0.00  0.00    +0.229 C 
BRANCH  23  24
ATOM     24  C   UNL     1       4.864  -4.541   3.247  0.00  0.00    +0.373 C 
ATOM     25  O   UNL     1       4.039  -4.552   4.129  0.00  0.00    -0.245 OA
ATOM     26  O   UNL     1       5.985  -5.270   3.367  0.00  0.00    -0.245 OA
ENDBRANCH  23  24
ENDBRANCH  21  23
ENDBRANCH  18  19
ENDBRANCH   4  18
TORSDOF 7
