REMARK  Name = ZINC66435959
REMARK  9 active torsions:
REMARK  status: ('A' for Active; 'I' for Inactive)
REMARK    1  A    between atoms: C_1  and  C_2
REMARK    2  A    between atoms: C_5  and  N_9
REMARK    3  A    between atoms: C_6  and  C_8
REMARK    4  A    between atoms: C_13  and  C_15
REMARK    5  A    between atoms: C_15  and  N_16
REMARK    6  A    between atoms: N_16  and  C_17
REMARK    7  A    between atoms: N_16  and  C_23
REMARK    8  A    between atoms: C_17  and  C_18
REMARK    9  A    between atoms: C_23  and  C_24
REMARK                            x       y       z     vdW  Elec       q    Type
REMARK                         _______ _______ _______ _____ _____    ______ ____
ROOT
ATOM      1  N   UNL     1       3.147  -7.156   1.447  0.00  0.00    -0.269 N 
ATOM      2  C   UNL     1       3.042  -7.662   0.202  0.00  0.00    +0.310 C 
ATOM      3  O   UNL     1       3.961  -8.299  -0.275  0.00  0.00    -0.252 OA
ATOM      4  N   UNL     1       1.918  -7.462  -0.514  0.00  0.00    -0.241 N 
ATOM      5  C   UNL     1       1.813  -7.968  -1.759  0.00  0.00    +0.204 C 
ATOM      6  O   UNL     1       2.729  -8.603  -2.234  0.00  0.00    -0.277 OA
ATOM      7  H   UNL     1       2.388  -6.711   1.855  0.00  0.00    +0.156 HD
ATOM      8  H   UNL     1       1.185  -6.954  -0.133  0.00  0.00    +0.159 HD
ENDROOT
BRANCH   1  13
ATOM      9  C   UNL     1       8.029  -7.632   4.298  0.00  0.00    +0.044 C 
ATOM     10  C   UNL     1       6.732  -7.505   3.541  0.00  0.00    -0.050 A 
ATOM     11  C   UNL     1       6.347  -8.501   2.661  0.00  0.00    +0.005 A 
ATOM     12  C   UNL     1       5.159  -8.388   1.965  0.00  0.00    +0.024 A 
ATOM     13  C   UNL     1       4.351  -7.274   2.151  0.00  0.00    +0.038 A 
ATOM     14  C   UNL     1       4.740  -6.277   3.035  0.00  0.00    -0.029 A 
ATOM     15  C   UNL     1       5.927  -6.398   3.731  0.00  0.00    +0.008 A 
ATOM     16  C   UNL     1       3.866  -5.066   3.239  0.00  0.00    +0.045 C 
ENDBRANCH   1  13
BRANCH   5  17
ATOM     17  C   UNL     1       0.556  -7.744  -2.559  0.00  0.00    +0.020 C 
BRANCH  17  18
ATOM     18  N   UNL     1       0.628  -8.511  -3.810  0.00  0.00    +0.392 N 
ATOM     19  H   UNL     1       1.498  -8.307  -4.279  0.00  0.00    -0.080 HD
BRANCH  18  20
ATOM     20  C   UNL     1      -0.496  -8.140  -4.679  0.00  0.00    -0.002 C 
BRANCH  20  21
ATOM     21  C   UNL     1      -0.411  -6.672  -5.011  0.00  0.00    +0.089 A 
ATOM     22  C   UNL     1       0.171  -6.146  -6.103  0.00  0.00    +0.042 A 
ATOM     23  C   UNL     1       0.021  -4.743  -6.011  0.00  0.00    +0.041 A 
ATOM     24  C   UNL     1      -0.644  -4.496  -4.868  0.00  0.00    +0.195 A 
ATOM     25  O   UNL     1      -0.908  -5.669  -4.269  0.00  0.00    -0.470 OA
ENDBRANCH  20  21
ENDBRANCH  18  20
BRANCH  18  26
ATOM     26  C   UNL     1       0.560  -9.947  -3.508  0.00  0.00    -0.046 C 
BRANCH  26  27
ATOM     27  C   UNL     1       0.842 -10.750  -4.780  0.00  0.00    +0.102 C 
ATOM     28  C   UNL     1       0.908 -12.264  -4.457  0.00  0.00    +0.032 C 
ATOM     29  C   UNL     1       0.546 -12.876  -5.838  0.00  0.00    +0.030 C 
ATOM     30  C   UNL     1      -0.460 -11.848  -6.398  0.00  0.00    +0.160 C 
ATOM     31  O   UNL     1      -0.244 -10.609  -5.709  0.00  0.00    -0.378 OA
ENDBRANCH  26  27
ENDBRANCH  18  26
ENDBRANCH  17  18
ENDBRANCH   5  17
TORSDOF 7
