REMARK  Name = ZINC37899113
REMARK  9 active torsions:
REMARK  status: ('A' for Active; 'I' for Inactive)
REMARK    1  A    between atoms: C_1  and  C_2
REMARK    2  A    between atoms: C_2  and  C_4
REMARK    3  A    between atoms: C_2  and  N_16
REMARK    4  A    between atoms: N_6  and  C_7
REMARK    5  A    between atoms: C_10  and  N_14
REMARK    6  A    between atoms: N_16  and  C_17
REMARK    7  A    between atoms: N_16  and  C_18
REMARK    8  A    between atoms: C_18  and  C_19
REMARK    9  A    between atoms: C_19  and  O_20
REMARK                            x       y       z     vdW  Elec       q    Type
REMARK                         _______ _______ _______ _____ _____    ______ ____
ROOT
ATOM      1  C   UNL     1       0.676  -1.380  -0.900  0.00  0.00    +0.203 C 
ATOM      2  O   UNL     1       1.220  -2.317  -0.356  0.00  0.00    -0.277 OA
ATOM      3  N   UNL     1       0.953  -1.095  -2.188  0.00  0.00    -0.284 N 
ATOM      4  H   UNL     1       0.569  -0.308  -2.605  0.00  0.00    +0.155 HD
ENDROOT
BRANCH   3   5
ATOM      5  C   UNL     1       1.798  -1.937  -2.926  0.00  0.00    +0.070 A 
ATOM      6  C   UNL     1       1.390  -2.418  -4.164  0.00  0.00    +0.065 A 
ATOM      7  C   UNL     1       2.223  -3.248  -4.891  0.00  0.00    +0.044 A 
ATOM      8  C   UNL     1       3.467  -3.601  -4.384  0.00  0.00    +0.027 A 
ATOM      9  C   UNL     1       3.874  -3.120  -3.147  0.00  0.00    +0.044 A 
ATOM     10  C   UNL     1       3.045  -2.285  -2.422  0.00  0.00    +0.065 A 
ATOM     11 CL   UNL     1       3.557  -1.679  -0.879  0.00  0.00    -0.082 Cl
ATOM     12 CL   UNL     1      -0.165  -1.978  -4.797  0.00  0.00    -0.082 Cl
BRANCH   8  13
ATOM     13  N   UNL     1       4.309  -4.440  -5.120  0.00  0.00    -0.358 N 
ATOM     14  H   UNL     1       4.025  -4.776  -5.985  0.00  0.00    +0.142 HD
ATOM     15  H   UNL     1       5.178  -4.687  -4.766  0.00  0.00    +0.142 HD
ENDBRANCH   8  13
ENDBRANCH   3   5
BRANCH   1  17
ATOM     16  C   UNL     1       0.351   0.789   0.257  0.00  0.00    -0.004 C 
ATOM     17  C   UNL     1      -0.310  -0.533  -0.137  0.00  0.00    +0.016 C 
BRANCH  17  18
ATOM     18  N   UNL     1      -0.734  -1.248   1.074  0.00  0.00    +0.387 N 
ATOM     19  C   UNL     1      -1.616  -0.383   1.870  0.00  0.00    -0.095 C 
ATOM     20  H   UNL     1       0.077  -1.495   1.621  0.00  0.00    -0.081 HD
BRANCH  18  21
ATOM     21  C   UNL     1      -1.458  -2.468   0.694  0.00  0.00    -0.050 C 
BRANCH  21  22
ATOM     22  C   UNL     1      -1.784  -3.280   1.949  0.00  0.00    +0.137 C 
BRANCH  22  23
ATOM     23  O   UNL     1      -2.741  -2.572   2.740  0.00  0.00    -0.397 OA
ATOM     24  H   UNL     1      -2.995  -3.029   3.553  0.00  0.00    +0.209 HD
ENDBRANCH  22  23
ENDBRANCH  21  22
ENDBRANCH  18  21
ENDBRANCH  17  18
ENDBRANCH   1  17
TORSDOF 7
