REMARK  Name = ZINC02228857
REMARK  6 active torsions:
REMARK  status: ('A' for Active; 'I' for Inactive)
REMARK    1  A    between atoms: C_1  and  C_2
REMARK    2  A    between atoms: C_2  and  N_3
REMARK    3  A    between atoms: C_4  and  C_25
REMARK    4  A    between atoms: C_10  and  C_18
REMARK    5  A    between atoms: C_12  and  C_16
REMARK    6  A    between atoms: C_13  and  N_15
REMARK                            x       y       z     vdW  Elec       q    Type
REMARK                         _______ _______ _______ _____ _____    ______ ____
ROOT
ATOM      1  N   UNL     1       1.098   1.857  -0.174  0.00  0.00    -0.312 N 
ATOM      2  C   UNL     1       1.177   3.209  -0.056  0.00  0.00    +0.022 A 
ATOM      3  C   UNL     1       0.066   3.954   0.132  0.00  0.00    +0.068 A 
ATOM      4  C   UNL     1      -1.194   3.326   0.206  0.00  0.00    +0.141 A 
ATOM      5  C   UNL     1      -1.266   1.955   0.080  0.00  0.00    +0.072 A 
ATOM      6  C   UNL     1      -0.087   1.222  -0.108  0.00  0.00    +0.259 A 
ATOM      7  O   UNL     1      -0.135   0.007  -0.217  0.00  0.00    -0.267 OA
ATOM      8  C   UNL     1      -2.589   1.244   0.158  0.00  0.00    +0.103 C 
ATOM      9  C   UNL     1      -3.714   2.224  -0.034  0.00  0.00    +0.098 C 
ATOM     10  C   UNL     1      -3.513   3.557   0.093  0.00  0.00    +0.199 C 
ATOM     11  O   UNL     1      -2.306   4.069   0.393  0.00  0.00    -0.441 OA
ATOM     12  C   UNL     1       2.521   3.885  -0.134  0.00  0.00    +0.064 C 
ENDROOT
BRANCH   8  13
ATOM     13  C   UNL     1      -2.726   0.585   1.506  0.00  0.00    -0.033 A 
ATOM     14  C   UNL     1      -2.697   1.352   2.657  0.00  0.00    +0.004 A 
ATOM     15  C   UNL     1      -2.827   0.749   3.893  0.00  0.00    +0.002 A 
ATOM     16  C   UNL     1      -2.976  -0.623   3.982  0.00  0.00    +0.020 A 
ATOM     17  C   UNL     1      -2.999  -1.391   2.831  0.00  0.00    +0.041 A 
ATOM     18  C   UNL     1      -2.874  -0.786   1.593  0.00  0.00    +0.024 A 
ATOM     19 CL   UNL     1      -3.185  -3.114   2.941  0.00  0.00    -0.084 Cl
ENDBRANCH   8  13
BRANCH  10  20
ATOM     20  N   UNL     1      -4.571   4.411  -0.091  0.00  0.00    -0.328 N 
ATOM     21  H   UNL     1      -4.443   5.368  -0.004  0.00  0.00    +0.145 HD
ATOM     22  H   UNL     1      -5.448   4.057  -0.308  0.00  0.00    +0.145 HD
ENDBRANCH  10  20
BRANCH   1  24
ATOM     23  C   UNL     1       2.568   0.897  -1.876  0.00  0.00    +0.027 C 
ATOM     24  C   UNL     1       2.322   1.079  -0.377  0.00  0.00    +0.122 C 
ENDBRANCH   1  24
BRANCH   9  25
ATOM     25  C   UNL     1      -5.021   1.738  -0.356  0.00  0.00    +0.101 C 
ATOM     26  N   UNL     1      -6.059   1.353  -0.612  0.00  0.00    -0.191 NA
ENDBRANCH   9  25
TORSDOF 4
