REMARK  Name = ZINC49589016
REMARK  7 active torsions:
REMARK  status: ('A' for Active; 'I' for Inactive)
REMARK    1  A    between atoms: C_1  and  O_2
REMARK    2  A    between atoms: O_2  and  C_3
REMARK    3  A    between atoms: C_6  and  C_19
REMARK    4  A    between atoms: C_8  and  N_9
REMARK    5  A    between atoms: C_10  and  C_12
REMARK    6  A    between atoms: C_20  and  C_21
REMARK    7  A    between atoms: C_21  and  O_22
REMARK                            x       y       z     vdW  Elec       q    Type
REMARK                         _______ _______ _______ _____ _____    ______ ____
ROOT
ATOM      1  C   UNL     1       0.619  -0.624   1.058  0.00  0.00    +0.141 A 
ATOM      2  C   UNL     1       1.188   0.130   2.073  0.00  0.00    +0.049 A 
ATOM      3  C   UNL     1       1.818  -0.495   3.129  0.00  0.00    +0.020 A 
ATOM      4  C   UNL     1       1.885  -1.888   3.179  0.00  0.00    +0.027 A 
ATOM      5  C   UNL     1       1.312  -2.648   2.158  0.00  0.00    +0.043 A 
ATOM      6  C   UNL     1       0.675  -2.016   1.103  0.00  0.00    +0.077 A 
ENDROOT
BRANCH   6   7
ATOM      7  N   UNL     1       0.094  -2.775   0.080  0.00  0.00    -0.277 N 
ATOM      8  C   UNL     1       0.667  -3.931  -0.310  0.00  0.00    +0.265 C 
ATOM      9  O   UNL     1       1.642  -4.357   0.281  0.00  0.00    -0.268 OA
ATOM     10  H   UNL     1      -0.720  -2.469  -0.349  0.00  0.00    +0.155 HD
BRANCH   8  11
ATOM     11  C   UNL     1       0.115  -4.676  -1.447  0.00  0.00    +0.104 A 
ATOM     12  C   UNL     1       0.593  -5.869  -1.948  0.00  0.00    +0.052 A 
ATOM     13  C   UNL     1      -0.228  -6.220  -3.025  0.00  0.00    +0.059 A 
ATOM     14  C   UNL     1      -1.171  -5.256  -3.160  0.00  0.00    +0.103 A 
ATOM     15  N   UNL     1      -0.976  -4.315  -2.203  0.00  0.00    -0.356 N 
ATOM     16  H   UNL     1      -1.515  -3.519  -2.074  0.00  0.00    +0.166 HD
ATOM     17 CL   UNL     1      -0.066  -7.638  -4.014  0.00  0.00    -0.082 Cl
ENDBRANCH   8  11
ENDBRANCH   6   7
BRANCH   1  19
ATOM     18  C   UNL     1      -0.022   1.425   0.035  0.00  0.00    +0.277 C 
ATOM     19  O   UNL     1      -0.001  -0.004   0.018  0.00  0.00    -0.493 OA
ENDBRANCH   1  19
BRANCH   4  20
ATOM     20  C   UNL     1       2.540  -2.537   4.274  0.00  0.00    -0.064 C 
ATOM     21  C   UNL     1       3.077  -3.068   5.173  0.00  0.00    -0.069 C 
BRANCH  21  22
ATOM     22  C   UNL     1       3.750  -3.735   6.299  0.00  0.00    +0.244 C 
BRANCH  22  23
ATOM     23  O   UNL     1       3.685  -5.152   6.122  0.00  0.00    -0.383 OA
ATOM     24  H   UNL     1       4.110  -5.656   6.829  0.00  0.00    +0.211 HD
ENDBRANCH  22  23
ENDBRANCH  21  22
ENDBRANCH   4  20
TORSDOF 6
