REMARK  Name = ZINC14470648
REMARK  3 active torsions:
REMARK  status: ('A' for Active; 'I' for Inactive)
REMARK    1  A    between atoms: C_5  and  C_7
REMARK    2  A    between atoms: C_11  and  C_20
REMARK    3  A    between atoms: C_24  and  N_26
REMARK                            x       y       z     vdW  Elec       q    Type
REMARK                         _______ _______ _______ _____ _____    ______ ____
ROOT
ATOM      1  C   UNL     1       0.000   0.011  -2.651  0.00  0.00    +0.001 A 
ATOM      2  C   UNL     1       0.557   0.224  -1.403  0.00  0.00    +0.006 A 
ATOM      3  C   UNL     1       0.060   1.204  -0.556  0.00  0.00    -0.019 A 
ATOM      4  C   UNL     1      -1.021   2.001  -0.951  0.00  0.00    +0.044 A 
ATOM      5  C   UNL     1      -1.596   1.802  -2.220  0.00  0.00    +0.058 A 
ATOM      6  C   UNL     1      -1.065   0.774  -3.075  0.00  0.00    +0.015 A 
ATOM      7  N   UNL     1      -1.563   2.984  -0.138  0.00  0.00    -0.336 N 
ATOM      8  C   UNL     1      -0.594   3.506   0.826  0.00  0.00    +0.105 C 
ATOM      9  C   UNL     1      -0.062   2.357   1.686  0.00  0.00    +0.029 C 
ATOM     10  C   UNL     1       0.717   1.378   0.782  0.00  0.00    +0.049 C 
ATOM     11  C   UNL     1       2.076   2.020   0.629  0.00  0.00    -0.023 C 
ATOM     12  C   UNL     1       2.293   2.871   1.602  0.00  0.00    -0.030 C 
ATOM     13  C   UNL     1       1.109   2.911   2.547  0.00  0.00    +0.033 C 
ATOM     14  H   UNL     1      -1.962   3.729  -0.689  0.00  0.00    +0.147 HD
ENDROOT
BRANCH   8  15
ATOM     15  C   UNL     1       0.550   4.152   0.088  0.00  0.00    -0.025 A 
ATOM     16  C   UNL     1       0.802   3.815  -1.229  0.00  0.00    +0.007 A 
ATOM     17  C   UNL     1       1.851   4.407  -1.906  0.00  0.00    +0.022 A 
ATOM     18  C   UNL     1       2.650   5.338  -1.266  0.00  0.00    +0.071 A 
ATOM     19  C   UNL     1       2.397   5.676   0.051  0.00  0.00    +0.145 A 
ATOM     20  C   UNL     1       1.344   5.087   0.726  0.00  0.00    +0.039 A 
ATOM     21 CL   UNL     1       3.967   6.083  -2.116  0.00  0.00    -0.081 Cl
BRANCH  19  22
ATOM     22  N   UNL     1       3.251   6.671   0.737  0.00  0.00    +0.058 N 
ATOM     23  O   UNL     1       3.029   6.969   1.897  0.00  0.00    -0.126 OA
ATOM     24  O   UNL     1       4.176   7.194   0.141  0.00  0.00    -0.126 OA
ENDBRANCH  19  22
ENDBRANCH   8  15
BRANCH   5  25
ATOM     25  C   UNL     1      -2.738   2.630  -2.650  0.00  0.00    +0.243 C 
ATOM     26  O   UNL     1      -3.251   3.409  -1.870  0.00  0.00    -0.270 OA
ATOM     27  N   UNL     1      -3.213   2.523  -3.907  0.00  0.00    -0.325 N 
ATOM     28  H   UNL     1      -2.804   1.901  -4.529  0.00  0.00    +0.145 HD
ATOM     29  H   UNL     1      -3.964   3.068  -4.189  0.00  0.00    +0.145 HD
ENDBRANCH   5  25
TORSDOF 3
