REMARK  Name = ZINC13029886
REMARK  6 active torsions:
REMARK  status: ('A' for Active; 'I' for Inactive)
REMARK    1  A    between atoms: C_4  and  C_22
REMARK    2  A    between atoms: C_6  and  S_7
REMARK    3  A    between atoms: S_7  and  N_10
REMARK    4  A    between atoms: N_10  and  C_11
REMARK    5  A    between atoms: N_10  and  C_14
REMARK    6  A    between atoms: C_11  and  C_12
REMARK                            x       y       z     vdW  Elec       q    Type
REMARK                         _______ _______ _______ _____ _____    ______ ____
ROOT
ATOM      1  S   UNL     1       1.520  -3.026   1.645  0.00  0.00    +0.062 S 
ATOM      2  O   UNL     1       2.219  -4.165   1.162  0.00  0.00    -0.153 OA
ATOM      3  O   UNL     1       1.948  -2.299   2.789  0.00  0.00    -0.153 OA
ENDROOT
BRANCH   1   9
ATOM      4  C   UNL     1      -0.907  -2.857   2.880  0.00  0.00    +0.030 A 
ATOM      5  C   UNL     1      -2.205  -3.263   3.130  0.00  0.00    +0.022 A 
ATOM      6  C   UNL     1      -2.724  -4.365   2.474  0.00  0.00    +0.053 A 
ATOM      7  C   UNL     1      -1.945  -5.058   1.565  0.00  0.00    +0.075 A 
ATOM      8  C   UNL     1      -0.649  -4.649   1.312  0.00  0.00    +0.042 A 
ATOM      9  C   UNL     1      -0.132  -3.547   1.968  0.00  0.00    +0.106 A 
ATOM     10 CL   UNL     1      -4.351  -4.879   2.793  0.00  0.00    -0.083 Cl
BRANCH   7  11
ATOM     11  C   UNL     1      -2.509  -6.259   0.850  0.00  0.00    +0.419 C 
ATOM     12  F   UNL     1      -1.540  -6.787  -0.011  0.00  0.00    -0.166 F 
ATOM     13  F   UNL     1      -2.877  -7.229   1.788  0.00  0.00    -0.166 F 
ATOM     14  F   UNL     1      -3.632  -5.876   0.109  0.00  0.00    -0.166 F 
ENDBRANCH   7  11
ENDBRANCH   1   9
BRANCH   1  15
ATOM     15  N   UNL     1       1.457  -1.944   0.393  0.00  0.00    -0.161 NA
BRANCH  15  16
ATOM     16  C   UNL     1       1.291  -0.515   0.668  0.00  0.00    +0.103 C 
ATOM     17  C   UNL     1       0.002  -0.004   0.002  0.00  0.00    +0.045 C 
ATOM     18  C   UNL     1      -0.019   1.544   0.011  0.00  0.00    +0.167 C 
ATOM     19  S   UNL     1       1.770   1.972  -0.004  0.00  0.00    -0.029 S 
ATOM     20  O   UNL     1       2.095   2.556  -1.258  0.00  0.00    -0.174 OA
ATOM     21  O   UNL     1       2.089   2.665   1.194  0.00  0.00    -0.174 OA
ATOM     22  C   UNL     1       2.490   0.278   0.073  0.00  0.00    +0.186 C 
ENDBRANCH  15  16
BRANCH  15  23
ATOM     23  C   UNL     1       1.567  -2.416  -0.990  0.00  0.00    +0.234 C 
BRANCH  23  24
ATOM     24  C   UNL     1       3.000  -2.310  -1.444  0.00  0.00    +0.371 C 
ATOM     25  O   UNL     1       3.842  -1.883  -0.691  0.00  0.00    -0.245 OA
ATOM     26  O   UNL     1       3.339  -2.689  -2.686  0.00  0.00    -0.245 OA
ENDBRANCH  23  24
ENDBRANCH  15  23
ENDBRANCH   1  15
TORSDOF 6
