REMARK  Name = ZINC08429145
REMARK  7 active torsions:
REMARK  status: ('A' for Active; 'I' for Inactive)
REMARK    1  A    between atoms: C_1  and  C_2
REMARK    2  A    between atoms: C_2  and  C_3
REMARK    3  A    between atoms: C_3  and  C_26
REMARK    4  A    between atoms: N_6  and  C_10
REMARK    5  A    between atoms: C_10  and  C_11
REMARK    6  A    between atoms: N_17  and  C_18
REMARK    7  A    between atoms: C_23  and  C_24
REMARK                            x       y       z     vdW  Elec       q    Type
REMARK                         _______ _______ _______ _____ _____    ______ ____
ROOT
ATOM      1  C   UNL     1       4.144   2.132   4.620  0.00  0.00    +0.154 A 
ATOM      2  N   UNL     1       3.532   2.559   5.710  0.00  0.00    -0.198 NA
ATOM      3  C   UNL     1       2.206   2.672   5.730  0.00  0.00    +0.217 A 
ATOM      4  N   UNL     1       1.498   2.359   4.650  0.00  0.00    -0.181 NA
ATOM      5  C   UNL     1       2.117   1.925   3.558  0.00  0.00    +0.224 A 
ATOM      6  N   UNL     1       3.443   1.815   3.546  0.00  0.00    -0.198 NA
ATOM      7  N   UNL     1       1.385   1.593   2.434  0.00  0.00    -0.283 N 
ATOM      8  N   UNL     1       1.567   3.118   6.869  0.00  0.00    -0.327 N 
ATOM      9  H   UNL     1       1.901   1.335   1.498  0.00  0.00    +0.155 HD
ATOM     10  H   UNL     1       0.471   3.211   6.885  0.00  0.00    +0.145 HD
ATOM     11  H   UNL     1       2.154   3.380   7.762  0.00  0.00    +0.145 HD
ENDROOT
BRANCH   7  12
ATOM     12  C   UNL     1      -0.012   1.584   2.487  0.00  0.00    +0.036 A 
ATOM     13  C   UNL     1      -0.662   1.306   3.683  0.00  0.00    +0.023 A 
ATOM     14  C   UNL     1      -2.042   1.298   3.732  0.00  0.00    +0.002 A 
ATOM     15  C   UNL     1      -2.777   1.566   2.592  0.00  0.00    +0.000 A 
ATOM     16  C   UNL     1      -2.134   1.849   1.401  0.00  0.00    +0.005 A 
ATOM     17  C   UNL     1      -0.754   1.853   1.344  0.00  0.00    -0.029 A 
ATOM     18  C   UNL     1      -0.053   2.155   0.044  0.00  0.00    +0.045 C 
ENDBRANCH   7  12
BRANCH   1  19
ATOM     19  C   UNL     1       5.646   2.006   4.602  0.00  0.00    +0.194 C 
BRANCH  19  23
ATOM     20  C   UNL     1       7.097   4.948   2.858  0.00  0.00    +0.138 C 
ATOM     21  C   UNL     1       6.503   3.553   2.854  0.00  0.00    +0.251 C 
ATOM     22  O   UNL     1       6.307   2.844   1.891  0.00  0.00    -0.272 OA
ATOM     23  N   UNL     1       6.236   3.267   4.144  0.00  0.00    -0.217 N 
ATOM     24  C   UNL     1       6.582   4.273   4.954  0.00  0.00    +0.310 C 
ATOM     25  O   UNL     1       6.442   4.247   6.161  0.00  0.00    -0.252 OA
ATOM     26  N   UNL     1       7.103   5.317   4.285  0.00  0.00    -0.281 N 
ATOM     27  H   UNL     1       7.491   6.297   4.597  0.00  0.00    +0.152 HD
BRANCH  20  28
ATOM     28  C   UNL     1       8.501   4.923   2.311  0.00  0.00    -0.015 A 
ATOM     29  C   UNL     1       8.726   5.199   0.975  0.00  0.00    +0.006 A 
ATOM     30  C   UNL     1      10.015   5.181   0.474  0.00  0.00    +0.000 A 
ATOM     31  C   UNL     1      11.076   4.879   1.307  0.00  0.00    +0.000 A 
ATOM     32  C   UNL     1      10.849   4.598   2.641  0.00  0.00    +0.000 A 
ATOM     33  C   UNL     1       9.562   4.620   3.143  0.00  0.00    +0.006 A 
ENDBRANCH  20  28
BRANCH  20  35
ATOM     34  C   UNL     1       4.826   5.975   2.675  0.00  0.00    +0.007 C 
ATOM     35  C   UNL     1       6.224   5.915   2.056  0.00  0.00    +0.037 C 
ENDBRANCH  20  35
ENDBRANCH  19  23
ENDBRANCH   1  19
TORSDOF 5
