REMARK  Name = ZINC39355142
REMARK  6 active torsions:
REMARK  status: ('A' for Active; 'I' for Inactive)
REMARK    1  A    between atoms: C_4  and  C_7
REMARK    2  A    between atoms: C_9  and  C_17
REMARK    3  A    between atoms: N_18  and  N_19
REMARK    4  A    between atoms: C_24  and  C_27
REMARK    5  A    between atoms: C_27  and  C_28
REMARK    6  A    between atoms: N_30  and  C_31
REMARK                            x       y       z     vdW  Elec       q    Type
REMARK                         _______ _______ _______ _____ _____    ______ ____
ROOT
ATOM      1  N   UNL     1       4.730  -0.333   4.694  0.00  0.00    -0.127 NA
ATOM      2  C   UNL     1       5.019  -0.919   5.854  0.00  0.00    +0.183 C 
ATOM      3  N   UNL     1       5.161  -2.256   6.087  0.00  0.00    -0.263 N 
ATOM      4  C   UNL     1       5.450  -2.742   7.286  0.00  0.00    +0.233 C 
ATOM      5  O   UNL     1       5.581  -3.926   7.514  0.00  0.00    -0.274 OA
ATOM      6  C   UNL     1       5.604  -1.663   8.348  0.00  0.00    +0.149 C 
ATOM      7  S   UNL     1       5.290  -0.164   7.331  0.00  0.00    -0.075 S 
ATOM      8  H   UNL     1       5.045  -2.875   5.349  0.00  0.00    +0.157 HD
ENDROOT
BRANCH   1  10
ATOM      9  C   UNL     1       4.261  -0.468   2.485  0.00  0.00    +0.141 C 
ATOM     10  N   UNL     1       4.547  -1.050   3.637  0.00  0.00    -0.155 NA
BRANCH   9  12
ATOM     11  C   UNL     1       3.731  -0.750  -0.045  0.00  0.00    +0.142 C 
ATOM     12  C   UNL     1       4.064  -1.240   1.347  0.00  0.00    +0.008 C 
ATOM     13  C   UNL     1       4.132  -2.636   1.247  0.00  0.00    +0.005 A 
ATOM     14  C   UNL     1       4.400  -3.645   2.192  0.00  0.00    +0.010 A 
ATOM     15  C   UNL     1       4.400  -4.949   1.805  0.00  0.00    +0.001 A 
ATOM     16  C   UNL     1       4.138  -5.318   0.486  0.00  0.00    +0.002 A 
ATOM     17  C   UNL     1       3.872  -4.398  -0.475  0.00  0.00    +0.026 A 
ATOM     18  C   UNL     1       3.855  -3.019  -0.145  0.00  0.00    +0.044 A 
ATOM     19  N   UNL     1       3.627  -1.947  -0.884  0.00  0.00    -0.373 N 
ATOM     20  H   UNL     1       3.423  -1.952  -1.832  0.00  0.00    +0.161 HD
BRANCH  11  24
ATOM     21  C   UNL     1       0.012   1.352  -0.017  0.00  0.00    +0.000 A 
ATOM     22  C   UNL     1       1.203   2.054  -0.026  0.00  0.00    +0.000 A 
ATOM     23  C   UNL     1       2.406   1.374  -0.035  0.00  0.00    +0.006 A 
ATOM     24  C   UNL     1       2.419  -0.008  -0.034  0.00  0.00    -0.021 A 
ATOM     25  C   UNL     1       1.228  -0.710  -0.024  0.00  0.00    +0.006 A 
ATOM     26  C   UNL     1       0.025  -0.030  -0.017  0.00  0.00    +0.000 A 
ENDBRANCH  11  24
ENDBRANCH   9  12
ENDBRANCH   1  10
BRANCH   6  27
ATOM     27  C   UNL     1       7.019  -1.651   8.928  0.00  0.00    +0.120 C 
BRANCH  27  28
ATOM     28  C   UNL     1       7.092  -0.655  10.056  0.00  0.00    +0.219 C 
ATOM     29  O   UNL     1       6.108  -0.018  10.367  0.00  0.00    -0.275 OA
ATOM     30  N   UNL     1       8.250  -0.472  10.721  0.00  0.00    -0.285 N 
ATOM     31  H   UNL     1       9.019  -1.028  10.518  0.00  0.00    +0.155 HD
BRANCH  30  32
ATOM     32  C   UNL     1       8.344   0.520  11.704  0.00  0.00    +0.033 A 
ATOM     33  C   UNL     1       9.530   1.223  11.870  0.00  0.00    +0.025 A 
ATOM     34  C   UNL     1       9.620   2.202  12.841  0.00  0.00    +0.022 A 
ATOM     35  C   UNL     1       8.531   2.482  13.647  0.00  0.00    +0.041 A 
ATOM     36  C   UNL     1       7.348   1.782  13.482  0.00  0.00    +0.022 A 
ATOM     37  C   UNL     1       7.250   0.807  12.509  0.00  0.00    +0.025 A 
ATOM     38 CL   UNL     1       8.648   3.712  14.866  0.00  0.00    -0.084 Cl
ENDBRANCH  30  32
ENDBRANCH  27  28
ENDBRANCH   6  27
TORSDOF 6
