REMARK  Name = ZINC16937762
REMARK  8 active torsions:
REMARK  status: ('A' for Active; 'I' for Inactive)
REMARK    1  A    between atoms: C_1  and  C_2
REMARK    2  A    between atoms: C_2  and  C_4
REMARK    3  A    between atoms: C_2  and  N_6
REMARK    4  A    between atoms: C_10  and  C_11
REMARK    5  A    between atoms: C_15  and  O_17
REMARK    6  A    between atoms: O_17  and  C_18
REMARK    7  A    between atoms: C_18  and  C_20
REMARK    8  A    between atoms: C_18  and  C_21
REMARK                            x       y       z     vdW  Elec       q    Type
REMARK                         _______ _______ _______ _____ _____    ______ ____
ROOT
ATOM      1  N   UNL     1       1.116  -0.658   0.393  0.00  0.00    -0.241 N 
ATOM      2  C   UNL     1      -0.009  -0.028   0.684  0.00  0.00    +0.259 C 
ATOM      3  O   UNL     1      -0.975  -0.618   1.132  0.00  0.00    -0.269 OA
ATOM      4  C   UNL     1      -0.034   1.430   0.439  0.00  0.00    +0.077 C 
ATOM      5  C   UNL     1      -1.035   2.323   0.635  0.00  0.00    +0.028 C 
ATOM      6  S   UNL     1       1.617   1.690  -0.196  0.00  0.00    -0.061 S 
ATOM      7  C   UNL     1       2.184  -0.001  -0.102  0.00  0.00    +0.121 C 
ATOM      8  S   UNL     1       3.714  -0.634  -0.538  0.00  0.00    -0.027 S 
ENDROOT
BRANCH   5   9
ATOM      9  C   UNL     1      -0.772   3.763   0.503  0.00  0.00    -0.020 A 
ATOM     10  C   UNL     1       0.539   4.227   0.350  0.00  0.00    +0.008 A 
ATOM     11  C   UNL     1       0.781   5.578   0.221  0.00  0.00    +0.004 A 
ATOM     12  C   UNL     1      -0.269   6.479   0.253  0.00  0.00    +0.046 A 
ATOM     13  C   UNL     1      -1.573   6.030   0.409  0.00  0.00    +0.122 A 
ATOM     14  C   UNL     1      -1.831   4.676   0.534  0.00  0.00    +0.053 A 
BRANCH  13  15
ATOM     15  O   UNL     1      -2.599   6.922   0.439  0.00  0.00    -0.478 OA
BRANCH  15  16
ATOM     16  C   UNL     1      -2.254   8.308   0.425  0.00  0.00    +0.282 C 
ATOM     17  C   UNL     1      -2.144   8.792  -1.023  0.00  0.00    +0.064 C 
BRANCH  16  18
ATOM     18  C   UNL     1      -3.321   9.099   1.138  0.00  0.00    +0.395 C 
ATOM     19  O   UNL     1      -4.278   8.533   1.611  0.00  0.00    -0.242 OA
ATOM     20  O   UNL     1      -3.207  10.432   1.249  0.00  0.00    -0.242 OA
ENDBRANCH  16  18
ENDBRANCH  15  16
ENDBRANCH  13  15
ENDBRANCH   5   9
BRANCH   1  22
ATOM     21  C   UNL     1       2.329  -2.400   1.608  0.00  0.00    +0.040 C 
ATOM     22  C   UNL     1       1.205  -2.104   0.613  0.00  0.00    +0.192 C 
BRANCH  22  23
ATOM     23  C   UNL     1       1.496  -2.795  -0.694  0.00  0.00    +0.376 C 
ATOM     24  O   UNL     1       1.617  -2.146  -1.706  0.00  0.00    -0.244 OA
ATOM     25  O   UNL     1       1.621  -4.130  -0.734  0.00  0.00    -0.244 OA
ENDBRANCH  22  23
ENDBRANCH   1  22
TORSDOF 6
