REMARK  Name = ZINC22317803
REMARK  7 active torsions:
REMARK  status: ('A' for Active; 'I' for Inactive)
REMARK    1  A    between atoms: C_1  and  C_2
REMARK    2  A    between atoms: C_2  and  C_4
REMARK    3  A    between atoms: C_2  and  N_8
REMARK    4  A    between atoms: C_4  and  C_5
REMARK    5  A    between atoms: C_4  and  C_6
REMARK    6  A    between atoms: C_4  and  C_7
REMARK    7  A    between atoms: C_9  and  C_11
REMARK                            x       y       z     vdW  Elec       q    Type
REMARK                         _______ _______ _______ _____ _____    ______ ____
ROOT
ATOM      1  C   UNL     1       3.429  -0.019  -1.790  0.00  0.00    +0.087 C 
ATOM      2  C   UNL     1       2.715   0.312  -0.679  0.00  0.00    +0.080 C 
ATOM      3  C   UNL     1       2.890   1.627  -0.006  0.00  0.00    +0.255 C 
ATOM      4  O   UNL     1       3.964   2.195  -0.049  0.00  0.00    -0.269 OA
ATOM      5  N   UNL     1       1.862   2.183   0.646  0.00  0.00    -0.280 N 
ATOM      6  C   UNL     1       0.566   1.689   0.657  0.00  0.00    +0.049 A 
ATOM      7  C   UNL     1      -0.473   2.576   0.941  0.00  0.00    +0.044 A 
ATOM      8  C   UNL     1      -1.780   2.139   0.965  0.00  0.00    +0.043 A 
ATOM      9  C   UNL     1      -2.079   0.812   0.698  0.00  0.00    +0.021 A 
ATOM     10  C   UNL     1      -1.063  -0.077   0.412  0.00  0.00    +0.018 A 
ATOM     11  C   UNL     1       0.258   0.354   0.392  0.00  0.00    +0.034 A 
ATOM     12  S   UNL     1       1.540  -0.804   0.030  0.00  0.00    -0.082 S 
ATOM     13 CL   UNL     1      -3.059   3.256   1.325  0.00  0.00    -0.083 Cl
ATOM     14  H   UNL     1       2.014   3.103   1.230  0.00  0.00    +0.155 HD
ENDROOT
BRANCH   1  16
ATOM     15  N   UNL     1       4.946   0.638  -3.521  0.00  0.00    -0.309 N 
ATOM     16  C   UNL     1       4.129   0.982  -2.505  0.00  0.00    +0.238 C 
ATOM     17  O   UNL     1       3.993   2.154  -2.203  0.00  0.00    -0.271 OA
ATOM     18  H   UNL     1       5.068  -0.420  -3.794  0.00  0.00    +0.149 HD
BRANCH  15  20
ATOM     19  C   UNL     1       6.968   2.013  -3.525  0.00  0.00    +0.028 C 
ATOM     20  C   UNL     1       5.670   1.675  -4.261  0.00  0.00    +0.076 C 
BRANCH  20  21
ATOM     21  C   UNL     1       5.999   1.163  -5.665  0.00  0.00    -0.020 C 
ATOM     22  C   UNL     1       4.701   0.824  -6.401  0.00  0.00    +0.012 C 
ATOM     23  C   UNL     1       6.755   2.245  -6.438  0.00  0.00    +0.012 C 
ATOM     24  C   UNL     1       6.868  -0.092  -5.560  0.00  0.00    +0.012 C 
ENDBRANCH  20  21
ENDBRANCH  15  20
ENDBRANCH   1  16
TORSDOF 3
