REMARK  Name = ZINC66121124
REMARK  7 active torsions:
REMARK  status: ('A' for Active; 'I' for Inactive)
REMARK    1  A    between atoms: C_1  and  C_2
REMARK    2  A    between atoms: C_8  and  C_27
REMARK    3  A    between atoms: C_8  and  C_28
REMARK    4  A    between atoms: C_10  and  N_12
REMARK    5  A    between atoms: C_19  and  C_22
REMARK    6  A    between atoms: C_22  and  C_23
REMARK    7  A    between atoms: C_23  and  C_24
REMARK                            x       y       z     vdW  Elec       q    Type
REMARK                         _______ _______ _______ _____ _____    ______ ____
ROOT
ATOM      1  N   UNL     1      -2.503  -3.293  -0.965  0.00  0.00    -0.292 N 
ATOM      2  C   UNL     1      -3.667  -2.732  -0.582  0.00  0.00    +0.303 C 
ATOM      3  O   UNL     1      -3.830  -2.401   0.576  0.00  0.00    -0.253 OA
ATOM      4  N   UNL     1      -4.650  -2.539  -1.484  0.00  0.00    -0.285 N 
ATOM      5  C   UNL     1      -4.516  -3.042  -2.858  0.00  0.00    +0.109 C 
ATOM      6  C   UNL     1      -5.740  -3.901  -3.190  0.00  0.00    +0.019 C 
ATOM      7  C   UNL     1      -7.012  -3.087  -2.940  0.00  0.00    +0.006 C 
ATOM      8  C   UNL     1      -7.085  -2.693  -1.463  0.00  0.00    +0.007 C 
ATOM      9  C   UNL     1      -5.879  -1.826  -1.109  0.00  0.00    +0.112 C 
ATOM     10  H   UNL     1      -2.398  -3.624  -1.871  0.00  0.00    +0.151 HD
ENDROOT
BRANCH   1  20
ATOM     11  C   UNL     1      -0.031   1.512   0.023  0.00  0.00    +0.086 C 
ATOM     12  C   UNL     1      -0.006   0.005   0.011  0.00  0.00    +0.103 A 
ATOM     13  C   UNL     1      -1.087  -0.801   0.009  0.00  0.00    +0.050 A 
ATOM     14  C   UNL     1      -0.604  -2.122  -0.004  0.00  0.00    +0.014 A 
ATOM     15  C   UNL     1       0.743  -2.054  -0.008  0.00  0.00    +0.111 A 
ATOM     16  O   UNL     1       1.098  -0.763  -0.006  0.00  0.00    -0.464 OA
ATOM     17  C   UNL     1       1.647  -3.262  -0.018  0.00  0.00    +0.081 C 
ATOM     18  C   UNL     1       0.823  -4.487   0.395  0.00  0.00    -0.026 C 
ATOM     19  C   UNL     1      -0.461  -4.545  -0.437  0.00  0.00    +0.034 C 
ATOM     20  C   UNL     1      -1.395  -3.404  -0.013  0.00  0.00    +0.109 C 
ATOM     21  C   UNL     1       1.643  -5.757   0.156  0.00  0.00    +0.011 C 
ATOM     22  C   UNL     1       0.465  -4.384   1.879  0.00  0.00    +0.011 C 
ENDBRANCH   1  20
BRANCH   8  23
ATOM     23  C   UNL     1      -8.374  -1.909  -1.207  0.00  0.00    +0.014 C 
BRANCH  23  24
ATOM     24  C   UNL     1      -8.508  -1.623   0.290  0.00  0.00    +0.096 C 
BRANCH  24  25
ATOM     25  C   UNL     1      -9.777  -0.851   0.542  0.00  0.00    +0.210 C 
ATOM     26  O   UNL     1     -10.503  -0.558  -0.385  0.00  0.00    -0.276 OA
ATOM     27  N   UNL     1     -10.106  -0.486   1.797  0.00  0.00    -0.329 N 
ATOM     28  H   UNL     1      -9.526  -0.720   2.538  0.00  0.00    +0.145 HD
ATOM     29  H   UNL     1     -10.923   0.011   1.959  0.00  0.00    +0.145 HD
ENDBRANCH  24  25
ENDBRANCH  23  24
ENDBRANCH   8  23
TORSDOF 4
