REMARK  Name = ZINC63269534
REMARK  8 active torsions:
REMARK  status: ('A' for Active; 'I' for Inactive)
REMARK    1  A    between atoms: C_1  and  C_2
REMARK    2  A    between atoms: C_3  and  C_22
REMARK    3  A    between atoms: C_5  and  N_17
REMARK    4  A    between atoms: C_6  and  C_7
REMARK    5  A    between atoms: N_9  and  N_10
REMARK    6  A    between atoms: N_13  and  C_14
REMARK    7  A    between atoms: C_14  and  C_15
REMARK    8  A    between atoms: C_14  and  C_16
REMARK                            x       y       z     vdW  Elec       q    Type
REMARK                         _______ _______ _______ _____ _____    ______ ____
ROOT
ATOM      1  C   UNL     1       0.028  -0.137   2.541  0.00  0.00    +0.263 C 
ATOM      2  O   UNL     1      -1.024   0.115   3.099  0.00  0.00    -0.269 OA
ATOM      3  N   UNL     1       1.197   0.174   3.136  0.00  0.00    -0.229 N 
ATOM      4  H   UNL     1       2.035  -0.027   2.692  0.00  0.00    +0.173 HD
ENDROOT
BRANCH   1  10
ATOM      5  C   UNL     1      -0.018   1.503   0.010  0.00  0.00    +0.045 C 
ATOM      6  C   UNL     1       0.002  -0.004   0.002  0.00  0.00    -0.026 A 
ATOM      7  C   UNL     1       0.007  -0.713  -1.143  0.00  0.00    -0.008 A 
ATOM      8  S   UNL     1       0.033  -2.400  -0.578  0.00  0.00    -0.075 S 
ATOM      9  C   UNL     1       0.037  -2.157   1.082  0.00  0.00    +0.097 A 
ATOM     10  C   UNL     1       0.024  -0.778   1.222  0.00  0.00    +0.072 A 
ATOM     11  C   UNL     1      -0.007  -0.201  -2.560  0.00  0.00    +0.052 C 
BRANCH   9  12
ATOM     12  N   UNL     1       0.055  -3.118   2.087  0.00  0.00    -0.317 N 
ATOM     13  C   UNL     1       0.051  -2.867   3.430  0.00  0.00    +0.092 A 
ATOM     14  C   UNL     1       0.073  -4.048   4.080  0.00  0.00    +0.019 A 
ATOM     15  C   UNL     1       0.091  -5.067   3.105  0.00  0.00    +0.019 A 
ATOM     16  C   UNL     1       0.074  -4.471   1.896  0.00  0.00    +0.092 A 
ENDBRANCH   9  12
ENDBRANCH   1  10
BRANCH   3  17
ATOM     17  N   UNL     1       1.200   0.786   4.397  0.00  0.00    -0.218 N 
ATOM     18  C   UNL     1       2.369   1.096   4.992  0.00  0.00    +0.316 C 
ATOM     19  O   UNL     1       2.372   1.627   6.085  0.00  0.00    -0.251 OA
ATOM     20  N   UNL     1       3.534   0.818   4.375  0.00  0.00    -0.296 N 
ATOM     21  H   UNL     1       0.362   0.986   4.841  0.00  0.00    +0.174 HD
ATOM     22  H   UNL     1       3.532   0.394   3.502  0.00  0.00    +0.151 HD
BRANCH  20  23
ATOM     23  C   UNL     1       4.805   1.155   5.021  0.00  0.00    +0.068 C 
ATOM     24  C   UNL     1       5.908   0.238   4.488  0.00  0.00    +0.027 C 
ATOM     25  C   UNL     1       5.161   2.611   4.717  0.00  0.00    +0.027 C 
ENDBRANCH  20  23
ENDBRANCH   3  17
TORSDOF 4
