REMARK  Name = ZINC00270772
REMARK  4 active torsions:
REMARK  status: ('A' for Active; 'I' for Inactive)
REMARK    1  A    between atoms: C_5  and  C_13
REMARK    2  A    between atoms: C_7  and  C_9
REMARK    3  A    between atoms: N_11  and  N_12
REMARK    4  A    between atoms: N_15  and  N_16
REMARK                            x       y       z     vdW  Elec       q    Type
REMARK                         _______ _______ _______ _____ _____    ______ ____
ROOT
ATOM      1  C   UNL     1      -2.126   1.695   1.270  0.00  0.00    +0.042 C 
ATOM      2  C   UNL     1      -3.308   2.606   1.431  0.00  0.00    -0.011 C 
ATOM      3  C   UNL     1      -3.431   3.747   0.830  0.00  0.00    +0.015 C 
ATOM      4  C   UNL     1      -2.415   4.312  -0.119  0.00  0.00    +0.060 C 
ATOM      5  C   UNL     1      -1.076   3.591   0.053  0.00  0.00    +0.093 C 
ATOM      6  C   UNL     1      -1.331   2.079   0.020  0.00  0.00    +0.092 C 
ATOM      7 CL   UNL     1      -4.862   4.681   1.142  0.00  0.00    -0.089 Cl
ENDROOT
BRANCH   6   8
ATOM      8  C   UNL     1      -0.016   1.344   0.009  0.00  0.00    +0.230 C 
ATOM      9  O   UNL     1       1.026   1.964   0.003  0.00  0.00    -0.274 OA
ATOM     10  N   UNL     1       0.002  -0.004   0.002  0.00  0.00    -0.253 N 
ATOM     11  H   UNL     1      -0.831  -0.500   0.007  0.00  0.00    +0.169 HD
BRANCH  10  12
ATOM     12  N   UNL     1       1.194  -0.671  -0.013  0.00  0.00    -0.254 NA
ATOM     13  H   UNL     1       1.774  -0.392   0.764  0.00  0.00    +0.140 HD
ATOM     14  H   UNL     1       1.050  -1.669  -0.017  0.00  0.00    +0.140 HD
ENDBRANCH  10  12
ENDBRANCH   6   8
BRANCH   5  15
ATOM     15  C   UNL     1      -0.148   3.973  -1.071  0.00  0.00    +0.230 C 
ATOM     16  O   UNL     1       0.271   3.123  -1.827  0.00  0.00    -0.274 OA
ATOM     17  N   UNL     1       0.217   5.260  -1.236  0.00  0.00    -0.253 N 
ATOM     18  H   UNL     1      -0.118   5.941  -0.631  0.00  0.00    +0.169 HD
BRANCH  17  19
ATOM     19  N   UNL     1       1.059   5.606  -2.254  0.00  0.00    -0.254 NA
ATOM     20  H   UNL     1       0.690   5.309  -3.145  0.00  0.00    +0.140 HD
ATOM     21  H   UNL     1       1.241   6.599  -2.251  0.00  0.00    +0.140 HD
ENDBRANCH  17  19
ENDBRANCH   5  15
TORSDOF 4
