REMARK  Name = ZINC05055148
REMARK  2 active torsions:
REMARK  status: ('A' for Active; 'I' for Inactive)
REMARK    1  A    between atoms: C_5  and  C_7
REMARK    2  A    between atoms: C_24  and  C_26
REMARK                            x       y       z     vdW  Elec       q    Type
REMARK                         _______ _______ _______ _____ _____    ______ ____
ROOT
ATOM      1  C   UNL     1       1.103  -2.112  -0.129  0.00  0.00    +0.237 C 
ATOM      2  C   UNL     1       1.189  -2.650  -1.528  0.00  0.00    +0.028 C 
ATOM      3  C   UNL     1       0.070  -2.912  -2.234  0.00  0.00    +0.083 C 
ATOM      4  C   UNL     1      -1.234  -2.659  -1.569  0.00  0.00    +0.042 A 
ATOM      5  C   UNL     1      -2.415  -2.581  -2.294  0.00  0.00    +0.013 A 
ATOM      6  C   UNL     1      -3.605  -2.342  -1.634  0.00  0.00    +0.001 A 
ATOM      7  C   UNL     1      -3.620  -2.180  -0.260  0.00  0.00    +0.004 A 
ATOM      8  C   UNL     1      -2.448  -2.257   0.469  0.00  0.00    +0.046 A 
ATOM      9  C   UNL     1      -1.248  -2.497  -0.178  0.00  0.00    +0.131 A 
ATOM     10  O   UNL     1      -0.086  -2.581   0.509  0.00  0.00    -0.479 OA
ATOM     11  N   UNL     1       0.127  -3.391  -3.501  0.00  0.00    -0.213 NA
ATOM     12  C   UNL     1       1.241  -3.647  -4.146  0.00  0.00    +0.237 C 
ATOM     13  N   UNL     1       1.475  -4.122  -5.389  0.00  0.00    -0.205 NA
ATOM     14  C   UNL     1       2.758  -4.220  -5.604  0.00  0.00    +0.203 C 
ATOM     15  N   UNL     1       3.437  -3.808  -4.498  0.00  0.00    -0.251 N 
ATOM     16  N   UNL     1       2.473  -3.437  -3.558  0.00  0.00    -0.208 N 
ATOM     17  C   UNL     1       2.525  -2.914  -2.187  0.00  0.00    +0.166 C 
ATOM     18  H   UNL     1       4.400  -3.778  -4.384  0.00  0.00    +0.171 HD
ENDROOT
BRANCH   1  23
ATOM     19  C   UNL     1      -0.066   1.439  -0.659  0.00  0.00    +0.001 A 
ATOM     20  C   UNL     1       1.045   2.159  -0.261  0.00  0.00    +0.003 A 
ATOM     21  C   UNL     1       2.176   1.498   0.180  0.00  0.00    +0.039 A 
ATOM     22  C   UNL     1       2.196   0.114   0.223  0.00  0.00    +0.130 A 
ATOM     23  C   UNL     1       1.083  -0.606  -0.175  0.00  0.00    +0.032 A 
ATOM     24  C   UNL     1      -0.047   0.057  -0.616  0.00  0.00    +0.010 A 
ATOM     25  F   UNL     1       3.301  -0.533   0.653  0.00  0.00    -0.205 F 
ENDBRANCH   1  23
BRANCH  17  26
ATOM     26  C   UNL     1       3.303  -1.624  -2.205  0.00  0.00    +0.016 A 
ATOM     27  C   UNL     1       4.401  -1.279  -1.488  0.00  0.00    +0.013 A 
ATOM     28  C   UNL     1       4.954  -0.026  -1.672  0.00  0.00    +0.008 A 
ATOM     29  C   UNL     1       4.384   0.821  -2.563  0.00  0.00    +0.045 A 
ATOM     30  S   UNL     1       3.024  -0.156  -3.183  0.00  0.00    -0.099 S 
ENDBRANCH  17  26
TORSDOF 2
