REMARK  Name = ZINC48795699
REMARK  4 active torsions:
REMARK  status: ('A' for Active; 'I' for Inactive)
REMARK    1  A    between atoms: C_3  and  C_9
REMARK    2  A    between atoms: C_4  and  O_8
REMARK    3  A    between atoms: C_9  and  N_10
REMARK    4  A    between atoms: N_10  and  C_11
REMARK                            x       y       z     vdW  Elec       q    Type
REMARK                         _______ _______ _______ _____ _____    ______ ____
ROOT
ATOM      1  N   UNL     1       4.199   2.245  -1.388  0.00  0.00    -0.338 N 
ATOM      2  H   UNL     1       3.716   1.815  -2.111  0.00  0.00    +0.146 HD
ENDROOT
BRANCH   1   3
ATOM      3  C   UNL     1       5.394   2.913  -1.648  0.00  0.00    +0.055 A 
ATOM      4  C   UNL     1       6.086   3.521  -0.623  0.00  0.00    +0.045 A 
ATOM      5  C   UNL     1       7.282   4.192  -0.869  0.00  0.00    +0.043 A 
ATOM      6  C   UNL     1       7.798   4.264  -2.128  0.00  0.00    +0.030 A 
ATOM      7  C   UNL     1       7.123   3.657  -3.198  0.00  0.00    +0.004 A 
ATOM      8  C   UNL     1       5.909   2.967  -2.962  0.00  0.00    +0.092 A 
ATOM      9  N   UNL     1       5.266   2.384  -3.977  0.00  0.00    -0.253 NA
ATOM     10  C   UNL     1       5.737   2.431  -5.200  0.00  0.00    +0.111 A 
ATOM     11  C   UNL     1       6.929   3.087  -5.501  0.00  0.00    +0.020 A 
ATOM     12  C   UNL     1       7.630   3.714  -4.511  0.00  0.00    +0.011 A 
ATOM     13 CL   UNL     1       8.126   4.947   0.447  0.00  0.00    -0.083 Cl
ENDBRANCH   1   3
BRANCH   1  14
ATOM     14  C   UNL     1       3.670   2.193  -0.023  0.00  0.00    +0.140 C 
BRANCH  14  17
ATOM     15  C   UNL     1      -0.017   1.378   0.010  0.00  0.00    +0.002 A 
ATOM     16  C   UNL     1       1.170   2.088   0.002  0.00  0.00    +0.009 A 
ATOM     17  C   UNL     1       2.378   1.418  -0.013  0.00  0.00    +0.012 A 
ATOM     18  C   UNL     1       2.400   0.031  -0.021  0.00  0.00    +0.135 A 
ATOM     19  C   UNL     1       1.208  -0.680  -0.013  0.00  0.00    +0.060 A 
ATOM     20  C   UNL     1       0.002  -0.004   0.002  0.00  0.00    +0.019 A 
ATOM     21 BR   UNL     1       1.233  -2.571  -0.024  0.00  0.00    -0.047 Br
BRANCH  18  22
ATOM     22  O   UNL     1       3.587  -0.631  -0.037  0.00  0.00    -0.505 OA
ATOM     23  H   UNL     1       3.940  -0.827   0.842  0.00  0.00    +0.292 HD
ENDBRANCH  18  22
ENDBRANCH  14  17
ENDBRANCH   1  14
TORSDOF 4
