REMARK  Name = ZINC63230898
REMARK  6 active torsions:
REMARK  status: ('A' for Active; 'I' for Inactive)
REMARK    1  A    between atoms: C_1  and  C_2
REMARK    2  A    between atoms: C_3  and  C_8
REMARK    3  A    between atoms: C_4  and  C_7
REMARK    4  A    between atoms: C_8  and  N_9
REMARK    5  A    between atoms: C_10  and  C_12
REMARK    6  A    between atoms: N_14  and  C_15
REMARK                            x       y       z     vdW  Elec       q    Type
REMARK                         _______ _______ _______ _____ _____    ______ ____
ROOT
ATOM      1  N   UNL     1       1.371  -0.179  -3.042  0.00  0.00    -0.303 N 
ATOM      2  C   UNL     1       1.606   0.241  -4.301  0.00  0.00    +0.300 C 
ATOM      3  O   UNL     1       0.677   0.469  -5.048  0.00  0.00    -0.265 OA
ATOM      4  H   UNL     1       2.114  -0.361  -2.445  0.00  0.00    +0.149 HD
ENDROOT
BRANCH   2   5
ATOM      5  C   UNL     1       3.009   0.426  -4.777  0.00  0.00    +0.303 C 
ATOM      6  O   UNL     1       3.938   0.198  -4.030  0.00  0.00    -0.265 OA
ATOM      7  N   UNL     1       3.244   0.846  -6.036  0.00  0.00    -0.278 N 
ATOM      8  H   UNL     1       2.505   0.964  -6.654  0.00  0.00    +0.155 HD
BRANCH   7   9
ATOM      9  C   UNL     1       4.551   1.112  -6.452  0.00  0.00    +0.039 A 
ATOM     10  C   UNL     1       4.801   2.150  -7.340  0.00  0.00    +0.061 A 
ATOM     11  C   UNL     1       6.096   2.411  -7.750  0.00  0.00    +0.128 A 
ATOM     12  C   UNL     1       7.143   1.639  -7.275  0.00  0.00    +0.076 A 
ATOM     13  C   UNL     1       6.896   0.603  -6.390  0.00  0.00    +0.128 A 
ATOM     14  C   UNL     1       5.603   0.342  -5.973  0.00  0.00    +0.061 A 
ATOM     15  F   UNL     1       7.919  -0.149  -5.929  0.00  0.00    -0.205 F 
ATOM     16  F   UNL     1       6.340   3.421  -8.614  0.00  0.00    -0.205 F 
ENDBRANCH   7   9
ENDBRANCH   2   5
BRANCH   1  17
ATOM     17  C   UNL     1      -0.006  -0.360  -2.575  0.00  0.00    +0.145 C 
BRANCH  17  20
ATOM     18  C   UNL     1      -0.037   1.498   0.001  0.00  0.00    +0.069 C 
ATOM     19  C   UNL     1      -0.007  -0.009  -0.004  0.00  0.00    +0.085 A 
ATOM     20  C   UNL     1       0.007  -0.832  -1.144  0.00  0.00    +0.034 A 
ATOM     21  C   UNL     1       0.035  -2.115  -0.735  0.00  0.00    +0.139 A 
ATOM     22  O   UNL     1       0.037  -2.122   0.607  0.00  0.00    -0.359 OA
ATOM     23  N   UNL     1       0.017  -0.777   1.049  0.00  0.00    -0.083 NA
ATOM     24  C   UNL     1       0.057  -3.329  -1.627  0.00  0.00    +0.089 C 
ENDBRANCH  17  20
ENDBRANCH   1  17
TORSDOF 4
