REMARK  Name = ZINC06459138
REMARK  9 active torsions:
REMARK  status: ('A' for Active; 'I' for Inactive)
REMARK    1  A    between atoms: C_1  and  C_2
REMARK    2  A    between atoms: C_4  and  C_24
REMARK    3  A    between atoms: C_5  and  C_23
REMARK    4  A    between atoms: C_6  and  C_8
REMARK    5  A    between atoms: C_11  and  C_22
REMARK    6  A    between atoms: C_17  and  N_21
REMARK    7  A    between atoms: C_18  and  C_19
REMARK    8  A    between atoms: C_24  and  N_25
REMARK    9  A    between atoms: C_28  and  C_30
REMARK                            x       y       z     vdW  Elec       q    Type
REMARK                         _______ _______ _______ _____ _____    ______ ____
ROOT
ATOM      1  C   UNL     1       2.490   1.047  -0.016  0.00  0.00    +0.044 C 
ATOM      2  C   UNL     1       1.175   1.783   0.000  0.00  0.00    -0.050 A 
ATOM      3  C   UNL     1       1.156   3.166   0.008  0.00  0.00    +0.009 A 
ATOM      4  C   UNL     1      -0.050   3.840   0.022  0.00  0.00    -0.023 A 
ATOM      5  C   UNL     1      -1.238   3.133   0.030  0.00  0.00    -0.041 A 
ATOM      6  C   UNL     1      -1.219   1.751   0.017  0.00  0.00    -0.031 A 
ATOM      7  C   UNL     1      -0.013   1.076   0.008  0.00  0.00    +0.008 A 
ATOM      8  C   UNL     1      -2.553   3.868   0.047  0.00  0.00    +0.044 C 
ENDROOT
BRANCH   6   9
ATOM      9  C   UNL     1      -2.514   0.980   0.019  0.00  0.00    +0.102 C 
ATOM     10  C   UNL     1      -2.579   0.092  -1.198  0.00  0.00    +0.049 A 
ATOM     11  C   UNL     1      -2.766   0.418  -2.486  0.00  0.00    +0.041 A 
ATOM     12  N   UNL     1      -2.745  -0.728  -3.206  0.00  0.00    -0.278 N 
ATOM     13  H   UNL     1      -2.858  -0.800  -4.197  0.00  0.00    +0.189 HD
ATOM     14  N   UNL     1      -2.537  -1.796  -2.319  0.00  0.00    -0.135 NA
ATOM     15  C   UNL     1      -2.439  -1.310  -1.116  0.00  0.00    +0.245 A 
ATOM     16  O   UNL     1      -2.238  -1.947   0.069  0.00  0.00    -0.421 OA
ATOM     17  C   UNL     1      -2.445  -1.239   1.197  0.00  0.00    +0.201 C 
ATOM     18  C   UNL     1      -2.582   0.103   1.244  0.00  0.00    +0.098 C 
ATOM     19  C   UNL     1      -2.962   1.809  -3.032  0.00  0.00    +0.065 C 
BRANCH  17  20
ATOM     20  N   UNL     1      -2.521  -1.930   2.381  0.00  0.00    -0.328 N 
ATOM     21  H   UNL     1      -2.669  -1.453   3.212  0.00  0.00    +0.145 HD
ATOM     22  H   UNL     1      -2.427  -2.896   2.385  0.00  0.00    +0.145 HD
ENDBRANCH  17  20
BRANCH  18  23
ATOM     23  C   UNL     1      -2.804   0.722   2.516  0.00  0.00    +0.101 C 
ATOM     24  N   UNL     1      -2.979   1.214   3.525  0.00  0.00    -0.191 NA
ENDBRANCH  18  23
ENDBRANCH   6   9
BRANCH   4  25
ATOM     25  C   UNL     1      -0.070   5.347   0.030  0.00  0.00    +0.178 C 
BRANCH  25  26
ATOM     26  N   UNL     1      -0.185   5.827   1.410  0.00  0.00    -0.267 N 
ATOM     27  C   UNL     1       0.656   6.686   2.024  0.00  0.00    +0.109 A 
ATOM     28  C   UNL     1       0.203   6.876   3.284  0.00  0.00    +0.053 A 
ATOM     29  C   UNL     1      -0.949   6.099   3.450  0.00  0.00    +0.165 A 
ATOM     30  N   UNL     1      -1.182   5.470   2.326  0.00  0.00    -0.167 NA
BRANCH  29  31
ATOM     31  C   UNL     1      -1.778   6.004   4.704  0.00  0.00    +0.436 C 
ATOM     32  F   UNL     1      -2.782   5.046   4.528  0.00  0.00    -0.164 F 
ATOM     33  F   UNL     1      -0.960   5.630   5.776  0.00  0.00    -0.164 F 
ATOM     34  F   UNL     1      -2.361   7.247   4.974  0.00  0.00    -0.164 F 
ENDBRANCH  29  31
ENDBRANCH  25  26
ENDBRANCH   4  25
TORSDOF 6
