REMARK  Name = ZINC27525442
REMARK  7 active torsions:
REMARK  status: ('A' for Active; 'I' for Inactive)
REMARK    1  A    between atoms: C_1  and  C_2
REMARK    2  A    between atoms: C_2  and  C_3
REMARK    3  A    between atoms: C_6  and  S_9
REMARK    4  A    between atoms: N_7  and  N_8
REMARK    5  A    between atoms: S_9  and  C_10
REMARK    6  A    between atoms: C_10  and  C_11
REMARK    7  A    between atoms: N_13  and  C_14
REMARK                            x       y       z     vdW  Elec       q    Type
REMARK                         _______ _______ _______ _____ _____    ______ ____
ROOT
ATOM      1  C   UNL     1       2.370   5.180  -0.393  0.00  0.00    +0.228 C 
ATOM      2  O   UNL     1       1.328   5.744  -0.653  0.00  0.00    -0.275 OA
ATOM      3  N   UNL     1       2.358   3.890  -0.001  0.00  0.00    -0.282 N 
ATOM      4  H   UNL     1       3.292   3.403   0.314  0.00  0.00    +0.155 HD
ENDROOT
BRANCH   3   5
ATOM      5  C   UNL     1       1.156   3.171   0.007  0.00  0.00    +0.071 A 
ATOM      6  C   UNL     1       0.749   2.485  -1.130  0.00  0.00    +0.065 A 
ATOM      7  C   UNL     1      -0.438   1.776  -1.120  0.00  0.00    +0.042 A 
ATOM      8  C   UNL     1      -1.223   1.755   0.019  0.00  0.00    +0.044 A 
ATOM      9  C   UNL     1      -0.818   2.433   1.155  0.00  0.00    +0.042 A 
ATOM     10  C   UNL     1       0.368   3.144   1.151  0.00  0.00    +0.065 A 
ATOM     11 CL   UNL     1       0.874   3.999   2.575  0.00  0.00    -0.082 Cl
ATOM     12 CL   UNL     1      -2.717   0.870   0.026  0.00  0.00    -0.083 Cl
ATOM     13 CL   UNL     1       1.729   2.517  -2.562  0.00  0.00    -0.082 Cl
ENDBRANCH   3   5
BRANCH   1  14
ATOM     14  C   UNL     1       3.677   5.920  -0.510  0.00  0.00    +0.173 C 
BRANCH  14  15
ATOM     15  S   UNL     1       3.363   7.617  -1.055  0.00  0.00    -0.075 S 
BRANCH  15  19
ATOM     16  C   UNL     1       6.761   9.510  -1.348  0.00  0.00    +0.151 A 
ATOM     17  N   UNL     1       7.132   8.324  -0.954  0.00  0.00    -0.132 NA
ATOM     18  N   UNL     1       6.104   7.568  -0.804  0.00  0.00    -0.121 NA
ATOM     19  C   UNL     1       5.013   8.233  -1.105  0.00  0.00    +0.209 A 
ATOM     20  N   UNL     1       5.398   9.495  -1.458  0.00  0.00    -0.228 N 
BRANCH  20  21
ATOM     21  N   UNL     1       4.590  10.527  -1.842  0.00  0.00    -0.295 N 
ATOM     22  H   UNL     1       3.501  10.384  -1.890  0.00  0.00    +0.163 HD
ATOM     23  H   UNL     1       5.029  11.501  -2.103  0.00  0.00    +0.163 HD
ENDBRANCH  20  21
BRANCH  16  25
ATOM     24  C   UNL     1       7.857  11.498  -0.349  0.00  0.00    +0.012 C 
ATOM     25  C   UNL     1       7.667  10.681  -1.629  0.00  0.00    +0.074 C 
ENDBRANCH  16  25
ENDBRANCH  15  19
ENDBRANCH  14  15
ENDBRANCH   1  14
TORSDOF 6
