REMARK  Name = ZINC66892885
REMARK  5 active torsions:
REMARK  status: ('A' for Active; 'I' for Inactive)
REMARK    1  A    between atoms: N_4  and  C_16
REMARK    2  A    between atoms: C_5  and  C_8
REMARK    3  A    between atoms: C_16  and  C_17
REMARK    4  A    between atoms: N_22  and  C_23
REMARK    5  A    between atoms: C_23  and  C_24
REMARK                            x       y       z     vdW  Elec       q    Type
REMARK                         _______ _______ _______ _____ _____    ______ ____
ROOT
ATOM      1  C   UNL     1      -0.099   1.395   0.015  0.00  0.00    -0.003 C 
ATOM      2  C   UNL     1       1.284   2.043  -0.100  0.00  0.00    -0.019 C 
ATOM      3  C   UNL     1       2.010   1.468  -1.318  0.00  0.00    -0.077 C 
ATOM      4  N   UNL     1       2.160   0.016  -1.163  0.00  0.00    +0.393 N 
ATOM      5  C   UNL     1       0.838  -0.620  -1.124  0.00  0.00    +0.020 C 
ATOM      6  C   UNL     1       0.066  -0.125   0.102  0.00  0.00    -0.006 C 
ATOM      7  H   UNL     1       2.652  -0.180  -0.304  0.00  0.00    -0.080 HD
ENDROOT
BRANCH   5   8
ATOM      8  C   UNL     1       1.002  -2.115  -1.042  0.00  0.00    +0.202 C 
ATOM      9  O   UNL     1       2.015  -2.589  -0.571  0.00  0.00    -0.277 OA
ATOM     10  N   UNL     1       0.025  -2.927  -1.493  0.00  0.00    -0.298 N 
ATOM     11  C   UNL     1      -1.160  -2.380  -2.172  0.00  0.00    +0.136 C 
ATOM     12  C   UNL     1      -1.358  -3.141  -3.488  0.00  0.00    +0.179 C 
ATOM     13  O   UNL     1      -1.370  -4.545  -3.222  0.00  0.00    -0.377 OA
ATOM     14  C   UNL     1      -0.148  -5.049  -2.678  0.00  0.00    +0.179 C 
ATOM     15  C   UNL     1       0.114  -4.386  -1.325  0.00  0.00    +0.136 C 
ENDBRANCH   5   8
BRANCH   4  16
ATOM     16  C   UNL     1       2.926  -0.520  -2.296  0.00  0.00    +0.020 C 
BRANCH  16  17
ATOM     17  C   UNL     1       4.342  -0.005  -2.233  0.00  0.00    +0.204 C 
ATOM     18  O   UNL     1       4.679   0.734  -1.333  0.00  0.00    -0.277 OA
ATOM     19  N   UNL     1       5.233  -0.368  -3.177  0.00  0.00    -0.242 N 
ATOM     20  C   UNL     1       6.498   0.092  -3.121  0.00  0.00    +0.306 C 
ATOM     21  O   UNL     1       6.836   0.833  -2.219  0.00  0.00    -0.252 OA
ATOM     22  N   UNL     1       7.389  -0.270  -4.065  0.00  0.00    -0.291 N 
ATOM     23  H   UNL     1       4.963  -0.959  -3.897  0.00  0.00    +0.159 HD
ATOM     24  H   UNL     1       7.120  -0.862  -4.785  0.00  0.00    +0.151 HD
BRANCH  22  25
ATOM     25  C   UNL     1       8.765   0.230  -4.004  0.00  0.00    +0.219 C 
BRANCH  25  26
ATOM     26  C   UNL     1       9.563  -0.328  -5.184  0.00  0.00    +0.405 C 
ATOM     27  F   UNL     1       8.970   0.082  -6.384  0.00  0.00    -0.169 F 
ATOM     28  F   UNL     1      10.877   0.149  -5.126  0.00  0.00    -0.169 F 
ATOM     29  F   UNL     1       9.571  -1.726  -5.123  0.00  0.00    -0.169 F 
ENDBRANCH  25  26
ENDBRANCH  22  25
ENDBRANCH  16  17
ENDBRANCH   4  16
TORSDOF 5
