REMARK  Name = ZINC37929254
REMARK  4 active torsions:
REMARK  status: ('A' for Active; 'I' for Inactive)
REMARK    1  A    between atoms: C_3  and  N_20
REMARK    2  A    between atoms: C_4  and  S_8
REMARK    3  A    between atoms: S_8  and  N_11
REMARK    4  A    between atoms: C_15  and  C_17
REMARK                            x       y       z     vdW  Elec       q    Type
REMARK                         _______ _______ _______ _____ _____    ______ ____
ROOT
ATOM      1  S   UNL     1       3.902  -0.745  -0.115  0.00  0.00    +0.063 S 
ATOM      2  O   UNL     1       4.581  -0.274   1.041  0.00  0.00    -0.153 OA
ATOM      3  O   UNL     1       3.646  -2.125  -0.339  0.00  0.00    -0.153 OA
ENDROOT
BRANCH   1   7
ATOM      4  C   UNL     1      -0.117   1.348  -0.201  0.00  0.00    +0.017 A 
ATOM      5  C   UNL     1       1.033   2.080   0.024  0.00  0.00    +0.026 A 
ATOM      6  C   UNL     1       2.266   1.442   0.051  0.00  0.00    +0.051 A 
ATOM      7  C   UNL     1       2.340   0.069  -0.148  0.00  0.00    +0.127 A 
ATOM      8  C   UNL     1       1.187  -0.657  -0.373  0.00  0.00    +0.045 A 
ATOM      9  C   UNL     1      -0.041  -0.019  -0.400  0.00  0.00    +0.020 A 
ATOM     10 BR   UNL     1      -1.617  -1.017  -0.709  0.00  0.00    -0.050 Br
BRANCH   6  11
ATOM     11  N   UNL     1       3.431   2.179   0.279  0.00  0.00    -0.356 N 
ATOM     12  H   UNL     1       3.392   3.147   0.322  0.00  0.00    +0.142 HD
ATOM     13  H   UNL     1       4.279   1.722   0.393  0.00  0.00    +0.142 HD
ENDBRANCH   6  11
ENDBRANCH   1   7
BRANCH   1  14
ATOM     14  N   UNL     1       4.763  -0.206  -1.423  0.00  0.00    -0.165 NA
ATOM     15  C   UNL     1       4.644  -0.718  -2.800  0.00  0.00    +0.110 C 
ATOM     16  C   UNL     1       5.128   0.447  -3.699  0.00  0.00    +0.019 C 
ATOM     17  C   UNL     1       6.284   1.038  -2.848  0.00  0.00    +0.031 C 
ATOM     18  C   UNL     1       5.768   0.867  -1.404  0.00  0.00    +0.165 C 
BRANCH  18  19
ATOM     19  C   UNL     1       6.909   0.484  -0.497  0.00  0.00    +0.229 C 
ATOM     20  O   UNL     1       6.892  -0.582   0.082  0.00  0.00    -0.274 OA
ATOM     21  N   UNL     1       7.948   1.326  -0.329  0.00  0.00    -0.328 N 
ATOM     22  H   UNL     1       7.962   2.178  -0.792  0.00  0.00    +0.145 HD
ATOM     23  H   UNL     1       8.683   1.079   0.254  0.00  0.00    +0.145 HD
ENDBRANCH  18  19
ENDBRANCH   1  14
TORSDOF 4
