REMARK  Name = ZINC60476969
REMARK  8 active torsions:
REMARK  status: ('A' for Active; 'I' for Inactive)
REMARK    1  A    between atoms: C_1  and  C_2
REMARK    2  A    between atoms: C_5  and  S_8
REMARK    3  A    between atoms: S_8  and  N_11
REMARK    4  A    between atoms: N_11  and  C_12
REMARK    5  A    between atoms: N_11  and  C_13
REMARK    6  A    between atoms: C_13  and  C_14
REMARK    7  A    between atoms: N_16  and  N_17
REMARK    8  A    between atoms: N_20  and  C_21
REMARK                            x       y       z     vdW  Elec       q    Type
REMARK                         _______ _______ _______ _____ _____    ______ ____
ROOT
ATOM      1  C   UNL     1       3.107  -3.950  -1.668  0.00  0.00    +0.245 C 
ATOM      2  O   UNL     1       3.058  -2.981  -0.940  0.00  0.00    -0.273 OA
ATOM      3  N   UNL     1       3.817  -3.899  -2.812  0.00  0.00    -0.232 N 
ATOM      4  H   UNL     1       3.856  -4.674  -3.394  0.00  0.00    +0.173 HD
ENDROOT
BRANCH   3   5
ATOM      5  N   UNL     1       4.500  -2.726  -3.161  0.00  0.00    -0.218 N 
ATOM      6  C   UNL     1       5.211  -2.675  -4.305  0.00  0.00    +0.320 C 
ATOM      7  O   UNL     1       5.803  -1.658  -4.607  0.00  0.00    -0.251 OA
ATOM      8  N   UNL     1       5.264  -3.752  -5.113  0.00  0.00    -0.268 N 
ATOM      9  H   UNL     1       4.461  -1.951  -2.579  0.00  0.00    +0.174 HD
ATOM     10  H   UNL     1       4.848  -4.585  -4.840  0.00  0.00    +0.156 HD
BRANCH   8  11
ATOM     11  C   UNL     1       5.920  -3.669  -6.346  0.00  0.00    +0.035 A 
ATOM     12  C   UNL     1       5.432  -4.368  -7.443  0.00  0.00    +0.023 A 
ATOM     13  C   UNL     1       6.082  -4.284  -8.659  0.00  0.00    +0.002 A 
ATOM     14  C   UNL     1       7.217  -3.504  -8.785  0.00  0.00    +0.000 A 
ATOM     15  C   UNL     1       7.706  -2.807  -7.696  0.00  0.00    +0.002 A 
ATOM     16  C   UNL     1       7.058  -2.883  -6.478  0.00  0.00    +0.023 A 
ENDBRANCH   8  11
ENDBRANCH   3   5
BRANCH   1  17
ATOM     17  C   UNL     1       2.372  -5.211  -1.292  0.00  0.00    +0.206 C 
BRANCH  17  18
ATOM     18  N   UNL     1       1.682  -5.013  -0.016  0.00  0.00    -0.171 NA
ATOM     19  C   UNL     1       2.398  -5.222   1.245  0.00  0.00    +0.132 C 
BRANCH  18  20
ATOM     20  S   UNL     1       0.091  -4.552   0.003  0.00  0.00    +0.061 S 
ATOM     21  O   UNL     1      -0.439  -4.973   1.252  0.00  0.00    -0.153 OA
ATOM     22  O   UNL     1      -0.465  -4.962  -1.238  0.00  0.00    -0.153 OA
BRANCH  20  27
ATOM     23  C   UNL     1      -0.020   1.481   0.031  0.00  0.00    +0.044 C 
ATOM     24  C   UNL     1       0.008  -0.026   0.024  0.00  0.00    -0.050 A 
ATOM     25  C   UNL     1       0.009  -0.712  -1.177  0.00  0.00    +0.005 A 
ATOM     26  C   UNL     1       0.035  -2.094  -1.183  0.00  0.00    +0.029 A 
ATOM     27  C   UNL     1       0.060  -2.790   0.011  0.00  0.00    +0.105 A 
ATOM     28  C   UNL     1       0.059  -2.104   1.211  0.00  0.00    +0.029 A 
ATOM     29  C   UNL     1       0.038  -0.722   1.218  0.00  0.00    +0.005 A 
ENDBRANCH  20  27
ENDBRANCH  18  20
ENDBRANCH  17  18
ENDBRANCH   1  17
TORSDOF 6
