REMARK  Name = ZINC36892919
REMARK  7 active torsions:
REMARK  status: ('A' for Active; 'I' for Inactive)
REMARK    1  A    between atoms: C_1  and  C_2
REMARK    2  A    between atoms: C_7  and  C_9
REMARK    3  A    between atoms: C_7  and  C_10
REMARK    4  A    between atoms: N_13  and  C_17
REMARK    5  A    between atoms: C_17  and  C_18
REMARK    6  A    between atoms: N_20  and  N_21
REMARK    7  A    between atoms: C_22  and  C_24
REMARK                            x       y       z     vdW  Elec       q    Type
REMARK                         _______ _______ _______ _____ _____    ______ ____
ROOT
ATOM      1  C   UNL     1      -2.293  -3.324  -4.361  0.00  0.00    +0.247 C 
ATOM      2  O   UNL     1      -1.950  -2.184  -4.591  0.00  0.00    -0.273 OA
ATOM      3  N   UNL     1      -3.319  -3.870  -5.043  0.00  0.00    -0.233 N 
ATOM      4  H   UNL     1      -3.593  -4.782  -4.859  0.00  0.00    +0.173 HD
ENDROOT
BRANCH   3   5
ATOM      5  N   UNL     1      -3.990  -3.119  -6.018  0.00  0.00    -0.234 N 
ATOM      6  C   UNL     1      -5.017  -3.665  -6.700  0.00  0.00    +0.235 C 
ATOM      7  O   UNL     1      -5.359  -4.806  -6.470  0.00  0.00    -0.274 OA
ATOM      8  H   UNL     1      -3.716  -2.207  -6.202  0.00  0.00    +0.173 HD
BRANCH   6   9
ATOM      9  C   UNL     1      -5.739  -2.858  -7.748  0.00  0.00    +0.049 C 
ATOM     10  C   UNL     1      -4.751  -2.439  -8.839  0.00  0.00    +0.019 C 
ATOM     11  C   UNL     1      -5.484  -1.620  -9.903  0.00  0.00    -0.009 C 
ATOM     12  C   UNL     1      -6.598  -2.467 -10.521  0.00  0.00    +0.007 C 
ATOM     13  C   UNL     1      -7.586  -2.886  -9.430  0.00  0.00    -0.009 C 
ATOM     14  C   UNL     1      -6.853  -3.706  -8.366  0.00  0.00    +0.019 C 
ATOM     15  C   UNL     1      -8.192  -1.639  -8.785  0.00  0.00    +0.007 C 
ATOM     16  C   UNL     1      -7.078  -0.791  -8.167  0.00  0.00    -0.009 C 
ATOM     17  C   UNL     1      -6.091  -0.372  -9.258  0.00  0.00    +0.007 C 
ATOM     18  C   UNL     1      -6.345  -1.611  -7.103  0.00  0.00    +0.019 C 
ENDBRANCH   6   9
ENDBRANCH   3   5
BRANCH   1  19
ATOM     19  C   UNL     1      -1.571  -4.131  -3.313  0.00  0.00    +0.215 C 
BRANCH  19  31
ATOM     20  C   UNL     1      -0.019   1.528   0.010  0.00  0.00    +0.007 C 
ATOM     21  C   UNL     1       0.002  -0.004   0.002  0.00  0.00    -0.011 C 
ATOM     22  C   UNL     1       0.726  -0.492  -1.255  0.00  0.00    +0.038 C 
ATOM     23  C   UNL     1       0.711  -2.014  -1.298  0.00  0.00    +0.113 C 
ATOM     24  C   UNL     1       1.264  -2.646  -0.036  0.00  0.00    +0.041 C 
ATOM     25  C   UNL     1       0.787  -2.030   1.268  0.00  0.00    -0.032 C 
ATOM     26  C   UNL     1       0.764  -0.507   1.226  0.00  0.00    +0.009 C 
ATOM     27  C   UNL     1      -0.596  -2.567   1.647  0.00  0.00    +0.011 C 
ATOM     28  C   UNL     1       1.769  -2.455   2.382  0.00  0.00    +0.011 C 
ATOM     29  C   UNL     1      -0.665  -2.529  -1.638  0.00  0.00    +0.247 C 
ATOM     30  O   UNL     1      -1.716  -2.282  -1.086  0.00  0.00    -0.273 OA
ATOM     31  N   UNL     1      -0.504  -3.320  -2.721  0.00  0.00    -0.215 N 
ATOM     32  C   UNL     1       0.750  -3.268  -3.183  0.00  0.00    +0.310 C 
ATOM     33  O   UNL     1       1.137  -3.883  -4.158  0.00  0.00    -0.252 OA
ATOM     34  N   UNL     1       1.532  -2.462  -2.446  0.00  0.00    -0.285 N 
ATOM     35  H   UNL     1       2.452  -2.214  -2.618  0.00  0.00    +0.151 HD
ENDBRANCH  19  31
ENDBRANCH   1  19
TORSDOF 4
