REMARK  Name = ZINC61142767
REMARK  9 active torsions:
REMARK  status: ('A' for Active; 'I' for Inactive)
REMARK    1  A    between atoms: C_1  and  C_2
REMARK    2  A    between atoms: C_2  and  C_3
REMARK    3  A    between atoms: C_2  and  N_14
REMARK    4  A    between atoms: C_9  and  O_12
REMARK    5  A    between atoms: O_12  and  C_13
REMARK    6  A    between atoms: N_17  and  C_18
REMARK    7  A    between atoms: C_18  and  C_19
REMARK    8  A    between atoms: C_19  and  C_20
REMARK    9  A    between atoms: C_19  and  N_25
REMARK                            x       y       z     vdW  Elec       q    Type
REMARK                         _______ _______ _______ _____ _____    ______ ____
ROOT
ATOM      1  N   UNL     1       0.647  -0.497  -1.257  0.00  0.00    -0.290 N 
ATOM      2  C   UNL     1       1.980  -0.694  -1.218  0.00  0.00    +0.300 C 
ATOM      3  O   UNL     1       2.587  -0.544  -0.175  0.00  0.00    -0.253 OA
ATOM      4  N   UNL     1       2.640  -1.056  -2.336  0.00  0.00    -0.301 N 
ATOM      5  H   UNL     1       0.163  -0.616  -2.089  0.00  0.00    +0.151 HD
ATOM      6  H   UNL     1       2.156  -1.175  -3.168  0.00  0.00    +0.150 HD
ENDROOT
BRANCH   1   8
ATOM      7  C   UNL     1       0.001   1.416   0.123  0.00  0.00    +0.036 C 
ATOM      8  C   UNL     1      -0.071  -0.103  -0.042  0.00  0.00    +0.137 C 
BRANCH   8   9
ATOM      9  C   UNL     1      -1.512  -0.530  -0.150  0.00  0.00    +0.126 A 
ATOM     10  C   UNL     1      -2.239  -1.038   0.855  0.00  0.00    +0.055 A 
ATOM     11  C   UNL     1      -3.571  -1.307   0.300  0.00  0.00    +0.024 A 
ATOM     12  C   UNL     1      -4.757  -1.827   0.821  0.00  0.00    +0.012 A 
ATOM     13  C   UNL     1      -5.855  -1.952   0.016  0.00  0.00    +0.004 A 
ATOM     14  C   UNL     1      -5.800  -1.566  -1.315  0.00  0.00    +0.049 A 
ATOM     15  C   UNL     1      -4.634  -1.048  -1.850  0.00  0.00    +0.163 A 
ATOM     16  C   UNL     1      -3.505  -0.913  -1.045  0.00  0.00    +0.177 A 
ATOM     17  O   UNL     1      -2.257  -0.450  -1.266  0.00  0.00    -0.454 OA
BRANCH  15  18
ATOM     18  O   UNL     1      -4.590  -0.673  -3.156  0.00  0.00    -0.491 OA
ATOM     19  C   UNL     1      -5.787  -0.840  -3.920  0.00  0.00    +0.277 C 
ENDBRANCH  15  18
ENDBRANCH   8   9
ENDBRANCH   1   8
BRANCH   4  20
ATOM     20  C   UNL     1       4.089  -1.269  -2.294  0.00  0.00    +0.098 C 
BRANCH  20  21
ATOM     21  C   UNL     1       4.571  -1.769  -3.658  0.00  0.00    +0.016 C 
BRANCH  21  22
ATOM     22  N   UNL     1       5.997  -2.110  -3.579  0.00  0.00    +0.387 N 
ATOM     23  C   UNL     1       6.205  -3.226  -2.621  0.00  0.00    -0.078 C 
ATOM     24  C   UNL     1       7.568  -3.819  -3.058  0.00  0.00    -0.020 C 
ATOM     25  C   UNL     1       7.515  -3.706  -4.599  0.00  0.00    -0.020 C 
ATOM     26  C   UNL     1       6.476  -2.606  -4.887  0.00  0.00    -0.078 C 
ATOM     27  H   UNL     1       6.533  -1.303  -3.295  0.00  0.00    -0.081 HD
ENDBRANCH  21  22
BRANCH  21  28
ATOM     28  C   UNL     1       4.368  -0.689  -4.689  0.00  0.00    +0.093 A 
ATOM     29  C   UNL     1       3.349  -0.618  -5.564  0.00  0.00    +0.043 A 
ATOM     30  C   UNL     1       3.554   0.548  -6.337  0.00  0.00    +0.041 A 
ATOM     31  C   UNL     1       4.686   1.119  -5.888  0.00  0.00    +0.195 A 
ATOM     32  O   UNL     1       5.172   0.369  -4.886  0.00  0.00    -0.469 OA
ENDBRANCH  21  28
ENDBRANCH  20  21
ENDBRANCH   4  20
TORSDOF 7
