REMARK  Name = ZINC20717355
REMARK  2 active torsions:
REMARK  status: ('A' for Active; 'I' for Inactive)
REMARK    1  A    between atoms: C_4  and  C_8
REMARK    2  A    between atoms: C_17  and  O_20
REMARK                            x       y       z     vdW  Elec       q    Type
REMARK                         _______ _______ _______ _____ _____    ______ ____
ROOT
ATOM      1  C   UNL     1       3.711  -0.711  -0.037  0.00  0.00    +0.115 C 
ATOM      2  C   UNL     1       4.161  -0.865  -1.459  0.00  0.00    +0.033 A 
ATOM      3  C   UNL     1       3.286  -0.882  -2.503  0.00  0.00    +0.112 A 
ATOM      4  N   UNL     1       3.989  -1.044  -3.639  0.00  0.00    -0.282 N 
ATOM      5  H   UNL     1       3.621  -1.094  -4.535  0.00  0.00    +0.188 HD
ATOM      6  N   UNL     1       5.340  -1.129  -3.301  0.00  0.00    -0.154 NA
ATOM      7  C   UNL     1       5.454  -1.015  -1.976  0.00  0.00    +0.182 A 
ATOM      8  N   UNL     1       6.663  -1.044  -1.372  0.00  0.00    -0.195 NA
ATOM      9  C   UNL     1       7.088  -0.966  -0.199  0.00  0.00    +0.199 C 
ATOM     10  C   UNL     1       6.351  -0.857   1.076  0.00  0.00    +0.165 C 
ATOM     11  S   UNL     1       4.894   0.192   0.968  0.00  0.00    -0.138 S 
ENDROOT
BRANCH   1  15
ATOM     12  C   UNL     1      -0.017   1.379   0.010  0.00  0.00    +0.018 A 
ATOM     13  C   UNL     1       1.171   2.086   0.002  0.00  0.00    +0.040 A 
ATOM     14  C   UNL     1       2.379   1.411  -0.013  0.00  0.00    +0.128 A 
ATOM     15  C   UNL     1       2.397   0.026  -0.021  0.00  0.00    +0.006 A 
ATOM     16  C   UNL     1       1.209  -0.680  -0.013  0.00  0.00    +0.023 A 
ATOM     17  C   UNL     1       0.002  -0.004   0.002  0.00  0.00    +0.018 A 
ATOM     18 BR   UNL     1      -1.623  -0.971   0.013  0.00  0.00    -0.050 Br
ATOM     19  F   UNL     1       3.539   2.102  -0.021  0.00  0.00    -0.205 F 
ENDBRANCH   1  15
BRANCH   9  20
ATOM     20  O   UNL     1       8.431  -0.985  -0.078  0.00  0.00    -0.495 OA
ATOM     21  H   UNL     1       8.901  -1.057  -0.920  0.00  0.00    +0.293 HD
ENDBRANCH   9  20
TORSDOF 2
