REMARK  Name = ZINC43218919
REMARK  5 active torsions:
REMARK  status: ('A' for Active; 'I' for Inactive)
REMARK    1  A    between atoms: C_4  and  C_7
REMARK    2  A    between atoms: C_7  and  C_33
REMARK    3  A    between atoms: C_12  and  C_15
REMARK    4  A    between atoms: C_20  and  O_21
REMARK    5  A    between atoms: N_24  and  C_27
REMARK                            x       y       z     vdW  Elec       q    Type
REMARK                         _______ _______ _______ _____ _____    ______ ____
ROOT
ATOM      1  C   UNL     1       3.647  -0.853   0.096  0.00  0.00    +0.074 C 
ATOM      2  C   UNL     1       3.758  -2.183   0.870  0.00  0.00    +0.090 C 
ATOM      3  C   UNL     1       5.197  -2.186   1.453  0.00  0.00    +0.077 C 
ATOM      4  C   UNL     1       5.825  -0.864   0.963  0.00  0.00    -0.023 C 
ATOM      5  N   UNL     1       4.659   0.035   0.724  0.00  0.00    +0.398 N 
ATOM      6  C   UNL     1       4.968  -2.121   2.946  0.00  0.00    +0.225 C 
ATOM      7  O   UNL     1       5.840  -2.102   3.788  0.00  0.00    -0.275 OA
ATOM      8  N   UNL     1       3.654  -2.087   3.193  0.00  0.00    -0.239 N 
ATOM      9  C   UNL     1       2.869  -2.123   2.092  0.00  0.00    +0.225 C 
ATOM     10  O   UNL     1       1.657  -2.108   2.076  0.00  0.00    -0.275 OA
ATOM     11  H   UNL     1       4.916   0.779   0.094  0.00  0.00    -0.083 HD
ATOM     12  H   UNL     1       4.307   0.411   1.592  0.00  0.00    -0.083 HD
ENDROOT
BRANCH   1  16
ATOM     13  C   UNL     1      -0.265   0.804   0.533  0.00  0.00    +0.000 A 
ATOM     14  C   UNL     1       0.828   1.465   1.061  0.00  0.00    +0.000 A 
ATOM     15  C   UNL     1       2.094   0.928   0.920  0.00  0.00    +0.003 A 
ATOM     16  C   UNL     1       2.267  -0.269   0.251  0.00  0.00    -0.047 A 
ATOM     17  C   UNL     1       1.173  -0.930  -0.276  0.00  0.00    +0.003 A 
ATOM     18  C   UNL     1      -0.093  -0.393  -0.136  0.00  0.00    +0.000 A 
ENDBRANCH   1  16
BRANCH   4  19
ATOM     19  C   UNL     1       6.713  -0.278   2.030  0.00  0.00    -0.019 A 
ATOM     20  C   UNL     1       6.239   0.729   2.849  0.00  0.00    +0.005 A 
ATOM     21  C   UNL     1       7.054   1.267   3.827  0.00  0.00    +0.000 A 
ATOM     22  C   UNL     1       8.345   0.800   3.989  0.00  0.00    +0.004 A 
ATOM     23  C   UNL     1       8.824  -0.207   3.173  0.00  0.00    +0.045 A 
ATOM     24  C   UNL     1       8.007  -0.752   2.194  0.00  0.00    +0.118 A 
BRANCH  24  25
ATOM     25  O   UNL     1       8.474  -1.747   1.394  0.00  0.00    -0.507 OA
ATOM     26  H   UNL     1       8.903  -1.433   0.586  0.00  0.00    +0.292 HD
ENDBRANCH  24  25
ENDBRANCH   4  19
BRANCH   8  27
ATOM     27  C   UNL     1       3.104  -2.022   4.550  0.00  0.00    +0.084 C 
ATOM     28  C   UNL     1       3.603  -0.753   5.243  0.00  0.00    +0.023 C 
ATOM     29  C   UNL     1       3.029  -0.685   6.659  0.00  0.00    +0.002 C 
ATOM     30  C   UNL     1       3.484  -1.912   7.453  0.00  0.00    +0.000 C 
ATOM     31  C   UNL     1       2.984  -3.182   6.760  0.00  0.00    +0.002 C 
ATOM     32  C   UNL     1       3.558  -3.249   5.343  0.00  0.00    +0.023 C 
ENDBRANCH   8  27
BRANCH   1  33
ATOM     33  C   UNL     1       3.967  -1.063  -1.362  0.00  0.00    +0.350 C 
ATOM     34  O   UNL     1       4.915  -0.486  -1.868  0.00  0.00    -0.248 OA
ATOM     35  O   UNL     1       3.278  -1.810  -2.036  0.00  0.00    -0.248 OA
ENDBRANCH   1  33
TORSDOF 5
