REMARK  Name = ZINC61881551
REMARK  4 active torsions:
REMARK  status: ('A' for Active; 'I' for Inactive)
REMARK    1  A    between atoms: C_1  and  C_2
REMARK    2  A    between atoms: N_7  and  S_8
REMARK    3  A    between atoms: S_8  and  C_11
REMARK    4  A    between atoms: C_15  and  N_18
REMARK                            x       y       z     vdW  Elec       q    Type
REMARK                         _______ _______ _______ _____ _____    ______ ____
ROOT
ATOM      1  S   UNL     1       0.075  -4.553   1.809  0.00  0.00    +0.102 S 
ATOM      2  O   UNL     1      -1.169  -4.864   1.196  0.00  0.00    -0.146 OA
ATOM      3  O   UNL     1       1.321  -4.829   1.185  0.00  0.00    -0.146 OA
ENDROOT
BRANCH   1  10
ATOM      4  C   UNL     1      -0.018   1.503   0.010  0.00  0.00    +0.064 C 
ATOM      5  C   UNL     1       0.002  -0.004   0.002  0.00  0.00    +0.022 A 
ATOM      6  C   UNL     1       0.006  -0.662  -1.157  0.00  0.00    +0.069 A 
ATOM      7  S   UNL     1       0.032  -2.365  -0.622  0.00  0.00    -0.057 S 
ATOM      8  C   UNL     1       0.036  -2.068   1.139  0.00  0.00    +0.192 A 
ATOM      9  N   UNL     1       0.023  -0.690   1.181  0.00  0.00    -0.336 N 
ATOM     10  N   UNL     1       0.053  -2.928   2.127  0.00  0.00    -0.103 NA
ATOM     11  H   UNL     1       0.024  -0.220   2.029  0.00  0.00    +0.168 HD
ENDBRANCH   1  10
BRANCH   1  12
ATOM     12  C   UNL     1       0.094  -5.388   3.361  0.00  0.00    +0.130 A 
ATOM     13  C   UNL     1      -0.977  -6.181   3.732  0.00  0.00    +0.050 A 
ATOM     14  C   UNL     1      -0.966  -6.838   4.950  0.00  0.00    +0.045 A 
ATOM     15  C   UNL     1       0.117  -6.703   5.800  0.00  0.00    +0.044 A 
ATOM     16  C   UNL     1       1.193  -5.908   5.430  0.00  0.00    +0.042 A 
ATOM     17  C   UNL     1       1.181  -5.253   4.204  0.00  0.00    +0.065 A 
ATOM     18 BR   UNL     1       2.647  -4.175   3.692  0.00  0.00    -0.046 Br
ATOM     19 CL   UNL     1      -2.312  -7.832   5.411  0.00  0.00    -0.083 Cl
BRANCH  16  20
ATOM     20  N   UNL     1       2.288  -5.769   6.286  0.00  0.00    -0.357 N 
ATOM     21  H   UNL     1       2.297  -6.229   7.141  0.00  0.00    +0.142 HD
ATOM     22  H   UNL     1       3.039  -5.214   6.027  0.00  0.00    +0.142 HD
ENDBRANCH  16  20
ENDBRANCH   1  12
TORSDOF 3
