REMARK  Name = ZINC40385019
REMARK  4 active torsions:
REMARK  status: ('A' for Active; 'I' for Inactive)
REMARK    1  A    between atoms: C_5  and  S_7
REMARK    2  A    between atoms: S_7  and  N_10
REMARK    3  A    between atoms: C_14  and  S_17
REMARK    4  A    between atoms: S_17  and  N_20
REMARK                            x       y       z     vdW  Elec       q    Type
REMARK                         _______ _______ _______ _____ _____    ______ ____
ROOT
ATOM      1  N   UNL     1       1.252  -2.941   1.556  0.00  0.00    -0.175 NA
ATOM      2  C   UNL     1       2.525  -3.144   2.259  0.00  0.00    +0.109 C 
ATOM      3  C   UNL     1       2.508  -2.330   3.556  0.00  0.00    +0.019 C 
ATOM      4  C   UNL     1       1.271  -2.708   4.374  0.00  0.00    +0.030 C 
ATOM      5  C   UNL     1       0.008  -2.373   3.577  0.00  0.00    +0.163 C 
ATOM      6  C   UNL     1      -0.003  -3.182   2.282  0.00  0.00    +0.137 C 
ENDROOT
BRANCH   1   7
ATOM      7  S   UNL     1       1.230  -2.442  -0.024  0.00  0.00    +0.061 S 
ATOM      8  O   UNL     1      -0.015  -2.860  -0.565  0.00  0.00    -0.153 OA
ATOM      9  O   UNL     1       2.475  -2.829  -0.589  0.00  0.00    -0.153 OA
BRANCH   7  14
ATOM     10  C   UNL     1      -0.017   1.378   0.010  0.00  0.00    +0.005 A 
ATOM     11  C   UNL     1       1.171   2.086   0.002  0.00  0.00    +0.038 A 
ATOM     12  C   UNL     1       2.379   1.410  -0.013  0.00  0.00    +0.125 A 
ATOM     13  C   UNL     1       2.396   0.025  -0.021  0.00  0.00    +0.066 A 
ATOM     14  C   UNL     1       1.208  -0.680  -0.013  0.00  0.00    +0.108 A 
ATOM     15  C   UNL     1       0.002  -0.004   0.002  0.00  0.00    +0.029 A 
ATOM     16  F   UNL     1       3.540   2.101  -0.021  0.00  0.00    -0.205 F 
ENDBRANCH   7  14
ENDBRANCH   1   7
BRANCH   5  17
ATOM     17  S   UNL     1      -1.458  -2.784   4.563  0.00  0.00    +0.031 S 
ATOM     18  O   UNL     1      -2.632  -2.316   3.914  0.00  0.00    -0.158 OA
ATOM     19  O   UNL     1      -1.373  -4.123   5.031  0.00  0.00    -0.158 OA
BRANCH  17  20
ATOM     20  N   UNL     1      -1.329  -1.851   5.926  0.00  0.00    -0.208 NA
ATOM     21  H   UNL     1      -2.129  -1.551   6.385  0.00  0.00    +0.144 HD
ATOM     22  H   UNL     1      -0.454  -1.606   6.265  0.00  0.00    +0.144 HD
ENDBRANCH  17  20
ENDBRANCH   5  17
TORSDOF 4
