REMARK  Name = ZINC35636091
REMARK  7 active torsions:
REMARK  status: ('A' for Active; 'I' for Inactive)
REMARK    1  A    between atoms: C_1  and  C_2
REMARK    2  A    between atoms: N_4  and  C_5
REMARK    3  A    between atoms: C_7  and  O_28
REMARK    4  A    between atoms: C_15  and  C_18
REMARK    5  A    between atoms: C_25  and  O_27
REMARK    6  A    between atoms: O_28  and  C_29
REMARK    7  A    between atoms: C_29  and  C_31
REMARK                            x       y       z     vdW  Elec       q    Type
REMARK                         _______ _______ _______ _____ _____    ______ ____
ROOT
ATOM      1  C   UNL     1       0.020  -2.136  -1.177  0.00  0.00    +0.172 C 
ATOM      2  C   UNL     1      -0.592  -2.650  -2.483  0.00  0.00    +0.233 C 
ATOM      3  C   UNL     1       0.263  -2.173  -3.662  0.00  0.00    +0.195 C 
ATOM      4  C   UNL     1       1.712  -2.624  -3.450  0.00  0.00    +0.179 C 
ATOM      5  C   UNL     1       1.763  -4.154  -3.461  0.00  0.00    +0.197 C 
ATOM      6  O   UNL     1       1.168  -4.629  -4.673  0.00  0.00    -0.345 OA
ATOM      7  C   UNL     1      -0.182  -4.198  -4.861  0.00  0.00    +0.282 C 
ATOM      8  O   UNL     1      -0.245  -2.752  -4.869  0.00  0.00    -0.338 OA
ATOM      9  O   UNL     1       2.193  -2.136  -2.199  0.00  0.00    -0.341 OA
ATOM     10  C   UNL     1       1.466  -2.630  -1.072  0.00  0.00    +0.272 C 
ENDROOT
BRANCH   7  11
ATOM     11  C   UNL     1      -0.699  -4.723  -6.176  0.00  0.00    +0.008 A 
ATOM     12  C   UNL     1      -1.118  -3.842  -7.155  0.00  0.00    +0.008 A 
ATOM     13  C   UNL     1      -1.591  -4.324  -8.361  0.00  0.00    +0.000 A 
ATOM     14  C   UNL     1      -1.645  -5.686  -8.588  0.00  0.00    +0.000 A 
ATOM     15  C   UNL     1      -1.226  -6.567  -7.609  0.00  0.00    +0.000 A 
ATOM     16  C   UNL     1      -0.748  -6.085  -6.404  0.00  0.00    +0.008 A 
ENDBRANCH   7  11
BRANCH   1  20
ATOM     17  C   UNL     1      -0.018   1.503   0.010  0.00  0.00    +0.109 C 
ATOM     18  C   UNL     1       0.002  -0.004   0.002  0.00  0.00    +0.210 C 
ATOM     19  O   UNL     1       0.020  -0.616   1.049  0.00  0.00    -0.276 OA
ATOM     20  N   UNL     1       0.000  -0.672  -1.169  0.00  0.00    -0.304 N 
ATOM     21  H   UNL     1      -0.015  -0.182  -2.006  0.00  0.00    +0.149 HD
ENDBRANCH   1  20
BRANCH  10  22
ATOM     22  O   UNL     1       2.059  -2.116   0.122  0.00  0.00    -0.365 OA
ATOM     23  H   UNL     1       2.978  -2.389   0.254  0.00  0.00    +0.213 HD
ENDBRANCH  10  22
BRANCH   2  24
ATOM     24  O   UNL     1      -1.921  -2.142  -2.620  0.00  0.00    -0.453 OA
BRANCH  24  25
ATOM     25  C   UNL     1      -2.916  -2.886  -2.101  0.00  0.00    +0.340 C 
ATOM     26  O   UNL     1      -2.663  -3.938  -1.548  0.00  0.00    -0.245 OA
BRANCH  25  27
ATOM     27  C   UNL     1      -4.315  -2.424  -2.205  0.00  0.00    +0.059 A 
ATOM     28  C   UNL     1      -4.610  -1.219  -2.846  0.00  0.00    +0.015 A 
ATOM     29  C   UNL     1      -5.919  -0.794  -2.939  0.00  0.00    +0.001 A 
ATOM     30  C   UNL     1      -6.939  -1.558  -2.400  0.00  0.00    +0.000 A 
ATOM     31  C   UNL     1      -6.653  -2.753  -1.763  0.00  0.00    +0.001 A 
ATOM     32  C   UNL     1      -5.350  -3.193  -1.668  0.00  0.00    +0.015 A 
ENDBRANCH  25  27
ENDBRANCH  24  25
ENDBRANCH   2  24
TORSDOF 6
