REMARK  Name = ZINC40346629
REMARK  4 active torsions:
REMARK  status: ('A' for Active; 'I' for Inactive)
REMARK    1  A    between atoms: C_3  and  C_6
REMARK    2  A    between atoms: N_11  and  S_12
REMARK    3  A    between atoms: S_12  and  C_15
REMARK    4  A    between atoms: C_20  and  N_21
REMARK                            x       y       z     vdW  Elec       q    Type
REMARK                         _______ _______ _______ _____ _____    ______ ____
ROOT
ATOM      1  S   UNL     1       4.296   1.125   2.402  0.00  0.00    +0.063 S 
ATOM      2  O   UNL     1       2.911   1.264   2.691  0.00  0.00    -0.153 OA
ATOM      3  O   UNL     1       5.027  -0.051   2.723  0.00  0.00    -0.153 OA
ENDROOT
BRANCH   1   4
ATOM      4  C   UNL     1       5.114   2.462   3.207  0.00  0.00    +0.127 A 
ATOM      5  C   UNL     1       4.383   3.389   3.924  0.00  0.00    +0.050 A 
ATOM      6  C   UNL     1       5.025   4.439   4.556  0.00  0.00    +0.043 A 
ATOM      7  C   UNL     1       6.401   4.564   4.472  0.00  0.00    +0.022 A 
ATOM      8  C   UNL     1       7.137   3.640   3.756  0.00  0.00    +0.026 A 
ATOM      9  C   UNL     1       6.495   2.581   3.126  0.00  0.00    +0.051 A 
ATOM     10 CL   UNL     1       4.103   5.602   5.457  0.00  0.00    -0.083 Cl
BRANCH   9  11
ATOM     11  N   UNL     1       7.238   1.642   2.406  0.00  0.00    -0.356 N 
ATOM     12  H   UNL     1       6.811   0.835   2.076  0.00  0.00    +0.142 HD
ATOM     13  H   UNL     1       8.181   1.796   2.235  0.00  0.00    +0.142 HD
ENDBRANCH   9  11
ENDBRANCH   1   4
BRANCH   1  18
ATOM     14  C   UNL     1       3.618   2.222  -0.063  0.00  0.00    +0.116 C 
ATOM     15  C   UNL     1       4.165   2.150  -1.505  0.00  0.00    +0.027 C 
ATOM     16  C   UNL     1       5.632   1.691  -1.298  0.00  0.00    +0.019 C 
ATOM     17  C   UNL     1       5.490   0.732  -0.089  0.00  0.00    +0.110 C 
ATOM     18  N   UNL     1       4.465   1.357   0.772  0.00  0.00    -0.169 NA
BRANCH  14  21
ATOM     19  C   UNL     1      -0.160   1.771   0.124  0.00  0.00    +0.008 A 
ATOM     20  C   UNL     1       1.050   2.440   0.125  0.00  0.00    +0.013 A 
ATOM     21  C   UNL     1       2.194   1.731  -0.030  0.00  0.00    +0.009 A 
ATOM     22  S   UNL     1       1.576   0.063  -0.184  0.00  0.00    -0.100 S 
ATOM     23  C   UNL     1      -0.166   0.425  -0.032  0.00  0.00    +0.045 A 
ENDBRANCH  14  21
ENDBRANCH   1  18
TORSDOF 4
