REMARK  Name = ZINC40481806
REMARK  6 active torsions:
REMARK  status: ('A' for Active; 'I' for Inactive)
REMARK    1  A    between atoms: C_1  and  C_2
REMARK    2  A    between atoms: C_2  and  C_4
REMARK    3  A    between atoms: C_2  and  N_18
REMARK    4  A    between atoms: C_4  and  C_5
REMARK    5  A    between atoms: N_7  and  C_8
REMARK    6  A    between atoms: C_8  and  C_15
REMARK                            x       y       z     vdW  Elec       q    Type
REMARK                         _______ _______ _______ _____ _____    ______ ____
ROOT
ATOM      1  C   UNL     1      -1.416  -2.035  -0.119  0.00  0.00    +0.212 C 
ATOM      2  O   UNL     1      -0.359  -2.623  -0.213  0.00  0.00    -0.276 OA
ATOM      3  N   UNL     1      -2.574  -2.724  -0.133  0.00  0.00    -0.300 N 
ATOM      4  H   UNL     1      -3.419  -2.253  -0.058  0.00  0.00    +0.150 HD
ENDROOT
BRANCH   3   5
ATOM      5  C   UNL     1      -2.558  -4.183  -0.262  0.00  0.00    +0.136 C 
ATOM      6  C   UNL     1      -1.711  -4.775   0.884  0.00  0.00    +0.037 C 
ATOM      7  C   UNL     1      -2.021  -4.019   2.147  0.00  0.00    +0.003 C 
ATOM      8  C   UNL     1      -3.117  -4.699   2.989  0.00  0.00    +0.000 C 
ATOM      9  C   UNL     1      -4.279  -5.239   2.132  0.00  0.00    +0.000 C 
ATOM     10  C   UNL     1      -4.680  -4.285   1.040  0.00  0.00    +0.003 C 
ATOM     11  C   UNL     1      -3.928  -4.673  -0.250  0.00  0.00    +0.037 C 
BRANCH   5  12
ATOM     12  C   UNL     1      -1.919  -4.549  -1.577  0.00  0.00    +0.379 C 
ATOM     13  O   UNL     1      -1.521  -3.673  -2.326  0.00  0.00    -0.244 OA
ATOM     14  O   UNL     1      -1.801  -5.721  -1.892  0.00  0.00    -0.244 OA
ENDBRANCH   5  12
ENDBRANCH   3   5
BRANCH   1  15
ATOM     15  C   UNL     1      -1.433  -0.534   0.013  0.00  0.00    +0.079 C 
BRANCH  15  17
ATOM     16  C   UNL     1      -0.019   1.526   0.010  0.00  0.00    -0.014 C 
ATOM     17  C   UNL     1       0.002  -0.004   0.002  0.00  0.00    -0.070 C 
BRANCH  17  18
ATOM     18  N   UNL     1       0.713  -0.491   1.192  0.00  0.00    +0.380 N 
ATOM     19  H   UNL     1       0.240  -0.165   2.022  0.00  0.00    -0.090 HD
ATOM     20  H   UNL     1       0.726  -1.500   1.187  0.00  0.00    -0.090 HD
ATOM     21  H   UNL     1       1.659  -0.141   1.185  0.00  0.00    -0.090 HD
ENDBRANCH  17  18
ENDBRANCH  15  17
ENDBRANCH   1  15
TORSDOF 5
