REMARK  Name = ZINC62382943
REMARK  10 active torsions:
REMARK  status: ('A' for Active; 'I' for Inactive)
REMARK    1  A    between atoms: C_1  and  C_2
REMARK    2  A    between atoms: C_5  and  C_24
REMARK    3  A    between atoms: N_8  and  C_10
REMARK    4  A    between atoms: C_10  and  C_11
REMARK    5  A    between atoms: C_12  and  O_23
REMARK    6  A    between atoms: C_16  and  C_21
REMARK    7  A    between atoms: N_17  and  C_18
REMARK    8  A    between atoms: C_18  and  C_19
REMARK    9  A    between atoms: C_19  and  O_20
REMARK   10  A    between atoms: C_21  and  O_22
REMARK                            x       y       z     vdW  Elec       q    Type
REMARK                         _______ _______ _______ _____ _____    ______ ____
ROOT
ATOM      1  C   UNL     1       2.741  -2.164   2.158  0.00  0.00    +0.048 A 
ATOM      2  C   UNL     1       3.136  -1.001   2.729  0.00  0.00    +0.181 A 
ATOM      3  C   UNL     1       4.498  -0.617   2.644  0.00  0.00    +0.223 A 
ATOM      4  O   UNL     1       4.884   0.427   3.150  0.00  0.00    -0.284 OA
ATOM      5  C   UNL     1       5.400  -1.465   1.964  0.00  0.00    +0.078 A 
ATOM      6  C   UNL     1       4.944  -2.613   1.415  0.00  0.00    +0.048 A 
ATOM      7  N   UNL     1       3.638  -2.958   1.515  0.00  0.00    -0.342 N 
ENDROOT
BRANCH   2   8
ATOM      8  O   UNL     1       2.236  -0.211   3.375  0.00  0.00    -0.502 OA
ATOM      9  H   UNL     1       2.617   0.596   3.748  0.00  0.00    +0.292 HD
ENDBRANCH   2   8
BRANCH   1  10
ATOM     10  C   UNL     1       1.297  -2.585   2.241  0.00  0.00    -0.021 C 
BRANCH  10  16
ATOM     11  C   UNL     1      -0.195   1.570   0.124  0.00  0.00    +0.005 C 
ATOM     12  C   UNL     1      -0.169   0.045   0.001  0.00  0.00    -0.031 C 
ATOM     13  C   UNL     1      -1.603  -0.486  -0.071  0.00  0.00    +0.003 C 
ATOM     14  C   UNL     1      -1.568  -2.017  -0.116  0.00  0.00    -0.031 C 
ATOM     15  C   UNL     1      -0.816  -2.541   1.110  0.00  0.00    -0.075 C 
ATOM     16  N   UNL     1       0.556  -2.018   1.106  0.00  0.00    +0.384 N 
ATOM     17  C   UNL     1       0.532  -0.555   1.221  0.00  0.00    -0.075 C 
ATOM     18  C   UNL     1      -2.998  -2.561  -0.110  0.00  0.00    +0.005 C 
ATOM     19  H   UNL     1       1.012  -2.279   0.245  0.00  0.00    -0.081 HD
ENDBRANCH  10  16
ENDBRANCH   1  10
BRANCH   7  20
ATOM     20  C   UNL     1       3.180  -4.213   0.913  0.00  0.00    +0.149 C 
BRANCH  20  21
ATOM     21  C   UNL     1       2.758  -3.960  -0.535  0.00  0.00    +0.177 C 
BRANCH  21  22
ATOM     22  O   UNL     1       3.903  -3.592  -1.307  0.00  0.00    -0.393 OA
ATOM     23  H   UNL     1       3.710  -3.416  -2.238  0.00  0.00    +0.209 HD
ENDBRANCH  21  22
ENDBRANCH  20  21
ENDBRANCH   7  20
BRANCH   6  24
ATOM     24  C   UNL     1       5.900  -3.523   0.688  0.00  0.00    +0.209 C 
BRANCH  24  25
ATOM     25  O   UNL     1       7.212  -2.956   0.717  0.00  0.00    -0.389 OA
ATOM     26  H   UNL     1       7.881  -3.490   0.267  0.00  0.00    +0.210 HD
ENDBRANCH  24  25
ENDBRANCH   6  24
TORSDOF 8
