REMARK  Name = ZINC50636238
REMARK  4 active torsions:
REMARK  status: ('A' for Active; 'I' for Inactive)
REMARK    1  A    between atoms: C_4  and  N_7
REMARK    2  A    between atoms: N_7  and  S_8
REMARK    3  A    between atoms: S_8  and  C_11
REMARK    4  A    between atoms: C_12  and  N_20
REMARK                            x       y       z     vdW  Elec       q    Type
REMARK                         _______ _______ _______ _____ _____    ______ ____
ROOT
ATOM      1  C   UNL     1       5.335  -2.801  -0.065  0.00  0.00    +0.223 A 
ATOM      2  C   UNL     1       6.100  -3.016  -1.165  0.00  0.00    +0.140 A 
ATOM      3  N   UNL     1       7.324  -3.379  -0.767  0.00  0.00    -0.327 N 
ATOM      4  C   UNL     1       7.363  -3.401   0.560  0.00  0.00    +0.118 A 
ATOM      5  N   UNL     1       6.128  -3.036   1.029  0.00  0.00    -0.283 N 
ATOM      6  C   UNL     1       5.890  -2.969   2.370  0.00  0.00    +0.094 A 
ATOM      7  C   UNL     1       6.867  -3.258   3.257  0.00  0.00    +0.018 A 
ATOM      8  C   UNL     1       8.143  -3.631   2.807  0.00  0.00    +0.005 A 
ATOM      9  C   UNL     1       8.391  -3.709   1.471  0.00  0.00    +0.045 A 
ATOM     10  H   UNL     1       8.066  -3.591  -1.354  0.00  0.00    +0.169 HD
ENDROOT
BRANCH   1  11
ATOM     11  S   UNL     1       3.644  -2.305  -0.045  0.00  0.00    +0.111 S 
ATOM     12  O   UNL     1       3.112  -2.726   1.203  0.00  0.00    -0.147 OA
ATOM     13  O   UNL     1       3.087  -2.713  -1.288  0.00  0.00    -0.147 OA
BRANCH  11  14
ATOM     14  N   UNL     1       3.620  -0.649  -0.036  0.00  0.00    -0.096 NA
BRANCH  14  18
ATOM     15  C   UNL     1      -0.017   1.379   0.010  0.00  0.00    +0.000 A 
ATOM     16  C   UNL     1       1.169   2.089   0.002  0.00  0.00    +0.002 A 
ATOM     17  C   UNL     1       2.377   1.420  -0.013  0.00  0.00    +0.027 A 
ATOM     18  C   UNL     1       2.400   0.031  -0.021  0.00  0.00    +0.074 A 
ATOM     19  C   UNL     1       1.206  -0.680  -0.013  0.00  0.00    +0.027 A 
ATOM     20  C   UNL     1       0.002  -0.004   0.002  0.00  0.00    +0.002 A 
ENDBRANCH  14  18
ENDBRANCH  11  14
ENDBRANCH   1  11
BRANCH   2  21
ATOM     21  N   UNL     1       5.678  -2.882  -2.494  0.00  0.00    -0.342 N 
ATOM     22  H   UNL     1       4.767  -2.614  -2.689  0.00  0.00    +0.144 HD
ATOM     23  H   UNL     1       6.298  -3.058  -3.220  0.00  0.00    +0.144 HD
ENDBRANCH   2  21
TORSDOF 4
