REMARK  Name = ZINC23079082
REMARK  4 active torsions:
REMARK  status: ('A' for Active; 'I' for Inactive)
REMARK    1  A    between atoms: C_4  and  C_7
REMARK    2  A    between atoms: N_9  and  C_10
REMARK    3  A    between atoms: C_10  and  C_11
REMARK    4  A    between atoms: C_16  and  C_19
REMARK                            x       y       z     vdW  Elec       q    Type
REMARK                         _______ _______ _______ _____ _____    ______ ____
ROOT
ATOM      1  C   UNL     1       1.025  -2.204  -0.020  0.00  0.00    +0.233 C 
ATOM      2  O   UNL     1      -0.113  -2.624  -0.011  0.00  0.00    -0.274 OA
ATOM      3  N   UNL     1       2.062  -3.066  -0.034  0.00  0.00    -0.300 N 
ATOM      4  C   UNL     1       3.445  -2.573  -0.051  0.00  0.00    +0.108 C 
ATOM      5  C   UNL     1       4.187  -3.212  -1.224  0.00  0.00    +0.032 C 
ATOM      6  C   UNL     1       4.063  -4.734  -1.134  0.00  0.00    +0.078 C 
ATOM      7  C   UNL     1       2.588  -5.134  -1.218  0.00  0.00    +0.032 C 
ATOM      8  C   UNL     1       1.829  -4.517  -0.040  0.00  0.00    +0.108 C 
ENDROOT
BRANCH   6   9
ATOM      9  C   UNL     1       4.821  -5.367  -2.273  0.00  0.00    +0.214 C 
ATOM     10  O   UNL     1       4.238  -6.069  -3.073  0.00  0.00    -0.276 OA
ATOM     11  N   UNL     1       6.145  -5.154  -2.403  0.00  0.00    -0.329 N 
ATOM     12  H   UNL     1       6.698  -5.616  -3.234  0.00  0.00    +0.145 HD
ATOM     13  H   UNL     1       6.673  -4.518  -1.677  0.00  0.00    +0.145 HD
ENDBRANCH   6   9
BRANCH   1  14
ATOM     14  C   UNL     1       1.281  -0.719  -0.014  0.00  0.00    +0.200 C 
BRANCH  14  17
ATOM     15  C   UNL     1      -0.016   1.344   0.009  0.00  0.00    +0.217 C 
ATOM     16  O   UNL     1       1.026   1.964   0.003  0.00  0.00    -0.276 OA
ATOM     17  N   UNL     1       0.002  -0.004   0.002  0.00  0.00    -0.306 N 
ATOM     18  H   UNL     1      -0.943  -0.567   0.008  0.00  0.00    +0.149 HD
BRANCH  15  22
ATOM     19  C   UNL     1      -3.211   3.960  -1.210  0.00  0.00    +0.000 C 
ATOM     20  C   UNL     1      -2.408   4.334   0.037  0.00  0.00    +0.001 C 
ATOM     21  C   UNL     1      -1.072   3.587   0.027  0.00  0.00    +0.013 C 
ATOM     22  C   UNL     1      -1.331   2.079   0.020  0.00  0.00    +0.075 C 
ATOM     23  C   UNL     1      -2.135   1.706  -1.228  0.00  0.00    +0.013 C 
ATOM     24  C   UNL     1      -3.470   2.452  -1.217  0.00  0.00    +0.001 C 
ENDBRANCH  15  22
ENDBRANCH  14  17
ENDBRANCH   1  14
TORSDOF 4
