REMARK  Name = ZINC19810598
REMARK  3 active torsions:
REMARK  status: ('A' for Active; 'I' for Inactive)
REMARK    1  A    between atoms: C_3  and  C_9
REMARK    2  A    between atoms: C_9  and  N_10
REMARK    3  A    between atoms: C_12  and  N_15
REMARK                            x       y       z     vdW  Elec       q    Type
REMARK                         _______ _______ _______ _____ _____    ______ ____
ROOT
ATOM      1  C   UNL     1      -1.569   4.335   0.038  0.00  0.00    +0.179 C 
ENDROOT
BRANCH   1   4
ATOM      2  C   UNL     1      -3.128   4.812  -3.366  0.00  0.00    +0.039 A 
ATOM      3  C   UNL     1      -2.248   4.897  -2.304  0.00  0.00    +0.009 A 
ATOM      4  C   UNL     1      -2.532   4.247  -1.117  0.00  0.00    -0.012 A 
ATOM      5  C   UNL     1      -3.703   3.521  -0.988  0.00  0.00    +0.026 A 
ATOM      6  C   UNL     1      -4.587   3.440  -2.048  0.00  0.00    +0.054 A 
ATOM      7  C   UNL     1      -4.300   4.086  -3.239  0.00  0.00    +0.124 A 
ATOM      8  F   UNL     1      -5.164   4.008  -4.275  0.00  0.00    -0.205 F 
ATOM      9 BR   UNL     1      -4.093   2.639   0.639  0.00  0.00    -0.050 Br
ENDBRANCH   1   4
BRANCH   1  10
ATOM     10  N   UNL     1      -0.682   3.169   0.024  0.00  0.00    -0.265 N 
ATOM     11  C   UNL     1       0.677   3.197   0.012  0.00  0.00    +0.131 A 
ATOM     12  C   UNL     1       1.113   1.912   0.002  0.00  0.00    +0.063 A 
ATOM     13  C   UNL     1      -0.013   1.076   0.008  0.00  0.00    +0.157 A 
ATOM     14  N   UNL     1      -1.084   1.827   0.017  0.00  0.00    -0.177 NA
BRANCH  12  15
ATOM     15  N   UNL     1       2.457   1.492  -0.013  0.00  0.00    -0.356 N 
ATOM     16  H   UNL     1       2.698   0.419  -0.020  0.00  0.00    +0.142 HD
ATOM     17  H   UNL     1       3.266   2.238  -0.017  0.00  0.00    +0.142 HD
ENDBRANCH  12  15
ENDBRANCH   1  10
TORSDOF 3
