REMARK  Name = ZINC29486852
REMARK  2 active torsions:
REMARK  status: ('A' for Active; 'I' for Inactive)
REMARK    1  A    between atoms: C_5  and  N_7
REMARK    2  A    between atoms: C_8  and  C_10
REMARK                            x       y       z     vdW  Elec       q    Type
REMARK                         _______ _______ _______ _____ _____    ______ ____
ROOT
ATOM      1  N   UNL     1       1.237  -2.079  -0.022  0.00  0.00    -0.279 N 
ATOM      2  C   UNL     1       0.087  -2.772   0.087  0.00  0.00    +0.265 C 
ATOM      3  O   UNL     1      -0.979  -2.184   0.102  0.00  0.00    -0.268 OA
ATOM      4  H   UNL     1       2.080  -2.550  -0.115  0.00  0.00    +0.155 HD
ENDROOT
BRANCH   1   9
ATOM      5  C   UNL     1       0.154   1.371   0.637  0.00  0.00    +0.002 A 
ATOM      6  C   UNL     1       1.173   2.086   0.035  0.00  0.00    +0.001 A 
ATOM      7  C   UNL     1       2.214   1.421  -0.587  0.00  0.00    +0.016 A 
ATOM      8  C   UNL     1       2.238   0.040  -0.608  0.00  0.00    +0.035 A 
ATOM      9  C   UNL     1       1.216  -0.681  -0.003  0.00  0.00    +0.047 A 
ATOM     10  C   UNL     1       0.172  -0.009   0.621  0.00  0.00    +0.024 A 
ATOM     11  I   UNL     1       3.815  -0.967  -1.551  0.00  0.00    -0.042 I 
ENDBRANCH   1   9
BRANCH   2  12
ATOM     12  C   UNL     1       0.118  -4.235   0.188  0.00  0.00    +0.103 A 
ATOM     13  C   UNL     1      -0.975  -5.068   0.299  0.00  0.00    +0.047 A 
ATOM     14  C   UNL     1      -0.488  -6.378   0.367  0.00  0.00    +0.036 A 
ATOM     15  C   UNL     1       0.864  -6.323   0.299  0.00  0.00    +0.098 A 
ATOM     16  N   UNL     1       1.245  -5.026   0.185  0.00  0.00    -0.356 N 
ATOM     17  H   UNL     1       2.159  -4.709   0.114  0.00  0.00    +0.165 HD
ATOM     18 BR   UNL     1      -1.532  -7.946   0.527  0.00  0.00    -0.049 Br
ENDBRANCH   2  12
TORSDOF 2
