REMARK  Name = ZINC44963157
REMARK  6 active torsions:
REMARK  status: ('A' for Active; 'I' for Inactive)
REMARK    1  A    between atoms: C_1  and  C_2
REMARK    2  A    between atoms: C_2  and  C_4
REMARK    3  A    between atoms: C_4  and  O_33
REMARK    4  A    between atoms: C_9  and  C_32
REMARK    5  A    between atoms: C_11  and  C_25
REMARK    6  A    between atoms: C_28  and  N_31
REMARK                            x       y       z     vdW  Elec       q    Type
REMARK                         _______ _______ _______ _____ _____    ______ ____
ROOT
ATOM      1  C   UNL     1      -1.112  -0.276   1.866  0.00  0.00    +0.129 C 
ATOM      2  C   UNL     1      -1.359   0.512   0.556  0.00  0.00    +0.043 C 
ATOM      3  C   UNL     1      -1.473  -0.544  -0.575  0.00  0.00    +0.008 C 
ATOM      4  C   UNL     1      -1.898  -1.813   0.176  0.00  0.00    +0.005 C 
ATOM      5  C   UNL     1      -1.013  -1.741   1.448  0.00  0.00    +0.008 C 
ATOM      6  C   UNL     1      -1.572  -2.746   2.440  0.00  0.00    +0.022 C 
ATOM      7  C   UNL     1      -1.317  -4.146   1.863  0.00  0.00    +0.046 C 
ATOM      8  C   UNL     1      -1.819  -4.243   0.436  0.00  0.00    -0.055 C 
ATOM      9  C   UNL     1      -2.477  -5.348   0.090  0.00  0.00    -0.044 C 
ATOM     10  C   UNL     1      -2.716  -6.449   1.097  0.00  0.00    +0.043 C 
ATOM     11  C   UNL     1      -4.154  -6.952   0.937  0.00  0.00    +0.083 C 
ATOM     12  C   UNL     1      -4.432  -7.270  -0.507  0.00  0.00    +0.157 C 
ATOM     13  O   UNL     1      -5.146  -8.213  -0.783  0.00  0.00    -0.293 OA
ATOM     14  C   UNL     1      -3.880  -6.497  -1.544  0.00  0.00    +0.050 C 
ATOM     15  C   UNL     1      -2.965  -5.542  -1.276  0.00  0.00    -0.041 C 
ATOM     16  C   UNL     1      -2.407  -4.649  -2.356  0.00  0.00    +0.036 C 
ATOM     17  C   UNL     1      -2.382  -3.221  -1.812  0.00  0.00    +0.013 C 
ATOM     18  C   UNL     1      -1.586  -3.117  -0.547  0.00  0.00    +0.020 C 
ATOM     19  C   UNL     1       0.436  -2.087   1.097  0.00  0.00    +0.015 C 
ENDROOT
BRANCH   7  20
ATOM     20  C   UNL     1       0.163  -4.429   1.886  0.00  0.00    -0.040 A 
ATOM     21  C   UNL     1       0.916  -4.073   2.990  0.00  0.00    +0.006 A 
ATOM     22  C   UNL     1       2.273  -4.331   3.014  0.00  0.00    +0.023 A 
ATOM     23  C   UNL     1       2.881  -4.949   1.929  0.00  0.00    +0.025 A 
ATOM     24  C   UNL     1       2.121  -5.305   0.822  0.00  0.00    +0.023 A 
ATOM     25  C   UNL     1       0.764  -5.049   0.806  0.00  0.00    +0.006 A 
BRANCH  23  26
ATOM     26  N   UNL     1       4.253  -5.210   1.950  0.00  0.00    -0.358 N 
ATOM     27  H   UNL     1       4.782  -4.961   2.724  0.00  0.00    +0.142 HD
ATOM     28  H   UNL     1       4.676  -5.642   1.192  0.00  0.00    +0.142 HD
ENDBRANCH  23  26
ENDBRANCH   7  20
BRANCH   1  30
ATOM     29  C   UNL     1       0.406  -0.064   3.979  0.00  0.00    +0.089 C 
ATOM     30  C   UNL     1       0.175   0.172   2.508  0.00  0.00    +0.162 C 
ATOM     31  O   UNL     1       1.023   0.720   1.845  0.00  0.00    -0.295 OA
ENDBRANCH   1  30
BRANCH   1  32
ATOM     32  O   UNL     1      -2.204  -0.092   2.769  0.00  0.00    -0.381 OA
ATOM     33  H   UNL     1      -2.329   0.824   3.054  0.00  0.00    +0.211 HD
ENDBRANCH   1  32
TORSDOF 4
