REMARK  Name = ZINC54698948
REMARK  11 active torsions:
REMARK  status: ('A' for Active; 'I' for Inactive)
REMARK    1  A    between atoms: C_1  and  C_2
REMARK    2  A    between atoms: C_2  and  C_3
REMARK    3  A    between atoms: C_2  and  C_4
REMARK    4  A    between atoms: C_4  and  C_5
REMARK    5  A    between atoms: C_7  and  C_11
REMARK    6  A    between atoms: N_8  and  C_10
REMARK    7  A    between atoms: C_11  and  C_13
REMARK    8  A    between atoms: C_11  and  N_22
REMARK    9  A    between atoms: C_13  and  C_14
REMARK   10  A    between atoms: C_17  and  O_21
REMARK   11  A    between atoms: C_18  and  O_20
REMARK                            x       y       z     vdW  Elec       q    Type
REMARK                         _______ _______ _______ _____ _____    ______ ____
ROOT
ATOM      1  C   UNL     1      -1.437  -5.093  -2.059  0.00  0.00    -0.002 C 
ENDROOT
BRANCH   1   4
ATOM      2  C   UNL     1      -1.416  -2.035  -0.119  0.00  0.00    +0.151 A 
ATOM      3  N   UNL     1      -1.445  -2.711  -1.267  0.00  0.00    -0.218 NA
ATOM      4  C   UNL     1      -1.418  -3.997  -1.025  0.00  0.00    +0.114 A 
ATOM      5  N   UNL     1      -1.371  -4.170   0.308  0.00  0.00    -0.254 N 
ATOM      6  N   UNL     1      -1.365  -2.884   0.873  0.00  0.00    -0.155 NA
ATOM      7  C   UNL     1      -1.328  -5.445   1.027  0.00  0.00    +0.174 C 
BRANCH   2   8
ATOM      8  C   UNL     1      -1.433  -0.534   0.013  0.00  0.00    +0.081 C 
BRANCH   8  10
ATOM      9  C   UNL     1      -0.019   1.526   0.010  0.00  0.00    +0.007 C 
ATOM     10  C   UNL     1       0.002  -0.004   0.002  0.00  0.00    -0.010 C 
ATOM     11  C   UNL     1       0.742  -0.511   1.242  0.00  0.00    +0.007 C 
ENDBRANCH   8  10
ENDBRANCH   2   8
ENDBRANCH   1   4
BRANCH   1  12
ATOM     12  N   UNL     1      -2.456  -4.790  -3.074  0.00  0.00    +0.385 N 
ATOM     13  H   UNL     1      -2.469  -5.524  -3.766  0.00  0.00    -0.089 HD
ATOM     14  H   UNL     1      -3.361  -4.728  -2.633  0.00  0.00    -0.089 HD
ATOM     15  H   UNL     1      -2.237  -3.912  -3.518  0.00  0.00    -0.089 HD
ENDBRANCH   1  12
BRANCH   1  16
ATOM     16  C   UNL     1      -0.064  -5.188  -2.727  0.00  0.00    +0.026 C 
BRANCH  16  17
ATOM     17  C   UNL     1      -0.045  -6.361  -3.672  0.00  0.00    -0.045 A 
ATOM     18  C   UNL     1       0.340  -7.608  -3.217  0.00  0.00    +0.007 A 
ATOM     19  C   UNL     1       0.359  -8.688  -4.080  0.00  0.00    +0.049 A 
ATOM     20  C   UNL     1      -0.010  -8.521  -5.405  0.00  0.00    +0.158 A 
ATOM     21  C   UNL     1      -0.399  -7.266  -5.864  0.00  0.00    +0.158 A 
ATOM     22  C   UNL     1      -0.420  -6.189  -4.992  0.00  0.00    +0.052 A 
BRANCH  21  23
ATOM     23  O   UNL     1      -0.761  -7.098  -7.164  0.00  0.00    -0.503 OA
ATOM     24  H   UNL     1      -1.705  -7.232  -7.329  0.00  0.00    +0.292 HD
ENDBRANCH  21  23
BRANCH  20  25
ATOM     25  O   UNL     1       0.008  -9.582  -6.256  0.00  0.00    -0.503 OA
ATOM     26  H   UNL     1      -0.825 -10.072  -6.292  0.00  0.00    +0.292 HD
ENDBRANCH  20  25
ENDBRANCH  16  17
ENDBRANCH   1  16
TORSDOF 8
