REMARK  Name = ZINC03129963
REMARK  4 active torsions:
REMARK  status: ('A' for Active; 'I' for Inactive)
REMARK    1  A    between atoms: C_10  and  N_11
REMARK    2  A    between atoms: N_14  and  N_15
REMARK    3  A    between atoms: C_16  and  C_18
REMARK    4  A    between atoms: C_23  and  O_24
REMARK                            x       y       z     vdW  Elec       q    Type
REMARK                         _______ _______ _______ _____ _____    ______ ____
ROOT
ATOM      1  N   UNL     1       0.086  -2.026   6.020  0.00  0.00    -0.268 N 
ATOM      2  C   UNL     1       0.063  -0.679   6.036  0.00  0.00    +0.320 C 
ATOM      3  O   UNL     1       0.068  -0.083   7.096  0.00  0.00    -0.251 OA
ATOM      4  N   UNL     1       0.033   0.008   4.877  0.00  0.00    -0.218 N 
ATOM      5  H   UNL     1       0.015  -2.503   5.178  0.00  0.00    +0.156 HD
ATOM      6  H   UNL     1       0.016   0.978   4.889  0.00  0.00    +0.174 HD
ENDROOT
BRANCH   1  16
ATOM      7  C   UNL     1       2.348  -6.331   7.372  0.00  0.00    +0.001 A 
ATOM      8  C   UNL     1       2.233  -5.639   6.168  0.00  0.00    +0.001 A 
ATOM      9  C   UNL     1       1.542  -4.468   6.097  0.00  0.00    +0.010 A 
ATOM     10  C   UNL     1       0.931  -3.950   7.250  0.00  0.00    +0.003 A 
ATOM     11  C   UNL     1       1.051  -4.651   8.475  0.00  0.00    -0.016 A 
ATOM     12  C   UNL     1       1.772  -5.858   8.511  0.00  0.00    +0.008 A 
ATOM     13  C   UNL     1       0.444  -4.132   9.631  0.00  0.00    +0.008 A 
ATOM     14  C   UNL     1      -0.248  -2.961   9.568  0.00  0.00    +0.002 A 
ATOM     15  C   UNL     1      -0.368  -2.261   8.372  0.00  0.00    +0.024 A 
ATOM     16  C   UNL     1       0.212  -2.736   7.216  0.00  0.00    +0.043 A 
ENDBRANCH   1  16
BRANCH   4  17
ATOM     17  N   UNL     1       0.027  -0.678   3.656  0.00  0.00    -0.229 N 
ATOM     18  C   UNL     1      -0.003   0.009   2.497  0.00  0.00    +0.264 C 
ATOM     19  O   UNL     1      -0.024   1.225   2.511  0.00  0.00    -0.269 OA
ATOM     20  H   UNL     1       0.043  -1.648   3.644  0.00  0.00    +0.173 HD
BRANCH  18  21
ATOM     21  C   UNL     1      -0.010  -0.714   1.211  0.00  0.00    +0.079 A 
ATOM     22  C   UNL     1       0.014  -2.110   1.190  0.00  0.00    +0.017 A 
ATOM     23  C   UNL     1       0.007  -2.779  -0.015  0.00  0.00    +0.001 A 
ATOM     24  C   UNL     1      -0.024  -2.073  -1.207  0.00  0.00    +0.004 A 
ATOM     25  C   UNL     1      -0.053  -0.693  -1.200  0.00  0.00    +0.046 A 
ATOM     26  C   UNL     1      -0.041  -0.003   0.003  0.00  0.00    +0.129 A 
BRANCH  26  27
ATOM     27  O   UNL     1      -0.064   1.353   0.011  0.00  0.00    -0.506 OA
ATOM     28  H   UNL     1       0.813   1.762  -0.000  0.00  0.00    +0.292 HD
ENDBRANCH  26  27
ENDBRANCH  18  21
ENDBRANCH   4  17
TORSDOF 4
