REMARK  Name = ZINC22078502
REMARK  3 active torsions:
REMARK  status: ('A' for Active; 'I' for Inactive)
REMARK    1  A    between atoms: C_4  and  C_7
REMARK    2  A    between atoms: C_10  and  N_13
REMARK    3  A    between atoms: C_22  and  C_24
REMARK                            x       y       z     vdW  Elec       q    Type
REMARK                         _______ _______ _______ _____ _____    ______ ____
ROOT
ATOM      1  N   UNL     1       2.868   7.272  -0.124  0.00  0.00    +0.381 N 
ATOM      2  C   UNL     1       1.597   6.542  -0.089  0.00  0.00    -0.097 C 
ATOM      3  C   UNL     1       0.418   7.497   0.155  0.00  0.00    -0.097 C 
ATOM      4  N   UNL     1       0.455   8.514  -0.887  0.00  0.00    +0.379 N 
ATOM      5  C   UNL     1      -0.598   9.539  -0.861  0.00  0.00    -0.079 C 
ATOM      6  C   UNL     1      -0.025  10.666  -1.762  0.00  0.00    -0.020 C 
ATOM      7  C   UNL     1       1.513  10.468  -1.718  0.00  0.00    -0.019 C 
ATOM      8  C   UNL     1       1.711   9.300  -0.749  0.00  0.00    -0.082 C 
ATOM      9  C   UNL     1       2.864   8.374  -1.107  0.00  0.00    -0.079 C 
ATOM     10  H   UNL     1       2.991   7.727   0.870  0.00  0.00    -0.081 HD
ATOM     11  H   UNL     1       0.328   7.912  -1.799  0.00  0.00    -0.082 HD
ENDROOT
BRANCH   1  15
ATOM     12  C   UNL     1       4.584   5.554   2.393  0.00  0.00    +0.019 C 
ATOM     13  C   UNL     1       4.941   6.948   1.875  0.00  0.00    +0.006 C 
ATOM     14  C   UNL     1       5.232   6.876   0.375  0.00  0.00    -0.015 C 
ATOM     15  C   UNL     1       3.994   6.359  -0.361  0.00  0.00    -0.068 C 
ATOM     16  C   UNL     1       3.637   4.965   0.158  0.00  0.00    -0.015 C 
ATOM     17  C   UNL     1       3.346   5.037   1.658  0.00  0.00    +0.006 C 
BRANCH  12  21
ATOM     18  C   UNL     1       3.768   5.753   6.582  0.00  0.00    +0.000 A 
ATOM     19  C   UNL     1       4.796   4.955   6.115  0.00  0.00    +0.000 A 
ATOM     20  C   UNL     1       5.059   4.889   4.759  0.00  0.00    +0.004 A 
ATOM     21  C   UNL     1       4.297   5.625   3.871  0.00  0.00    -0.044 A 
ATOM     22  C   UNL     1       3.273   6.427   4.338  0.00  0.00    +0.004 A 
ATOM     23  C   UNL     1       3.009   6.492   5.694  0.00  0.00    +0.000 A 
ENDBRANCH  12  21
ENDBRANCH   1  15
BRANCH   9  24
ATOM     24  C   UNL     1       4.187   9.139  -1.034  0.00  0.00    -0.026 C 
ATOM     25  C   UNL     1       4.317   9.805   0.337  0.00  0.00    +0.002 C 
ATOM     26  C   UNL     1       5.640  10.570   0.409  0.00  0.00    +0.000 C 
ATOM     27  C   UNL     1       5.670  11.641  -0.683  0.00  0.00    +0.000 C 
ATOM     28  C   UNL     1       5.540  10.975  -2.054  0.00  0.00    +0.000 C 
ATOM     29  C   UNL     1       4.217  10.210  -2.126  0.00  0.00    +0.002 C 
ENDBRANCH   9  24
TORSDOF 3
