REMARK  Name = ZINC41382921
REMARK  4 active torsions:
REMARK  status: ('A' for Active; 'I' for Inactive)
REMARK    1  A    between atoms: C_1  and  C_2
REMARK    2  A    between atoms: C_7  and  N_8
REMARK    3  A    between atoms: C_9  and  N_14
REMARK    4  A    between atoms: C_11  and  C_13
REMARK                            x       y       z     vdW  Elec       q    Type
REMARK                         _______ _______ _______ _____ _____    ______ ____
ROOT
ATOM      1  N   UNL     1       0.245  -0.016   2.410  0.00  0.00    -0.218 N 
ATOM      2  C   UNL     1      -0.351  -0.358   3.585  0.00  0.00    +0.120 A 
ATOM      3  C   UNL     1      -0.004   0.583   4.507  0.00  0.00    +0.068 A 
ATOM      4  C   UNL     1       0.822   1.517   3.877  0.00  0.00    +0.062 A 
ATOM      5  N   UNL     1       0.977   1.159   2.627  0.00  0.00    -0.170 NA
ATOM      6  C   UNL     1       1.437   2.730   4.527  0.00  0.00    +0.067 C 
ENDROOT
BRANCH   1  13
ATOM      7  C   UNL     1      -0.350   1.453   0.047  0.00  0.00    +0.046 C 
ATOM      8  C   UNL     1      -0.140  -0.039   0.025  0.00  0.00    -0.024 A 
ATOM      9  C   UNL     1      -0.229  -0.732  -1.167  0.00  0.00    +0.020 A 
ATOM     10  C   UNL     1      -0.037  -2.102  -1.188  0.00  0.00    +0.018 A 
ATOM     11  C   UNL     1       0.245  -2.781  -0.016  0.00  0.00    +0.017 A 
ATOM     12  C   UNL     1       0.336  -2.093   1.178  0.00  0.00    +0.029 A 
ATOM     13  C   UNL     1       0.148  -0.718   1.201  0.00  0.00    +0.070 A 
ATOM     14 BR   UNL     1      -0.160  -3.047  -2.821  0.00  0.00    -0.050 Br
ENDBRANCH   1  13
BRANCH   2  15
ATOM     15  N   UNL     1      -1.165  -1.465   3.805  0.00  0.00    -0.343 N 
ATOM     16  H   UNL     1      -1.303  -2.114   3.097  0.00  0.00    +0.144 HD
ATOM     17  H   UNL     1      -1.596  -1.587   4.665  0.00  0.00    +0.144 HD
ENDBRANCH   2  15
TORSDOF 2
