REMARK  Name = ZINC41067947
REMARK  6 active torsions:
REMARK  status: ('A' for Active; 'I' for Inactive)
REMARK    1  A    between atoms: C_1  and  C_2
REMARK    2  A    between atoms: C_2  and  C_3
REMARK    3  A    between atoms: C_7  and  C_20
REMARK    4  A    between atoms: N_10  and  S_11
REMARK    5  A    between atoms: S_11  and  C_14
REMARK    6  A    between atoms: C_16  and  N_19
REMARK                            x       y       z     vdW  Elec       q    Type
REMARK                         _______ _______ _______ _____ _____    ______ ____
ROOT
ATOM      1  S   UNL     1      -1.256   1.120  -2.294  0.00  0.00    +0.068 S 
ATOM      2  O   UNL     1      -2.124   0.876  -3.393  0.00  0.00    -0.152 OA
ATOM      3  O   UNL     1      -1.683   1.000  -0.944  0.00  0.00    -0.152 OA
ENDROOT
BRANCH   1   9
ATOM      4  C   UNL     1       0.990  -0.117  -1.377  0.00  0.00    +0.105 C 
ATOM      5  C   UNL     1       1.161  -1.626  -1.173  0.00  0.00    +0.180 C 
ATOM      6  O   UNL     1       1.485  -2.236  -2.425  0.00  0.00    -0.374 OA
ATOM      7  C   UNL     1       0.467  -2.105  -3.421  0.00  0.00    +0.131 C 
ATOM      8  C   UNL     1       0.260  -0.620  -3.739  0.00  0.00    +0.141 C 
ATOM      9  N   UNL     1       0.035   0.099  -2.475  0.00  0.00    -0.168 NA
ATOM     10  C   UNL     1       0.894  -2.846  -4.689  0.00  0.00    +0.039 C 
BRANCH   4  12
ATOM     11  C   UNL     1       1.491   0.380   1.020  0.00  0.00    +0.005 C 
ATOM     12  C   UNL     1       0.451   0.518  -0.093  0.00  0.00    +0.019 C 
ENDBRANCH   4  12
ENDBRANCH   1   9
BRANCH   1  13
ATOM     13  C   UNL     1      -0.651   2.764  -2.486  0.00  0.00    +0.144 A 
ATOM     14  C   UNL     1      -0.449   3.471  -3.625  0.00  0.00    +0.059 A 
ATOM     15  C   UNL     1       0.041   4.764  -3.534  0.00  0.00    +0.034 A 
ATOM     16  C   UNL     1       0.301   5.282  -2.305  0.00  0.00    +0.069 A 
ATOM     17  S   UNL     1      -0.155   3.932  -1.230  0.00  0.00    -0.075 S 
BRANCH  15  18
ATOM     18  N   UNL     1       0.264   5.528  -4.695  0.00  0.00    -0.358 N 
ATOM     19  H   UNL     1       0.076   5.150  -5.568  0.00  0.00    +0.142 HD
ATOM     20  H   UNL     1       0.607   6.433  -4.622  0.00  0.00    +0.142 HD
ENDBRANCH  15  18
ENDBRANCH   1  13
TORSDOF 4
