REMARK  Name = ZINC13756788
REMARK  2 active torsions:
REMARK  status: ('A' for Active; 'I' for Inactive)
REMARK    1  A    between atoms: C_2  and  N_10
REMARK    2  A    between atoms: C_5  and  N_8
REMARK                            x       y       z     vdW  Elec       q    Type
REMARK                         _______ _______ _______ _____ _____    ______ ____
ROOT
ATOM      1  C   UNL     1      -0.017   1.377   0.010  0.00  0.00    +0.041 A 
ATOM      2  C   UNL     1       1.176   2.088   0.002  0.00  0.00    +0.046 A 
ATOM      3  C   UNL     1       2.388   1.411  -0.013  0.00  0.00    +0.041 A 
ATOM      4  C   UNL     1       2.408   0.030  -0.021  0.00  0.00    +0.041 A 
ATOM      5  C   UNL     1       1.215  -0.682  -0.013  0.00  0.00    +0.053 A 
ATOM      6  C   UNL     1       0.002  -0.004   0.002  0.00  0.00    +0.041 A 
ATOM      7 BR   UNL     1      -1.622  -0.972   0.013  0.00  0.00    -0.048 Br
ATOM      8 BR   UNL     1       4.059  -0.892  -0.042  0.00  0.00    -0.048 Br
ENDROOT
BRANCH   2   9
ATOM      9  N   UNL     1       1.156   3.491   0.009  0.00  0.00    -0.210 N 
ATOM     10  C   UNL     1       0.010   4.220   0.029  0.00  0.00    +0.230 C 
ATOM     11  O   UNL     1      -1.109   3.810   0.252  0.00  0.00    -0.274 OA
ATOM     12  C   UNL     1       0.406   5.632  -0.278  0.00  0.00    +0.092 C 
ATOM     13  C   UNL     1      -0.357   6.754   0.394  0.00  0.00    +0.040 C 
ATOM     14  C   UNL     1       0.452   8.018   0.195  0.00  0.00    -0.030 C 
ATOM     15  C   UNL     1       1.709   8.040  -0.129  0.00  0.00    -0.030 C 
ATOM     16  C   UNL     1       2.562   6.805  -0.331  0.00  0.00    +0.040 C 
ATOM     17  C   UNL     1       1.846   5.649   0.321  0.00  0.00    +0.092 C 
ATOM     18  C   UNL     1       2.281   4.252   0.003  0.00  0.00    +0.230 C 
ATOM     19  O   UNL     1       3.413   3.876  -0.218  0.00  0.00    -0.274 OA
ENDBRANCH   2   9
BRANCH   5  20
ATOM     20  N   UNL     1       1.234  -2.081  -0.021  0.00  0.00    -0.356 N 
ATOM     21  H   UNL     1       2.081  -2.554  -0.032  0.00  0.00    +0.142 HD
ATOM     22  H   UNL     1       0.401  -2.578  -0.016  0.00  0.00    +0.142 HD
ENDBRANCH   5  20
TORSDOF 2
