REMARK  Name = ZINC43758703
REMARK  7 active torsions:
REMARK  status: ('A' for Active; 'I' for Inactive)
REMARK    1  A    between atoms: C_1  and  C_2
REMARK    2  A    between atoms: C_2  and  O_4
REMARK    3  A    between atoms: O_4  and  C_5
REMARK    4  A    between atoms: C_16  and  C_31
REMARK    5  A    between atoms: C_21  and  C_30
REMARK    6  A    between atoms: C_22  and  O_29
REMARK    7  A    between atoms: C_24  and  O_28
REMARK                            x       y       z     vdW  Elec       q    Type
REMARK                         _______ _______ _______ _____ _____    ______ ____
ROOT
ATOM      1  C   UNL     1      -0.701  -2.120  -1.197  0.00  0.00    +0.209 C 
ATOM      2  C   UNL     1       0.691  -2.592  -0.774  0.00  0.00    +0.051 C 
ATOM      3  C   UNL     1       1.729  -2.112  -1.792  0.00  0.00    +0.000 C 
ATOM      4  C   UNL     1       3.118  -2.574  -1.343  0.00  0.00    +0.006 C 
ATOM      5  C   UNL     1       3.539  -1.639  -0.170  0.00  0.00    +0.012 C 
ATOM      6  C   UNL     1       3.981  -0.343  -0.884  0.00  0.00    +0.075 C 
ATOM      7  C   UNL     1       4.371  -0.734  -2.298  0.00  0.00    +0.139 C 
ATOM      8  O   UNL     1       4.760   0.005  -3.170  0.00  0.00    -0.297 OA
ATOM      9  C   UNL     1       4.177  -2.244  -2.408  0.00  0.00    +0.029 C 
ATOM     10  C   UNL     1       3.787  -2.704  -3.794  0.00  0.00    +0.015 C 
ATOM     11  C   UNL     1       2.409  -2.172  -4.183  0.00  0.00    +0.005 C 
ATOM     12  C   UNL     1       1.400  -2.683  -3.169  0.00  0.00    +0.001 C 
ATOM     13  C   UNL     1       0.002  -2.230  -3.597  0.00  0.00    +0.003 C 
ATOM     14  C   UNL     1      -1.036  -2.696  -2.575  0.00  0.00    +0.111 C 
ATOM     15  C   UNL     1      -1.003  -4.224  -2.511  0.00  0.00    +0.070 C 
ATOM     16  C   UNL     1      -1.334  -4.799  -3.890  0.00  0.00    +0.117 C 
ATOM     17  C   UNL     1      -0.304  -4.306  -4.909  0.00  0.00    +0.032 C 
ATOM     18  C   UNL     1      -0.322  -2.815  -4.973  0.00  0.00    +0.012 C 
ATOM     19  C   UNL     1      -0.039  -0.702  -3.670  0.00  0.00    +0.014 C 
ATOM     20  C   UNL     1       5.488  -2.933  -2.024  0.00  0.00    +0.019 C 
ENDROOT
BRANCH  16  21
ATOM     21  O   UNL     1      -1.301  -6.226  -3.832  0.00  0.00    -0.392 OA
ATOM     22  H   UNL     1      -1.502  -6.659  -4.673  0.00  0.00    +0.210 HD
ENDBRANCH  16  21
BRANCH  14  23
ATOM     23  O   UNL     1      -2.340  -2.262  -2.968  0.00  0.00    -0.384 OA
ATOM     24  H   UNL     1      -3.044  -2.536  -2.366  0.00  0.00    +0.210 HD
ENDBRANCH  14  23
BRANCH   1  25
ATOM     25  O   UNL     1      -0.722  -0.693  -1.258  0.00  0.00    -0.459 OA
BRANCH  25  27
ATOM     26  C   UNL     1      -1.110   1.467  -0.127  0.00  0.00    +0.136 C 
ATOM     27  C   UNL     1      -1.065  -0.040  -0.137  0.00  0.00    +0.304 C 
ATOM     28  O   UNL     1      -1.339  -0.659   0.863  0.00  0.00    -0.251 OA
ENDBRANCH  25  27
ENDBRANCH   1  25
TORSDOF 4
