REMARK  Name = ZINC52282948
REMARK  6 active torsions:
REMARK  status: ('A' for Active; 'I' for Inactive)
REMARK    1  A    between atoms: C_6  and  S_7
REMARK    2  A    between atoms: S_7  and  N_10
REMARK    3  A    between atoms: N_13  and  C_14
REMARK    4  A    between atoms: C_14  and  C_15
REMARK    5  A    between atoms: N_17  and  C_18
REMARK    6  A    between atoms: C_18  and  C_19
REMARK                            x       y       z     vdW  Elec       q    Type
REMARK                         _______ _______ _______ _____ _____    ______ ____
ROOT
ATOM      1  C   UNL     1      -0.017   1.378   0.010  0.00  0.00    +0.030 A 
ATOM      2  C   UNL     1       1.165   2.089   0.002  0.00  0.00    +0.025 A 
ATOM      3  C   UNL     1       2.390   1.418  -0.013  0.00  0.00    +0.033 A 
ATOM      4  C   UNL     1       2.397   0.032  -0.021  0.00  0.00    -0.023 A 
ATOM      5  C   UNL     1       1.211  -0.675  -0.014  0.00  0.00    +0.034 A 
ATOM      6  C   UNL     1       0.002  -0.004   0.002  0.00  0.00    +0.105 A 
ATOM      7  C   UNL     1       3.834  -0.441  -0.036  0.00  0.00    +0.056 C 
ATOM      8  C   UNL     1       4.665   0.852  -0.037  0.00  0.00    +0.110 C 
ATOM      9  N   UNL     1       3.684   1.940  -0.022  0.00  0.00    -0.321 N 
ENDROOT
BRANCH   6  10
ATOM     10  S   UNL     1      -1.510  -0.908   0.012  0.00  0.00    +0.056 S 
ATOM     11  O   UNL     1      -1.215  -2.188   0.553  0.00  0.00    -0.153 OA
ATOM     12  O   UNL     1      -2.493  -0.050   0.576  0.00  0.00    -0.153 OA
BRANCH  10  13
ATOM     13  N   UNL     1      -1.946  -1.151  -1.568  0.00  0.00    -0.204 NA
ATOM     14  H   UNL     1      -2.452  -1.940  -1.815  0.00  0.00    +0.144 HD
ATOM     15  H   UNL     1      -1.694  -0.503  -2.245  0.00  0.00    +0.144 HD
ENDBRANCH  10  13
ENDBRANCH   6  10
BRANCH   9  16
ATOM     16  C   UNL     1       4.013   3.368  -0.018  0.00  0.00    +0.200 C 
BRANCH  16  17
ATOM     17  C   UNL     1       4.140   3.849   1.405  0.00  0.00    +0.231 C 
ATOM     18  O   UNL     1       3.972   3.076   2.324  0.00  0.00    -0.274 OA
ATOM     19  N   UNL     1       4.440   5.139   1.655  0.00  0.00    -0.309 N 
ATOM     20  H   UNL     1       4.575   5.757   0.920  0.00  0.00    +0.149 HD
BRANCH  19  21
ATOM     21  C   UNL     1       4.563   5.607   3.038  0.00  0.00    +0.146 C 
BRANCH  21  22
ATOM     22  C   UNL     1       4.902   7.076   3.043  0.00  0.00    +0.008 A 
ATOM     23  C   UNL     1       4.068   8.143   3.062  0.00  0.00    +0.014 A 
ATOM     24  C   UNL     1       4.608   9.416   3.063  0.00  0.00    +0.028 A 
ATOM     25  C   UNL     1       5.957   9.558   3.044  0.00  0.00    +0.078 A 
ATOM     26  S   UNL     1       6.506   7.859   3.032  0.00  0.00    -0.080 S 
ATOM     27 CL   UNL     1       6.904  11.013   3.039  0.00  0.00    -0.076 Cl
ENDBRANCH  21  22
ENDBRANCH  19  21
ENDBRANCH  16  17
ENDBRANCH   9  16
TORSDOF 6
