REMARK  Name = ZINC67364294
REMARK  6 active torsions:
REMARK  status: ('A' for Active; 'I' for Inactive)
REMARK    1  A    between atoms: C_1  and  C_2
REMARK    2  A    between atoms: C_4  and  C_26
REMARK    3  A    between atoms: C_7  and  C_12
REMARK    4  A    between atoms: C_18  and  C_21
REMARK    5  A    between atoms: C_21  and  N_22
REMARK    6  A    between atoms: C_23  and  C_25
REMARK                            x       y       z     vdW  Elec       q    Type
REMARK                         _______ _______ _______ _____ _____    ______ ____
ROOT
ATOM      1  C   UNL     1       0.088  -5.558   2.350  0.00  0.00    +0.263 C 
ATOM      2  O   UNL     1       0.093  -6.609   1.739  0.00  0.00    -0.268 OA
ATOM      3  N   UNL     1       0.196  -5.559   3.694  0.00  0.00    -0.296 N 
ATOM      4  C   UNL     1       0.179  -4.297   4.447  0.00  0.00    +0.108 C 
ATOM      5  C   UNL     1       1.421  -4.240   5.342  0.00  0.00    +0.019 C 
ATOM      6  C   UNL     1       1.471  -5.495   6.218  0.00  0.00    +0.008 C 
ATOM      7  C   UNL     1       1.574  -6.736   5.328  0.00  0.00    +0.024 C 
ATOM      8  C   UNL     1       0.328  -6.821   4.433  0.00  0.00    +0.113 C 
ENDROOT
BRANCH   1  15
ATOM      9  C   UNL     1      -1.228   1.353  -0.068  0.00  0.00    +0.044 C 
ATOM     10  C   UNL     1      -0.764  -0.080  -0.023  0.00  0.00    -0.048 A 
ATOM     11  C   UNL     1      -0.118  -0.628  -1.124  0.00  0.00    +0.007 A 
ATOM     12  C   UNL     1       0.311  -1.923  -1.105  0.00  0.00    -0.041 A 
ATOM     13  C   UNL     1       0.099  -2.711   0.035  0.00  0.00    +0.003 A 
ATOM     14  C   UNL     1       0.413  -4.051   0.363  0.00  0.00    +0.041 A 
ATOM     15  C   UNL     1      -0.036  -4.285   1.623  0.00  0.00    +0.103 A 
ATOM     16  N   UNL     1      -0.628  -3.138   2.113  0.00  0.00    -0.351 N 
ATOM     17  H   UNL     1      -1.028  -3.039   2.991  0.00  0.00    +0.166 HD
ATOM     18  C   UNL     1      -0.556  -2.157   1.152  0.00  0.00    +0.048 A 
ATOM     19  C   UNL     1      -0.979  -0.831   1.110  0.00  0.00    +0.029 A 
ATOM     20  C   UNL     1       1.010  -2.506  -2.306  0.00  0.00    +0.044 C 
ENDBRANCH   1  15
BRANCH   7  21
ATOM     21  C   UNL     1       1.658  -7.987   6.205  0.00  0.00    +0.109 C 
BRANCH  21  22
ATOM     22  N   UNL     1       1.876  -9.162   5.359  0.00  0.00    -0.315 N 
ATOM     23  C   UNL     1       1.983 -10.384   5.917  0.00  0.00    +0.210 C 
ATOM     24  O   UNL     1       1.899 -10.511   7.121  0.00  0.00    -0.276 OA
ATOM     25  C   UNL     1       2.207 -11.594   5.047  0.00  0.00    +0.109 C 
ATOM     26  H   UNL     1       1.943  -9.062   4.396  0.00  0.00    +0.149 HD
ENDBRANCH  21  22
ENDBRANCH   7  21
TORSDOF 3
