REMARK  Name = ZINC05945252
REMARK  2 active torsions:
REMARK  status: ('A' for Active; 'I' for Inactive)
REMARK    1  A    between atoms: C_3  and  C_6
REMARK    2  A    between atoms: C_9  and  C_18
REMARK                            x       y       z     vdW  Elec       q    Type
REMARK                         _______ _______ _______ _____ _____    ______ ____
ROOT
ATOM      1  C   UNL     1      -4.711   4.536  -0.248  0.00  0.00    +0.141 C 
ATOM      2  C   UNL     1      -5.374   3.390   0.524  0.00  0.00    +0.066 C 
ATOM      3  C   UNL     1      -4.813   2.047   0.041  0.00  0.00    +0.216 C 
ATOM      4  N   UNL     1      -3.352   2.122   0.031  0.00  0.00    -0.220 N 
ATOM      5  C   UNL     1      -2.647   3.278   0.033  0.00  0.00    +0.216 A 
ATOM      6  N   UNL     1      -1.375   2.980   0.031  0.00  0.00    -0.180 NA
ATOM      7  C   UNL     1      -1.229   1.647   0.017  0.00  0.00    +0.233 A 
ATOM      8  N   UNL     1      -2.418   1.086   0.019  0.00  0.00    -0.132 NA
ATOM      9  N   UNL     1      -0.011   0.966   0.007  0.00  0.00    -0.326 N 
ATOM     10  N   UNL     1      -3.264   4.523   0.041  0.00  0.00    -0.304 N 
ATOM     11  H   UNL     1       0.002  -0.004   0.002  0.00  0.00    +0.145 HD
ATOM     12  H   UNL     1       0.822   1.462   0.002  0.00  0.00    +0.145 HD
ATOM     13  H   UNL     1      -2.771   5.338   0.225  0.00  0.00    +0.150 HD
ENDROOT
BRANCH   1  16
ATOM     14  C   UNL     1      -5.718   4.499  -3.793  0.00  0.00    +0.041 A 
ATOM     15  C   UNL     1      -5.865   4.970  -2.468  0.00  0.00    +0.046 A 
ATOM     16  C   UNL     1      -4.933   4.346  -1.726  0.00  0.00    +0.125 A 
ATOM     17  O   UNL     1      -4.239   3.519  -2.525  0.00  0.00    -0.466 OA
ATOM     18  C   UNL     1      -4.710   3.608  -3.780  0.00  0.00    +0.195 A 
ENDBRANCH   1  16
BRANCH   3  19
ATOM     19  C   UNL     1      -5.263   0.932   0.987  0.00  0.00    +0.412 C 
ATOM     20  F   UNL     1      -4.803   1.205   2.280  0.00  0.00    -0.168 F 
ATOM     21  F   UNL     1      -6.660   0.863   0.995  0.00  0.00    -0.168 F 
ATOM     22  F   UNL     1      -4.737  -0.289   0.553  0.00  0.00    -0.168 F 
ENDBRANCH   3  19
TORSDOF 2
