REMARK  Name = ZINC66104760
REMARK  7 active torsions:
REMARK  status: ('A' for Active; 'I' for Inactive)
REMARK    1  A    between atoms: C_1  and  C_2
REMARK    2  A    between atoms: C_2  and  C_3
REMARK    3  A    between atoms: C_3  and  C_4
REMARK    4  A    between atoms: C_4  and  C_6
REMARK    5  A    between atoms: C_4  and  N_17
REMARK    6  A    between atoms: N_17  and  S_18
REMARK    7  A    between atoms: S_18  and  N_21
REMARK                            x       y       z     vdW  Elec       q    Type
REMARK                         _______ _______ _______ _____ _____    ______ ____
ROOT
ATOM      1  C   UNL     1       0.641  -2.005   1.237  0.00  0.00    +0.163 C 
ENDROOT
BRANCH   1   2
ATOM      2  C   UNL     1       1.407  -2.383   2.479  0.00  0.00    +0.235 C 
ATOM      3  O   UNL     1       0.812  -2.621   3.509  0.00  0.00    -0.274 OA
ATOM      4  N   UNL     1       2.752  -2.457   2.445  0.00  0.00    -0.295 N 
ATOM      5  C   UNL     1       3.509  -2.830   3.649  0.00  0.00    +0.113 C 
ATOM      6  C   UNL     1       4.211  -4.171   3.381  0.00  0.00    +0.061 C 
ATOM      7  C   UNL     1       4.799  -4.137   2.008  0.00  0.00    -0.004 A 
ATOM      8  C   UNL     1       4.512  -3.274   0.996  0.00  0.00    -0.020 A 
ATOM      9  C   UNL     1       5.200  -3.463  -0.202  0.00  0.00    +0.013 A 
ATOM     10  C   UNL     1       6.105  -4.462  -0.312  0.00  0.00    +0.046 A 
ATOM     11  S   UNL     1       6.031  -5.206   1.310  0.00  0.00    -0.101 S 
ATOM     12  C   UNL     1       3.483  -2.171   1.202  0.00  0.00    +0.143 C 
ENDBRANCH   1   2
BRANCH   1  13
ATOM     13  N   UNL     1      -0.750  -2.444   1.369  0.00  0.00    -0.168 NA
ATOM     14  H   UNL     1      -1.393  -1.887   1.835  0.00  0.00    +0.150 HD
BRANCH  13  15
ATOM     15  S   UNL     1      -1.226  -3.892   0.720  0.00  0.00    +0.093 S 
ATOM     16  O   UNL     1      -2.593  -4.064   1.069  0.00  0.00    -0.142 OA
ATOM     17  O   UNL     1      -0.778  -3.900  -0.628  0.00  0.00    -0.142 OA
BRANCH  15  18
ATOM     18  N   UNL     1      -0.384  -5.081   1.506  0.00  0.00    -0.193 NA
ATOM     19  H   UNL     1      -0.777  -5.961   1.618  0.00  0.00    +0.145 HD
ATOM     20  H   UNL     1       0.502  -4.898   1.855  0.00  0.00    +0.145 HD
ENDBRANCH  15  18
ENDBRANCH  13  15
ENDBRANCH   1  13
BRANCH   1  21
ATOM     21  C   UNL     1       0.681  -0.486   1.056  0.00  0.00    +0.029 C 
BRANCH  21  23
ATOM     22  C   UNL     1      -0.025   1.409  -0.411  0.00  0.00    +0.004 C 
ATOM     23  C   UNL     1       0.023  -0.114  -0.275  0.00  0.00    -0.001 C 
ENDBRANCH  21  23
ENDBRANCH   1  21
TORSDOF 6
