REMARK  Name = ZINC44731760
REMARK  7 active torsions:
REMARK  status: ('A' for Active; 'I' for Inactive)
REMARK    1  A    between atoms: C_1  and  C_2
REMARK    2  A    between atoms: C_4  and  C_8
REMARK    3  A    between atoms: C_5  and  C_7
REMARK    4  A    between atoms: C_8  and  C_10
REMARK    5  A    between atoms: C_8  and  N_11
REMARK    6  A    between atoms: C_15  and  C_17
REMARK    7  A    between atoms: C_17  and  C_19
REMARK                            x       y       z     vdW  Elec       q    Type
REMARK                         _______ _______ _______ _____ _____    ______ ____
ROOT
ATOM      1  N   UNL     1      -2.752  -3.099  -0.586  0.00  0.00    -0.292 N 
ATOM      2  C   UNL     1      -3.473  -4.086  -1.154  0.00  0.00    +0.306 C 
ATOM      3  O   UNL     1      -3.031  -5.218  -1.188  0.00  0.00    -0.252 OA
ATOM      4  N   UNL     1      -4.682  -3.818  -1.684  0.00  0.00    -0.239 N 
ATOM      5  C   UNL     1      -5.403  -4.806  -2.252  0.00  0.00    +0.238 C 
ATOM      6  O   UNL     1      -4.962  -5.935  -2.286  0.00  0.00    -0.274 OA
ATOM      7  H   UNL     1      -3.105  -2.196  -0.558  0.00  0.00    +0.151 HD
ATOM      8  H   UNL     1      -5.035  -2.915  -1.656  0.00  0.00    +0.159 HD
ENDROOT
BRANCH   5   9
ATOM      9  C   UNL     1      -6.755  -4.506  -2.845  0.00  0.00    +0.163 C 
ATOM     10  C   UNL     1      -6.876  -5.187  -4.210  0.00  0.00    +0.034 C 
ATOM     11 CL   UNL     1      -8.043  -5.129  -1.747  0.00  0.00    -0.112 Cl
ENDBRANCH   5   9
BRANCH   1  12
ATOM     12  C   UNL     1      -1.437  -3.390  -0.009  0.00  0.00    +0.105 C 
ATOM     13  C   UNL     1      -1.609  -3.892   1.426  0.00  0.00    +0.033 C 
BRANCH  12  17
ATOM     14  C   UNL     1      -0.018   1.503   0.010  0.00  0.00    +0.086 C 
ATOM     15  C   UNL     1       0.002  -0.004   0.002  0.00  0.00    +0.103 A 
ATOM     16  C   UNL     1      -1.078  -0.805   0.003  0.00  0.00    +0.050 A 
ATOM     17  C   UNL     1      -0.601  -2.136  -0.007  0.00  0.00    +0.013 A 
ATOM     18  C   UNL     1       0.742  -2.069  -0.013  0.00  0.00    +0.107 A 
ATOM     19  O   UNL     1       1.102  -0.775  -0.013  0.00  0.00    -0.465 OA
ATOM     20  C   UNL     1       1.684  -3.245  -0.023  0.00  0.00    +0.086 C 
ENDBRANCH  12  17
ENDBRANCH   1  12
TORSDOF 3
