REMARK  Name = ZINC06186422
REMARK  7 active torsions:
REMARK  status: ('A' for Active; 'I' for Inactive)
REMARK    1  A    between atoms: C_1  and  C_2
REMARK    2  A    between atoms: C_2  and  O_4
REMARK    3  A    between atoms: O_4  and  C_5
REMARK    4  A    between atoms: C_16  and  C_31
REMARK    5  A    between atoms: C_21  and  C_30
REMARK    6  A    between atoms: C_22  and  O_29
REMARK    7  A    between atoms: C_24  and  O_28
REMARK                            x       y       z     vdW  Elec       q    Type
REMARK                         _______ _______ _______ _____ _____    ______ ____
ROOT
ATOM      1  C   UNL     1       2.343   1.472   0.890  0.00  0.00    +0.209 C 
ATOM      2  C   UNL     1       1.321   2.159  -0.006  0.00  0.00    +0.051 C 
ATOM      3  C   UNL     1      -0.044   1.481   0.006  0.00  0.00    +0.000 C 
ATOM      4  C   UNL     1      -0.999   2.176   0.932  0.00  0.00    +0.006 C 
ATOM      5  C   UNL     1      -0.442   2.522   2.313  0.00  0.00    +0.012 C 
ATOM      6  C   UNL     1      -1.574   2.214   3.315  0.00  0.00    +0.075 C 
ATOM      7  C   UNL     1      -2.828   2.015   2.488  0.00  0.00    +0.139 C 
ATOM      8  O   UNL     1      -3.965   2.231   2.820  0.00  0.00    -0.297 OA
ATOM      9  C   UNL     1      -2.346   1.480   1.137  0.00  0.00    +0.029 C 
ATOM     10  C   UNL     1      -2.191  -0.028   1.301  0.00  0.00    +0.015 C 
ATOM     11  C   UNL     1      -1.370  -0.661   0.197  0.00  0.00    +0.005 C 
ATOM     12  C   UNL     1      -0.006  -0.019   0.001  0.00  0.00    +0.001 C 
ATOM     13  C   UNL     1       1.079  -0.681   0.837  0.00  0.00    +0.003 C 
ATOM     14  C   UNL     1       2.423  -0.013   0.535  0.00  0.00    +0.111 C 
ATOM     15  C   UNL     1       3.551  -0.684   1.308  0.00  0.00    +0.070 C 
ATOM     16  C   UNL     1       3.634  -2.171   0.974  0.00  0.00    +0.117 C 
ATOM     17  C   UNL     1       2.292  -2.861   1.199  0.00  0.00    +0.032 C 
ATOM     18  C   UNL     1       1.177  -2.160   0.431  0.00  0.00    +0.012 C 
ATOM     19  C   UNL     1       0.766  -0.610   2.329  0.00  0.00    +0.014 C 
ATOM     20  C   UNL     1      -3.344   1.826   0.023  0.00  0.00    +0.019 C 
ENDROOT
BRANCH  16  21
ATOM     21  O   UNL     1       4.050  -2.352  -0.380  0.00  0.00    -0.392 OA
ATOM     22  H   UNL     1       4.162  -3.277  -0.637  0.00  0.00    +0.210 HD
ENDBRANCH  16  21
BRANCH  14  23
ATOM     23  O   UNL     1       2.691  -0.125  -0.871  0.00  0.00    -0.384 OA
ATOM     24  H   UNL     1       3.527   0.275  -1.145  0.00  0.00    +0.210 HD
ENDBRANCH  14  23
BRANCH   1  25
ATOM     25  O   UNL     1       3.652   2.076   0.656  0.00  0.00    -0.459 OA
BRANCH  25  27
ATOM     26  C   UNL     1       5.323   3.794   1.246  0.00  0.00    +0.136 C 
ATOM     27  C   UNL     1       3.989   3.119   1.430  0.00  0.00    +0.304 C 
ATOM     28  O   UNL     1       3.221   3.518   2.275  0.00  0.00    -0.251 OA
ENDBRANCH  25  27
ENDBRANCH   1  25
TORSDOF 4
