REMARK  Name = ZINC32101750
REMARK  6 active torsions:
REMARK  status: ('A' for Active; 'I' for Inactive)
REMARK    1  A    between atoms: C_1  and  C_2
REMARK    2  A    between atoms: C_2  and  C_3
REMARK    3  A    between atoms: C_2  and  C_4
REMARK    4  A    between atoms: C_4  and  N_5
REMARK    5  A    between atoms: N_23  and  C_24
REMARK    6  A    between atoms: C_24  and  C_25
REMARK                            x       y       z     vdW  Elec       q    Type
REMARK                         _______ _______ _______ _____ _____    ______ ____
ROOT
ATOM      1  N   UNL     1      -1.416  -1.993  -0.116  0.00  0.00    -0.270 N 
ATOM      2  C   UNL     1      -1.448  -2.663  -1.325  0.00  0.00    +0.041 A 
ATOM      3  C   UNL     1      -1.503  -2.149  -2.622  0.00  0.00    +0.024 A 
ATOM      4  C   UNL     1      -1.525  -3.061  -3.666  0.00  0.00    +0.002 A 
ATOM      5  C   UNL     1      -1.492  -4.423  -3.446  0.00  0.00    +0.000 A 
ATOM      6  C   UNL     1      -1.437  -4.948  -2.159  0.00  0.00    +0.007 A 
ATOM      7  C   UNL     1      -1.416  -4.048  -1.116  0.00  0.00    -0.006 A 
ATOM      8  C   UNL     1      -1.364  -4.245   0.365  0.00  0.00    +0.112 C 
ATOM      9  C   UNL     1      -1.363  -2.842   0.932  0.00  0.00    +0.235 C 
ATOM     10  O   UNL     1      -1.324  -2.538   2.106  0.00  0.00    -0.274 OA
ATOM     11  C   UNL     1      -2.583  -5.018   0.864  0.00  0.00    +0.122 C 
ATOM     12  C   UNL     1      -2.414  -6.497   0.653  0.00  0.00    +0.220 C 
ATOM     13  O   UNL     1      -3.379  -7.158   0.332  0.00  0.00    -0.275 OA
ATOM     14  N   UNL     1      -1.224  -7.113   0.810  0.00  0.00    -0.270 N 
ATOM     15  C   UNL     1      -0.086  -6.324   0.980  0.00  0.00    +0.128 A 
ATOM     16  C   UNL     1      -0.113  -4.967   0.780  0.00  0.00    +0.032 A 
ATOM     17  C   UNL     1       1.160  -4.475   1.026  0.00  0.00    +0.141 A 
ATOM     18  N   UNL     1       1.933  -5.485   1.353  0.00  0.00    -0.177 NA
ATOM     19  N   UNL     1       1.166  -6.660   1.320  0.00  0.00    -0.246 N 
ATOM     20  H   UNL     1      -1.160  -8.081   0.806  0.00  0.00    +0.156 HD
ENDROOT
BRANCH   1  21
ATOM     21  C   UNL     1      -1.433  -0.534   0.013  0.00  0.00    +0.116 C 
BRANCH  21  23
ATOM     22  C   UNL     1      -0.019   1.526   0.010  0.00  0.00    +0.009 C 
ATOM     23  C   UNL     1       0.002  -0.004   0.002  0.00  0.00    +0.001 C 
ATOM     24  C   UNL     1       0.742  -0.511   1.242  0.00  0.00    +0.009 C 
ENDBRANCH  21  23
ENDBRANCH   1  21
BRANCH  19  25
ATOM     25  C   UNL     1       1.648  -8.013   1.607  0.00  0.00    +0.180 C 
BRANCH  25  26
ATOM     26  C   UNL     1       2.139  -8.653   0.334  0.00  0.00    -0.026 A 
ATOM     27  C   UNL     1       1.265  -9.376  -0.457  0.00  0.00    +0.007 A 
ATOM     28  C   UNL     1       1.714  -9.963  -1.625  0.00  0.00    +0.020 A 
ATOM     29  C   UNL     1       3.039  -9.827  -2.002  0.00  0.00    +0.041 A 
ATOM     30  C   UNL     1       3.912  -9.103  -1.210  0.00  0.00    +0.020 A 
ATOM     31  C   UNL     1       3.460  -8.512  -0.045  0.00  0.00    +0.007 A 
ATOM     32 CL   UNL     1       3.604 -10.564  -3.469  0.00  0.00    -0.084 Cl
ENDBRANCH  25  26
ENDBRANCH  19  25
TORSDOF 4
