REMARK  Name = ZINC13126069
REMARK  1 active torsions:
REMARK  status: ('A' for Active; 'I' for Inactive)
REMARK    1  A    between atoms: N_8  and  N_9
REMARK                            x       y       z     vdW  Elec       q    Type
REMARK                         _______ _______ _______ _____ _____    ______ ____
ROOT
ATOM      1  C   UNL     1      -0.017   1.386   0.010  0.00  0.00    +0.027 A 
ATOM      2  C   UNL     1       1.173   2.088   0.002  0.00  0.00    +0.020 A 
ATOM      3  C   UNL     1       2.380   1.407  -0.014  0.00  0.00    +0.032 A 
ATOM      4  C   UNL     1       2.408   0.026  -0.022  0.00  0.00    +0.041 A 
ATOM      5  C   UNL     1       1.220  -0.696  -0.014  0.00  0.00    +0.057 A 
ATOM      6  C   UNL     1       0.002  -0.004   0.002  0.00  0.00    +0.030 A 
ATOM      7  C   UNL     1      -1.064  -1.033   0.006  0.00  0.00    +0.153 C 
ATOM      8  N   UNL     1      -2.361  -0.839   0.019  0.00  0.00    -0.173 NA
ATOM      9  C   UNL     1      -0.348  -2.324  -0.008  0.00  0.00    +0.269 C 
ATOM     10  O   UNL     1      -0.862  -3.428  -0.009  0.00  0.00    -0.268 OA
ATOM     11  N   UNL     1       0.970  -2.065  -0.020  0.00  0.00    -0.279 N 
ATOM     12 BR   UNL     1       4.066  -0.883  -0.044  0.00  0.00    -0.048 Br
ATOM     13 BR   UNL     1       1.155   3.979   0.012  0.00  0.00    -0.050 Br
ATOM     14  H   UNL     1       1.661  -2.746  -0.031  0.00  0.00    +0.155 HD
ENDROOT
BRANCH   8  15
ATOM     15  N   UNL     1      -3.233  -1.935   0.021  0.00  0.00    -0.190 N 
ATOM     16  C   UNL     1      -4.566  -1.736   0.034  0.00  0.00    +0.317 C 
ATOM     17  O   UNL     1      -5.323  -2.687   0.036  0.00  0.00    -0.251 OA
ATOM     18  N   UNL     1      -5.059  -0.482   0.046  0.00  0.00    -0.312 N 
ATOM     19  H   UNL     1      -2.878  -2.838   0.013  0.00  0.00    +0.179 HD
ATOM     20  H   UNL     1      -4.455   0.277   0.044  0.00  0.00    +0.147 HD
ATOM     21  H   UNL     1      -6.019  -0.338   0.055  0.00  0.00    +0.147 HD
ENDBRANCH   8  15
TORSDOF 1
