REMARK  Name = ZINC28566247
REMARK  9 active torsions:
REMARK  status: ('A' for Active; 'I' for Inactive)
REMARK    1  A    between atoms: C_1  and  C_2
REMARK    2  A    between atoms: C_2  and  C_3
REMARK    3  A    between atoms: C_2  and  C_4
REMARK    4  A    between atoms: C_2  and  S_19
REMARK    5  A    between atoms: C_4  and  C_6
REMARK    6  A    between atoms: C_4  and  N_18
REMARK    7  A    between atoms: C_13  and  C_15
REMARK    8  A    between atoms: S_19  and  C_22
REMARK    9  A    between atoms: C_22  and  C_23
REMARK                            x       y       z     vdW  Elec       q    Type
REMARK                         _______ _______ _______ _____ _____    ______ ____
ROOT
ATOM      1  C   UNL     1       1.060   1.351   2.676  0.00  0.00    +0.040 C 
ENDROOT
BRANCH   1   2
ATOM      2  C   UNL     1      -0.386   1.617   2.347  0.00  0.00    +0.204 C 
ATOM      3  O   UNL     1      -1.210   1.673   3.236  0.00  0.00    -0.277 OA
ATOM      4  N   UNL     1      -0.765   1.793   1.066  0.00  0.00    -0.284 N 
ATOM      5  C   UNL     1       0.141   1.862  -0.096  0.00  0.00    +0.146 C 
ATOM      6  C   UNL     1      -0.644   2.661  -1.166  0.00  0.00    +0.186 C 
ATOM      7  C   UNL     1      -2.091   2.147  -0.939  0.00  0.00    +0.076 C 
ATOM      8  C   UNL     1      -2.150   1.947   0.590  0.00  0.00    +0.182 C 
ATOM      9  F   UNL     1      -0.198   2.346  -2.454  0.00  0.00    -0.244 F 
BRANCH   8  10
ATOM     10  C   UNL     1      -2.925   0.736   0.907  0.00  0.00    +0.085 C 
ATOM     11  N   UNL     1      -3.524  -0.198   1.151  0.00  0.00    -0.195 NA
ENDBRANCH   8  10
ENDBRANCH   1   2
BRANCH   1  12
ATOM     12  N   UNL     1       1.383   1.944   3.981  0.00  0.00    +0.387 N 
ATOM     13  H   UNL     1       1.209   3.029   3.945  0.00  0.00    -0.089 HD
ATOM     14  H   UNL     1       2.439   1.749   4.221  0.00  0.00    -0.089 HD
ATOM     15  H   UNL     1       0.743   1.495   4.755  0.00  0.00    -0.089 HD
ENDBRANCH   1  12
BRANCH   1  17
ATOM     16  C   UNL     1       0.470  -0.771   3.855  0.00  0.00    +0.034 C 
ATOM     17  C   UNL     1       1.303  -0.158   2.727  0.00  0.00    +0.078 C 
ATOM     18  C   UNL     1       0.894  -0.786   1.393  0.00  0.00    +0.034 C 
BRANCH  17  19
ATOM     19  S   UNL     1       3.062  -0.479   3.032  0.00  0.00    -0.023 S 
ATOM     20  O   UNL     1       3.804  -0.012   1.914  0.00  0.00    -0.174 OA
ATOM     21  O   UNL     1       3.388   0.003   4.328  0.00  0.00    -0.174 OA
BRANCH  19  22
ATOM     22  C   UNL     1       3.141  -2.291   3.057  0.00  0.00    +0.201 C 
BRANCH  22  23
ATOM     23  C   UNL     1       4.562  -2.728   3.304  0.00  0.00    -0.024 A 
ATOM     24  C   UNL     1       5.431  -2.947   2.247  0.00  0.00    +0.025 A 
ATOM     25  C   UNL     1       6.728  -3.343   2.512  0.00  0.00    +0.111 A 
ATOM     26  N   UNL     1       7.138  -3.522   3.753  0.00  0.00    -0.263 NA
ATOM     27  C   UNL     1       6.338  -3.329   4.782  0.00  0.00    +0.111 A 
ATOM     28  C   UNL     1       5.029  -2.927   4.595  0.00  0.00    +0.025 A 
ENDBRANCH  22  23
ENDBRANCH  19  22
ENDBRANCH  17  19
ENDBRANCH   1  17
TORSDOF 7
