REMARK  Name = ZINC54396524
REMARK  3 active torsions:
REMARK  status: ('A' for Active; 'I' for Inactive)
REMARK    1  A    between atoms: C_1  and  C_2
REMARK    2  A    between atoms: C_10  and  C_15
REMARK    3  A    between atoms: C_15  and  N_17
REMARK                            x       y       z     vdW  Elec       q    Type
REMARK                         _______ _______ _______ _____ _____    ______ ____
ROOT
ATOM      1  C   UNL     1       0.088   1.579  -0.013  0.00  0.00    +0.009 C 
ATOM      2  C   UNL     1       0.075   0.049  -0.012  0.00  0.00    +0.003 C 
ATOM      3  C   UNL     1      -1.371  -0.450   0.007  0.00  0.00    +0.006 C 
ATOM      4  C   UNL     1      -1.385  -1.980  -0.026  0.00  0.00    +0.019 C 
ATOM      5  C   UNL     1      -0.671  -2.520   1.218  0.00  0.00    +0.106 C 
ATOM      6  N   UNL     1       0.673  -1.930   1.284  0.00  0.00    -0.313 N 
ATOM      7  C   UNL     1       0.807  -0.468   1.231  0.00  0.00    +0.109 C 
ATOM      8  C   UNL     1       1.792  -2.736   1.396  0.00  0.00    +0.149 A 
ATOM      9  C   UNL     1       2.328  -3.029   2.662  0.00  0.00    +0.131 A 
ATOM     10  N   UNL     1       3.404  -3.805   2.757  0.00  0.00    -0.248 NA
ATOM     11  C   UNL     1       3.962  -4.295   1.667  0.00  0.00    +0.131 A 
ATOM     12  C   UNL     1       3.433  -4.005   0.418  0.00  0.00    +0.132 A 
ATOM     13  N   UNL     1       2.361  -3.241   0.308  0.00  0.00    -0.237 NA
ENDROOT
BRANCH   9  14
ATOM     14  C   UNL     1       1.701  -2.479   3.878  0.00  0.00    +0.099 C 
ATOM     15  S   UNL     1       0.226  -1.617   3.766  0.00  0.00    -0.033 S 
BRANCH  14  16
ATOM     16  N   UNL     1       2.290  -2.654   5.078  0.00  0.00    -0.350 N 
ATOM     17  H   UNL     1       3.126  -3.142   5.141  0.00  0.00    +0.143 HD
ATOM     18  H   UNL     1       1.877  -2.292   5.878  0.00  0.00    +0.143 HD
ENDBRANCH  14  16
ENDBRANCH   9  14
TORSDOF 2
