REMARK  Name = ZINC04040297
REMARK  5 active torsions:
REMARK  status: ('A' for Active; 'I' for Inactive)
REMARK    1  A    between atoms: C_1  and  C_2
REMARK    2  A    between atoms: C_15  and  O_32
REMARK    3  A    between atoms: C_18  and  C_31
REMARK    4  A    between atoms: C_23  and  C_25
REMARK    5  A    between atoms: C_25  and  C_30
REMARK                            x       y       z     vdW  Elec       q    Type
REMARK                         _______ _______ _______ _____ _____    ______ ____
ROOT
ATOM      1  C   UNL     1      -1.119   1.220  -1.430  0.00  0.00    +0.012 C 
ATOM      2  C   UNL     1       0.215   1.952  -1.277  0.00  0.00    -0.023 C 
ATOM      3  C   UNL     1       1.090   1.686  -2.510  0.00  0.00    +0.012 C 
ATOM      4  C   UNL     1       2.428   2.413  -2.354  0.00  0.00    +0.065 C 
ATOM      5  C   UNL     1       3.139   1.905  -1.099  0.00  0.00    +0.170 C 
ATOM      6  C   UNL     1       2.269   2.171   0.131  0.00  0.00    +0.069 C 
ATOM      7  C   UNL     1       0.932   1.445  -0.026  0.00  0.00    +0.000 C 
ATOM      8  C   UNL     1       0.059   1.708   1.202  0.00  0.00    +0.004 C 
ATOM      9  C   UNL     1      -0.197   3.210   1.335  0.00  0.00    +0.004 C 
ATOM     10  C   UNL     1      -0.921   3.711   0.084  0.00  0.00    -0.001 C 
ATOM     11  C   UNL     1      -0.052   3.454  -1.146  0.00  0.00    +0.027 C 
ATOM     12  C   UNL     1      -0.810   3.940  -2.386  0.00  0.00    +0.119 C 
ATOM     13  C   UNL     1      -1.021   5.447  -2.270  0.00  0.00    +0.039 C 
ATOM     14  C   UNL     1      -1.883   5.782  -1.050  0.00  0.00    -0.019 C 
ATOM     15  C   UNL     1      -1.277   5.170   0.225  0.00  0.00    -0.001 C 
ATOM     16  C   UNL     1      -0.050   6.058   0.501  0.00  0.00    +0.005 C 
ATOM     17  C   UNL     1      -0.551   7.480   0.160  0.00  0.00    +0.009 C 
ATOM     18  C   UNL     1      -1.737   7.308  -0.807  0.00  0.00    +0.054 C 
ATOM     19  C   UNL     1      -3.340   5.359  -1.250  0.00  0.00    +0.012 C 
ATOM     20  O   UNL     1       3.373   0.492  -1.222  0.00  0.00    -0.346 OA
ATOM     21  C   UNL     1       4.727   0.384  -1.725  0.00  0.00    +0.191 C 
ATOM     22  C   UNL     1       5.426   1.562  -1.002  0.00  0.00    +0.191 C 
ATOM     23  O   UNL     1       4.398   2.572  -0.954  0.00  0.00    -0.346 OA
ENDROOT
BRANCH  18  24
ATOM     24  C   UNL     1      -3.015   7.865  -0.176  0.00  0.00    +0.171 C 
ATOM     25  O   UNL     1      -4.135   7.599  -1.037  0.00  0.00    -0.346 OA
ATOM     26  C   UNL     1      -4.991   8.758  -0.900  0.00  0.00    +0.191 C 
ATOM     27  C   UNL     1      -3.954   9.900  -0.758  0.00  0.00    +0.191 C 
ATOM     28  O   UNL     1      -2.890   9.283  -0.006  0.00  0.00    -0.346 OA
ATOM     29  C   UNL     1      -3.247   7.202   1.183  0.00  0.00    +0.074 C 
ENDBRANCH  18  24
BRANCH  12  30
ATOM     30  O   UNL     1      -0.048   3.648  -3.559  0.00  0.00    -0.391 OA
ATOM     31  H   UNL     1      -0.470   3.930  -4.382  0.00  0.00    +0.210 HD
ENDBRANCH  12  30
TORSDOF 2
