REMARK  Name = ZINC15083217
REMARK  8 active torsions:
REMARK  status: ('A' for Active; 'I' for Inactive)
REMARK    1  A    between atoms: C_1  and  C_2
REMARK    2  A    between atoms: C_2  and  O_3
REMARK    3  A    between atoms: O_3  and  C_4
REMARK    4  A    between atoms: C_4  and  C_6
REMARK    5  A    between atoms: C_8  and  C_21
REMARK    6  A    between atoms: C_15  and  O_16
REMARK    7  A    between atoms: C_18  and  C_19
REMARK    8  A    between atoms: C_18  and  O_20
REMARK                            x       y       z     vdW  Elec       q    Type
REMARK                         _______ _______ _______ _____ _____    ______ ____
ROOT
ATOM      1  C   UNL     1       1.262   1.911   0.232  0.00  0.00    +0.141 C 
ATOM      2  C   UNL     1      -0.038   1.097   0.220  0.00  0.00    +0.072 C 
ATOM      3  C   UNL     1      -0.751   1.319   1.530  0.00  0.00    +0.044 A 
ATOM      4  C   UNL     1      -0.163   1.836   2.639  0.00  0.00    +0.046 A 
ATOM      5  N   UNL     1      -1.091   1.893   3.609  0.00  0.00    -0.278 N 
ATOM      6  H   UNL     1      -0.949   2.232   4.539  0.00  0.00    +0.189 HD
ATOM      7  N   UNL     1      -2.293   1.393   3.087  0.00  0.00    -0.136 NA
ATOM      8  C   UNL     1      -2.087   1.048   1.837  0.00  0.00    +0.235 A 
ATOM      9  C   UNL     1       1.284   2.256   2.711  0.00  0.00    +0.090 C 
ATOM     10  C   UNL     1       2.029   1.629   1.527  0.00  0.00    +0.082 C 
ATOM     11  C   UNL     1       3.432   2.232   1.430  0.00  0.00    +0.042 C 
ENDROOT
BRANCH   2  12
ATOM     12  C   UNL     1      -0.912   1.556  -0.919  0.00  0.00    -0.039 A 
ATOM     13  C   UNL     1      -0.952   0.830  -2.095  0.00  0.00    +0.007 A 
ATOM     14  C   UNL     1      -1.757   1.247  -3.138  0.00  0.00    +0.038 A 
ATOM     15  C   UNL     1      -2.517   2.397  -3.008  0.00  0.00    +0.123 A 
ATOM     16  C   UNL     1      -2.473   3.126  -1.832  0.00  0.00    +0.038 A 
ATOM     17  C   UNL     1      -1.671   2.704  -0.788  0.00  0.00    +0.007 A 
ATOM     18  F   UNL     1      -3.301   2.808  -4.029  0.00  0.00    -0.205 F 
ENDBRANCH   2  12
BRANCH   1  19
ATOM     19  C   UNL     1       0.935   3.380   0.153  0.00  0.00    +0.314 C 
ATOM     20  O   UNL     1       0.208   3.883   0.976  0.00  0.00    -0.250 OA
BRANCH  19  21
ATOM     21  O   UNL     1       1.453   4.130  -0.833  0.00  0.00    -0.465 OA
BRANCH  21  23
ATOM     22  C   UNL     1       1.951   6.256  -1.911  0.00  0.00    +0.048 C 
ATOM     23  C   UNL     1       1.186   5.557  -0.785  0.00  0.00    +0.229 C 
ENDBRANCH  21  23
ENDBRANCH  19  21
ENDBRANCH   1  19
BRANCH   8  24
ATOM     24  O   UNL     1      -3.010   0.520   0.990  0.00  0.00    -0.491 OA
ATOM     25  H   UNL     1      -3.886   0.430   1.466  0.00  0.00    +0.294 HD
ENDBRANCH   8  24
BRANCH  10  26
ATOM     26  O   UNL     1       2.131   0.217   1.722  0.00  0.00    -0.388 OA
ATOM     27  H   UNL     1       2.606  -0.036   2.525  0.00  0.00    +0.210 HD
ENDBRANCH  10  26
TORSDOF 6
