REMARK  Name = ZINC48926774
REMARK  6 active torsions:
REMARK  status: ('A' for Active; 'I' for Inactive)
REMARK    1  A    between atoms: C_1  and  C_2
REMARK    2  A    between atoms: C_6  and  N_19
REMARK    3  A    between atoms: C_7  and  S_8
REMARK    4  A    between atoms: S_8  and  N_11
REMARK    5  A    between atoms: C_16  and  C_17
REMARK    6  A    between atoms: C_16  and  C_18
REMARK                            x       y       z     vdW  Elec       q    Type
REMARK                         _______ _______ _______ _____ _____    ______ ____
ROOT
ATOM      1  S   UNL     1      -0.078   0.140   2.804  0.00  0.00    +0.063 S 
ATOM      2  O   UNL     1       0.706  -0.460   3.825  0.00  0.00    -0.153 OA
ATOM      3  O   UNL     1       0.171   1.454   2.325  0.00  0.00    -0.153 OA
ENDROOT
BRANCH   1   4
ATOM      4  N   UNL     1      -1.646   0.118   3.337  0.00  0.00    -0.167 NA
ATOM      5  C   UNL     1      -2.530   1.277   3.134  0.00  0.00    +0.138 C 
ATOM      6  C   UNL     1      -3.179   1.630   4.477  0.00  0.00    +0.177 C 
ATOM      7  O   UNL     1      -3.784   0.459   5.030  0.00  0.00    -0.377 OA
ATOM      8  C   UNL     1      -2.861  -0.593   5.325  0.00  0.00    +0.183 C 
ATOM      9  C   UNL     1      -2.197  -1.062   4.021  0.00  0.00    +0.061 C 
ATOM     10  C   UNL     1      -3.236  -1.739   3.124  0.00  0.00    +0.032 C 
ATOM     11  C   UNL     1      -1.070  -2.046   4.339  0.00  0.00    +0.032 C 
ENDBRANCH   1   4
BRANCH   1  18
ATOM     12  C   UNL     1       1.567  -2.395   2.706  0.00  0.00    +0.046 C 
ATOM     13  C   UNL     1       0.792  -2.068   1.456  0.00  0.00    -0.022 A 
ATOM     14  C   UNL     1       0.859  -2.911   0.362  0.00  0.00    +0.005 A 
ATOM     15  C   UNL     1       0.150  -2.615  -0.788  0.00  0.00    +0.002 A 
ATOM     16  C   UNL     1      -0.628  -1.475  -0.846  0.00  0.00    +0.025 A 
ATOM     17  C   UNL     1      -0.698  -0.626   0.251  0.00  0.00    +0.051 A 
ATOM     18  C   UNL     1       0.012  -0.930   1.406  0.00  0.00    +0.129 A 
BRANCH  17  19
ATOM     19  N   UNL     1      -1.484   0.527   0.196  0.00  0.00    -0.356 N 
ATOM     20  H   UNL     1      -2.041   0.697  -0.580  0.00  0.00    +0.142 HD
ATOM     21  H   UNL     1      -1.473   1.157   0.932  0.00  0.00    +0.142 HD
ENDBRANCH  17  19
ENDBRANCH   1  18
TORSDOF 3
