REMARK  Name = ZINC35856336
REMARK  3 active torsions:
REMARK  status: ('A' for Active; 'I' for Inactive)
REMARK    1  A    between atoms: C_2  and  C_17
REMARK    2  A    between atoms: C_4  and  N_7
REMARK    3  A    between atoms: N_18  and  O_19
REMARK                            x       y       z     vdW  Elec       q    Type
REMARK                         _______ _______ _______ _____ _____    ______ ____
ROOT
ATOM      1  C   UNL     1      -0.200   1.454   0.141  0.00  0.00    +0.142 A 
ATOM      2  C   UNL     1       1.050   2.063   0.230  0.00  0.00    +0.127 A 
ATOM      3  N   UNL     1       2.122   1.336   0.537  0.00  0.00    -0.226 NA
ATOM      4  C   UNL     1       1.995   0.036   0.757  0.00  0.00    +0.140 A 
ATOM      5  C   UNL     1       0.741  -0.567   0.665  0.00  0.00    +0.154 A 
ATOM      6  N   UNL     1      -0.321   0.157   0.361  0.00  0.00    -0.258 NA
ENDROOT
BRANCH   4   7
ATOM      7  N   UNL     1       3.112  -0.727   1.077  0.00  0.00    -0.314 N 
ATOM      8  C   UNL     1       4.389  -0.082   1.411  0.00  0.00    +0.112 C 
ATOM      9  C   UNL     1       5.484  -0.658   0.508  0.00  0.00    +0.084 C 
ATOM     10  C   UNL     1       5.494  -2.183   0.633  0.00  0.00    +0.173 C 
ATOM     11  C   UNL     1       4.145  -2.751   0.187  0.00  0.00    +0.084 C 
ATOM     12  C   UNL     1       3.036  -2.194   1.094  0.00  0.00    +0.112 C 
ATOM     13  O   UNL     1       6.538  -2.725  -0.186  0.00  0.00    -0.346 OA
ATOM     14  C   UNL     1       7.432  -3.447   0.685  0.00  0.00    +0.191 C 
ATOM     15  C   UNL     1       6.552  -3.744   1.924  0.00  0.00    +0.191 C 
ATOM     16  O   UNL     1       5.738  -2.549   2.000  0.00  0.00    -0.346 OA
ENDBRANCH   4   7
BRANCH   2  17
ATOM     17  C   UNL     1       1.185   3.517  -0.017  0.00  0.00    +0.182 C 
ATOM     18  N   UNL     1       0.250   4.159  -0.652  0.00  0.00    -0.070 NA
ATOM     19  N   UNL     1       2.308   4.194   0.430  0.00  0.00    -0.339 N 
ATOM     20  H   UNL     1       3.006   3.715   0.904  0.00  0.00    +0.144 HD
ATOM     21  H   UNL     1       2.397   5.146   0.268  0.00  0.00    +0.144 HD
BRANCH  18  22
ATOM     22  O   UNL     1      -0.819   3.446  -1.248  0.00  0.00    -0.408 OA
ATOM     23  H   UNL     1      -1.464   4.008  -1.697  0.00  0.00    +0.328 HD
ENDBRANCH  18  22
ENDBRANCH   2  17
TORSDOF 3
