REMARK  Name = ZINC40783259
REMARK  5 active torsions:
REMARK  status: ('A' for Active; 'I' for Inactive)
REMARK    1  A    between atoms: C_1  and  C_2
REMARK    2  A    between atoms: C_11  and  N_12
REMARK    3  A    between atoms: C_14  and  N_26
REMARK    4  A    between atoms: C_15  and  S_19
REMARK    5  A    between atoms: S_19  and  C_20
REMARK                            x       y       z     vdW  Elec       q    Type
REMARK                         _______ _______ _______ _____ _____    ______ ____
ROOT
ATOM      1  N   UNL     1       0.065  -4.885  -1.143  0.00  0.00    -0.297 N 
ATOM      2  C   UNL     1       0.190  -6.269  -1.087  0.00  0.00    +0.148 A 
ATOM      3  C   UNL     1       0.305  -7.018  -2.260  0.00  0.00    +0.098 A 
ATOM      4  C   UNL     1       0.428  -8.405  -2.147  0.00  0.00    +0.127 A 
ATOM      5  N   UNL     1       0.431  -8.955  -0.934  0.00  0.00    -0.227 NA
ATOM      6  C   UNL     1       0.319  -8.211   0.147  0.00  0.00    +0.224 A 
ATOM      7  N   UNL     1       0.207  -6.899   0.085  0.00  0.00    -0.219 NA
ATOM      8  H   UNL     1      -0.030  -4.441  -2.000  0.00  0.00    +0.154 HD
ENDROOT
BRANCH   1  19
ATOM      9  C   UNL     1      -2.361   0.940   0.385  0.00  0.00    +0.063 C 
ATOM     10  C   UNL     1      -1.714  -0.418   0.277  0.00  0.00    +0.013 A 
ATOM     11  C   UNL     1      -1.770  -1.100  -0.935  0.00  0.00    +0.021 A 
ATOM     12  C   UNL     1      -1.188  -2.332  -1.051  0.00  0.00    +0.013 A 
ATOM     13  C   UNL     1      -0.547  -2.872   0.076  0.00  0.00    +0.020 A 
ATOM     14  C   UNL     1      -0.527  -2.125   1.280  0.00  0.00    +0.048 A 
ATOM     15  N   UNL     1      -1.110  -0.922   1.326  0.00  0.00    -0.358 N 
ATOM     16  C   UNL     1       0.114  -2.661   2.410  0.00  0.00    +0.026 A 
ATOM     17  C   UNL     1       0.707  -3.885   2.341  0.00  0.00    +0.004 A 
ATOM     18  C   UNL     1       0.694  -4.627   1.164  0.00  0.00    +0.024 A 
ATOM     19  C   UNL     1       0.075  -4.137   0.032  0.00  0.00    +0.042 A 
ATOM     20  H   UNL     1      -1.089  -0.415   2.152  0.00  0.00    +0.166 HD
ENDBRANCH   1  19
BRANCH   3  21
ATOM     21  N   UNL     1       0.297  -6.395  -3.517  0.00  0.00    -0.353 N 
ATOM     22  H   UNL     1       0.211  -5.431  -3.580  0.00  0.00    +0.142 HD
ATOM     23  H   UNL     1       0.379  -6.928  -4.323  0.00  0.00    +0.142 HD
ENDBRANCH   3  21
BRANCH   4  24
ATOM     24  S   UNL     1       0.577  -9.410  -3.586  0.00  0.00    -0.068 S 
BRANCH  24  25
ATOM     25  C   UNL     1       0.554 -11.057  -2.960  0.00  0.00    +0.014 A 
ATOM     26  C   UNL     1      -0.657 -11.696  -2.727  0.00  0.00    +0.015 A 
ATOM     27  C   UNL     1      -0.672 -12.987  -2.237  0.00  0.00    +0.001 A 
ATOM     28  C   UNL     1       0.518 -13.643  -1.977  0.00  0.00    +0.000 A 
ATOM     29  C   UNL     1       1.725 -13.010  -2.207  0.00  0.00    +0.001 A 
ATOM     30  C   UNL     1       1.747 -11.721  -2.703  0.00  0.00    +0.015 A 
ENDBRANCH  24  25
ENDBRANCH   4  24
TORSDOF 4
