REMARK  Name = ZINC04306990
REMARK  7 active torsions:
REMARK  status: ('A' for Active; 'I' for Inactive)
REMARK    1  A    between atoms: C_1  and  C_2
REMARK    2  A    between atoms: C_5  and  N_9
REMARK    3  A    between atoms: C_6  and  C_8
REMARK    4  A    between atoms: C_10  and  C_12
REMARK    5  A    between atoms: C_20  and  O_29
REMARK    6  A    between atoms: C_23  and  C_28
REMARK    7  A    between atoms: O_29  and  C_30
REMARK                            x       y       z     vdW  Elec       q    Type
REMARK                         _______ _______ _______ _____ _____    ______ ____
ROOT
ATOM      1  C   UNL     1       1.321   3.472   0.131  0.00  0.00    +0.162 C 
ATOM      2  C   UNL     1       0.734   3.932   1.476  0.00  0.00    +0.123 C 
ATOM      3  C   UNL     1       1.577   3.346   2.586  0.00  0.00    +0.019 A 
ATOM      4  C   UNL     1       1.015   3.188   3.842  0.00  0.00    +0.009 A 
ATOM      5  C   UNL     1       1.762   2.662   4.878  0.00  0.00    +0.004 A 
ATOM      6  C   UNL     1       3.077   2.291   4.662  0.00  0.00    +0.049 A 
ATOM      7  C   UNL     1       3.643   2.445   3.409  0.00  0.00    +0.162 A 
ATOM      8  C   UNL     1       2.889   2.974   2.360  0.00  0.00    +0.170 A 
ATOM      9  O   UNL     1       3.474   3.103   1.141  0.00  0.00    -0.464 OA
ATOM     10  C   UNL     1       2.801   3.881   0.126  0.00  0.00    +0.188 C 
ATOM     11  N   UNL     1       2.907   5.314   0.381  0.00  0.00    -0.289 N 
ATOM     12  C   UNL     1       1.945   5.997   1.019  0.00  0.00    +0.134 C 
ATOM     13  S   UNL     1       2.106   7.694   1.181  0.00  0.00    -0.019 S 
ATOM     14  N   UNL     1       0.857   5.398   1.536  0.00  0.00    -0.319 N 
ATOM     15  C   UNL     1       3.410   3.567  -1.242  0.00  0.00    +0.079 C 
ATOM     16  H   UNL     1       3.698   5.788   0.079  0.00  0.00    +0.151 HD
ATOM     17  H   UNL     1       0.157   5.929   1.945  0.00  0.00    +0.148 HD
ENDROOT
BRANCH   1  19
ATOM     18  N   UNL     1      -0.017   1.395   0.010  0.00  0.00    -0.285 N 
ATOM     19  C   UNL     1       1.199   1.976   0.002  0.00  0.00    +0.228 C 
ATOM     20  O   UNL     1       2.196   1.294  -0.110  0.00  0.00    -0.275 OA
ATOM     21  H   UNL     1      -0.816   1.944   0.029  0.00  0.00    +0.155 HD
BRANCH  18  26
ATOM     22  C   UNL     1      -0.462  -4.260  -0.094  0.00  0.00    +0.044 C 
ATOM     23  C   UNL     1      -0.344  -2.758  -0.067  0.00  0.00    -0.050 A 
ATOM     24  C   UNL     1       0.682  -2.133  -0.753  0.00  0.00    +0.005 A 
ATOM     25  C   UNL     1       0.793  -0.757  -0.730  0.00  0.00    +0.024 A 
ATOM     26  C   UNL     1      -0.127   0.000  -0.016  0.00  0.00    +0.036 A 
ATOM     27  C   UNL     1      -1.152  -0.630   0.677  0.00  0.00    -0.029 A 
ATOM     28  C   UNL     1      -1.261  -2.006   0.645  0.00  0.00    +0.008 A 
ATOM     29  C   UNL     1      -2.148   0.188   1.458  0.00  0.00    +0.045 C 
ENDBRANCH  18  26
ENDBRANCH   1  19
BRANCH   7  30
ATOM     30  O   UNL     1       4.936   2.080   3.199  0.00  0.00    -0.491 OA
ATOM     31  C   UNL     1       5.650   1.546   4.316  0.00  0.00    +0.277 C 
ENDBRANCH   7  30
TORSDOF 3
