REMARK  Name = ZINC08263059
REMARK  4 active torsions:
REMARK  status: ('A' for Active; 'I' for Inactive)
REMARK    1  A    between atoms: C_1  and  C_2
REMARK    2  A    between atoms: C_7  and  C_8
REMARK    3  A    between atoms: C_13  and  C_16
REMARK    4  A    between atoms: N_18  and  N_19
REMARK                            x       y       z     vdW  Elec       q    Type
REMARK                         _______ _______ _______ _____ _____    ______ ____
ROOT
ATOM      1  C   UNL     1      -1.302  -2.429   6.934  0.00  0.00    +0.233 C 
ATOM      2  O   UNL     1      -1.966  -3.380   6.577  0.00  0.00    -0.274 OA
ATOM      3  N   UNL     1      -1.422  -1.956   8.190  0.00  0.00    -0.223 N 
ATOM      4  H   UNL     1      -0.891  -1.196   8.475  0.00  0.00    +0.174 HD
ENDROOT
BRANCH   3   5
ATOM      5  N   UNL     1      -2.314  -2.563   9.084  0.00  0.00    -0.137 N 
ATOM      6  C   UNL     1      -3.503  -2.037   9.443  0.00  0.00    +0.263 C 
ATOM      7  O   UNL     1      -3.986  -0.990   9.067  0.00  0.00    -0.271 OA
ATOM      8  C   UNL     1      -4.108  -3.028  10.411  0.00  0.00    +0.114 C 
ATOM      9  C   UNL     1      -4.319  -2.379  11.774  0.00  0.00    +0.035 C 
ATOM     10  C   UNL     1      -4.902  -3.406  12.747  0.00  0.00    +0.003 C 
ATOM     11  C   UNL     1      -6.233  -3.927  12.200  0.00  0.00    +0.000 C 
ATOM     12  C   UNL     1      -6.001  -4.596  10.843  0.00  0.00    +0.003 C 
ATOM     13  C   UNL     1      -5.422  -3.572   9.863  0.00  0.00    +0.035 C 
ATOM     14  N   UNL     1      -3.105  -4.097  10.500  0.00  0.00    -0.284 N 
ATOM     15  C   UNL     1      -2.094  -3.739   9.685  0.00  0.00    +0.326 C 
ATOM     16  O   UNL     1      -1.092  -4.407   9.517  0.00  0.00    -0.251 OA
ATOM     17  H   UNL     1      -3.161  -4.903  11.036  0.00  0.00    +0.151 HD
ENDBRANCH   3   5
BRANCH   1  23
ATOM     18  C   UNL     1       0.126   0.181   2.391  0.00  0.00    +0.247 C 
ATOM     19  O   UNL     1      -0.021   1.386   2.333  0.00  0.00    -0.270 OA
ATOM     20  N   UNL     1       0.323  -0.417   3.583  0.00  0.00    -0.297 N 
ATOM     21  C   UNL     1       0.601  -1.858   3.660  0.00  0.00    +0.109 C 
ATOM     22  C   UNL     1      -0.400  -2.502   4.625  0.00  0.00    +0.032 C 
ATOM     23  C   UNL     1      -0.343  -1.777   5.971  0.00  0.00    +0.079 C 
ATOM     24  C   UNL     1      -0.732  -0.309   5.780  0.00  0.00    +0.032 C 
ATOM     25  C   UNL     1       0.271   0.360   4.828  0.00  0.00    +0.109 C 
BRANCH  18  32
ATOM     26  C   UNL     1      -2.173   0.346   0.642  0.00  0.00    +0.044 C 
ATOM     27  C   UNL     1      -1.015  -0.557   0.303  0.00  0.00    -0.038 A 
ATOM     28  C   UNL     1      -1.041  -1.311  -0.852  0.00  0.00    +0.004 A 
ATOM     29  C   UNL     1       0.021  -2.141  -1.164  0.00  0.00    +0.000 A 
ATOM     30  C   UNL     1       1.116  -2.220  -0.322  0.00  0.00    +0.001 A 
ATOM     31  C   UNL     1       1.155  -1.472   0.836  0.00  0.00    +0.013 A 
ATOM     32  C   UNL     1       0.089  -0.629   1.155  0.00  0.00    +0.040 A 
ENDBRANCH  18  32
ENDBRANCH   1  23
TORSDOF 3
