REMARK  Name = ZINC39666523
REMARK  8 active torsions:
REMARK  status: ('A' for Active; 'I' for Inactive)
REMARK    1  A    between atoms: C_1  and  C_2
REMARK    2  A    between atoms: C_2  and  C_4
REMARK    3  A    between atoms: C_2  and  O_27
REMARK    4  A    between atoms: C_4  and  N_5
REMARK    5  A    between atoms: C_6  and  C_8
REMARK    6  A    between atoms: C_19  and  C_21
REMARK    7  A    between atoms: N_25  and  C_26
REMARK    8  A    between atoms: O_27  and  C_28
REMARK                            x       y       z     vdW  Elec       q    Type
REMARK                         _______ _______ _______ _____ _____    ______ ____
ROOT
ATOM      1  C   UNL     1       1.750  -3.295  -2.878  0.00  0.00    +0.100 C 
ATOM      2  C   UNL     1       0.270  -3.731  -2.958  0.00  0.00    +0.121 C 
ATOM      3  N   UNL     1       0.080  -4.153  -4.366  0.00  0.00    -0.295 N 
ATOM      4  C   UNL     1       1.334  -4.865  -4.710  0.00  0.00    +0.115 C 
ATOM      5  C   UNL     1       2.446  -4.044  -4.027  0.00  0.00    -0.004 C 
ATOM      6  C   UNL     1       3.525  -4.971  -3.477  0.00  0.00    -0.010 C 
ATOM      7  C   UNL     1       4.241  -5.661  -4.641  0.00  0.00    -0.082 C 
ATOM      8  N   UNL     1       4.840  -4.649  -5.519  0.00  0.00    +0.379 N 
ATOM      9  C   UNL     1       3.786  -3.820  -6.118  0.00  0.00    -0.082 C 
ATOM     10  C   UNL     1       3.050  -3.052  -5.016  0.00  0.00    -0.010 C 
ATOM     11  C   UNL     1      -0.991  -3.939  -5.155  0.00  0.00    +0.263 C 
ATOM     12  O   UNL     1      -1.003  -4.365  -6.295  0.00  0.00    -0.268 OA
ATOM     13  H   UNL     1       5.461  -4.064  -4.981  0.00  0.00    -0.086 HD
ATOM     14  H   UNL     1       5.362  -5.106  -6.251  0.00  0.00    -0.086 HD
ENDROOT
BRANCH  11  15
ATOM     15  C   UNL     1      -2.144  -3.191  -4.640  0.00  0.00    +0.104 A 
ATOM     16  C   UNL     1      -2.389  -2.880  -3.320  0.00  0.00    +0.032 A 
ATOM     17  C   UNL     1      -3.589  -2.163  -3.283  0.00  0.00    +0.020 A 
ATOM     18  C   UNL     1      -4.046  -2.052  -4.553  0.00  0.00    +0.086 A 
ATOM     19  N   UNL     1      -3.174  -2.668  -5.388  0.00  0.00    -0.346 N 
ATOM     20  C   UNL     1      -3.307  -2.763  -6.844  0.00  0.00    +0.149 C 
ENDBRANCH  11  15
BRANCH   1  22
ATOM     21  N   UNL     1       2.959  -1.152  -2.626  0.00  0.00    -0.312 N 
ATOM     22  C   UNL     1       1.870  -1.806  -3.075  0.00  0.00    +0.218 C 
ATOM     23  O   UNL     1       0.985  -1.196  -3.638  0.00  0.00    -0.275 OA
ATOM     24  H   UNL     1       3.667  -1.639  -2.176  0.00  0.00    +0.149 HD
BRANCH  21  25
ATOM     25  C   UNL     1       3.075   0.296  -2.818  0.00  0.00    +0.148 C 
BRANCH  25  27
ATOM     26  C   UNL     1       4.461   2.312  -2.309  0.00  0.00    +0.053 C 
ATOM     27  C   UNL     1       4.396   0.785  -2.221  0.00  0.00    +0.187 C 
BRANCH  27  28
ATOM     28  O   UNL     1       5.487   0.219  -2.950  0.00  0.00    -0.486 OA
BRANCH  28  29
ATOM     29  C   UNL     1       6.686   0.150  -2.312  0.00  0.00    +0.139 A 
ATOM     30  C   UNL     1       6.793   0.552  -0.989  0.00  0.00    +0.047 A 
ATOM     31  C   UNL     1       8.012   0.480  -0.343  0.00  0.00    +0.004 A 
ATOM     32  C   UNL     1       9.125   0.009  -1.014  0.00  0.00    +0.002 A 
ATOM     33  C   UNL     1       9.022  -0.391  -2.333  0.00  0.00    +0.023 A 
ATOM     34  C   UNL     1       7.803  -0.328  -2.982  0.00  0.00    +0.083 A 
ATOM     35 CL   UNL     1       7.672  -0.838  -4.637  0.00  0.00    -0.080 Cl
ENDBRANCH  28  29
ENDBRANCH  27  28
ENDBRANCH  25  27
ENDBRANCH  21  25
ENDBRANCH   1  22
TORSDOF 6
