REMARK  Name = ZINC40304506
REMARK  7 active torsions:
REMARK  status: ('A' for Active; 'I' for Inactive)
REMARK    1  A    between atoms: C_1  and  C_2
REMARK    2  A    between atoms: C_2  and  C_3
REMARK    3  A    between atoms: C_7  and  C_22
REMARK    4  A    between atoms: C_11  and  C_13
REMARK    5  A    between atoms: C_15  and  N_21
REMARK    6  A    between atoms: C_18  and  O_19
REMARK    7  A    between atoms: O_19  and  C_20
REMARK                            x       y       z     vdW  Elec       q    Type
REMARK                         _______ _______ _______ _____ _____    ______ ____
ROOT
ATOM      1  C   UNL     1      -0.885  -1.106  -0.443  0.00  0.00    +0.102 C 
ATOM      2  C   UNL     1       0.034  -2.315  -0.652  0.00  0.00    +0.182 C 
ATOM      3  O   UNL     1      -0.700  -3.358  -1.298  0.00  0.00    -0.373 OA
ATOM      4  C   UNL     1      -1.174  -3.019  -2.603  0.00  0.00    +0.133 C 
ATOM      5  C   UNL     1      -2.155  -1.846  -2.494  0.00  0.00    +0.139 C 
ATOM      6  N   UNL     1      -1.506  -0.766  -1.733  0.00  0.00    -0.290 N 
ATOM      7  C   UNL     1      -1.480   0.496  -2.204  0.00  0.00    +0.251 C 
ATOM      8  O   UNL     1      -0.870   1.358  -1.601  0.00  0.00    -0.270 OA
ATOM      9  C   UNL     1      -1.886  -4.226  -3.218  0.00  0.00    +0.039 C 
ENDROOT
BRANCH   7  10
ATOM     10  C   UNL     1      -2.193   0.833  -3.452  0.00  0.00    +0.080 A 
ATOM     11  C   UNL     1      -3.383   0.179  -3.778  0.00  0.00    +0.039 A 
ATOM     12  C   UNL     1      -4.046   0.501  -4.950  0.00  0.00    +0.025 A 
ATOM     13  C   UNL     1      -3.529   1.472  -5.801  0.00  0.00    +0.026 A 
ATOM     14  C   UNL     1      -2.354   2.122  -5.484  0.00  0.00    +0.048 A 
ATOM     15  C   UNL     1      -1.681   1.814  -4.311  0.00  0.00    +0.132 A 
BRANCH  12  16
ATOM     16  N   UNL     1      -5.239  -0.153  -5.279  0.00  0.00    -0.358 N 
ATOM     17  H   UNL     1      -5.600  -0.831  -4.687  0.00  0.00    +0.142 HD
ATOM     18  H   UNL     1      -5.704   0.071  -6.100  0.00  0.00    +0.142 HD
ENDBRANCH  12  16
BRANCH  15  19
ATOM     19  O   UNL     1      -0.528   2.458  -3.999  0.00  0.00    -0.494 OA
ATOM     20  C   UNL     1      -0.066   3.446  -4.922  0.00  0.00    +0.277 C 
ENDBRANCH  15  19
ENDBRANCH   7  10
BRANCH   1  22
ATOM     21  C   UNL     1       0.602  -0.286   1.390  0.00  0.00    +0.006 C 
ATOM     22  C   UNL     1      -0.065   0.082   0.063  0.00  0.00    +0.021 C 
ENDBRANCH   1  22
TORSDOF 4
