REMARK  Name = ZINC04852364
REMARK  7 active torsions:
REMARK  status: ('A' for Active; 'I' for Inactive)
REMARK    1  A    between atoms: C_1  and  C_2
REMARK    2  A    between atoms: C_6  and  N_9
REMARK    3  A    between atoms: C_7  and  C_8
REMARK    4  A    between atoms: C_10  and  C_12
REMARK    5  A    between atoms: C_13  and  N_25
REMARK    6  A    between atoms: N_14  and  C_17
REMARK    7  A    between atoms: C_17  and  C_18
REMARK                            x       y       z     vdW  Elec       q    Type
REMARK                         _______ _______ _______ _____ _____    ______ ____
ROOT
ATOM      1  C   UNL     1       3.337   2.751   0.594  0.00  0.00    +0.188 A 
ATOM      2  C   UNL     1       2.115   2.306   1.081  0.00  0.00    +0.147 A 
ATOM      3  N   UNL     1       1.346   2.038  -0.001  0.00  0.00    -0.226 N 
ATOM      4  N   UNL     1       2.117   2.335  -1.132  0.00  0.00    -0.063 NA
ATOM      5  N   UNL     1       3.275   2.749  -0.751  0.00  0.00    -0.123 NA
ENDROOT
BRANCH   1   7
ATOM      6  N   UNL     1       5.623   3.576   0.801  0.00  0.00    -0.280 N 
ATOM      7  C   UNL     1       4.492   3.157   1.403  0.00  0.00    +0.272 C 
ATOM      8  O   UNL     1       4.429   3.115   2.618  0.00  0.00    -0.268 OA
ATOM      9  H   UNL     1       5.702   3.533  -0.165  0.00  0.00    +0.155 HD
BRANCH   6  15
ATOM     10  C   UNL     1      10.433   4.456   1.309  0.00  0.00    +0.044 C 
ATOM     11  C   UNL     1       9.023   4.511   1.839  0.00  0.00    -0.046 A 
ATOM     12  C   UNL     1       8.776   5.053   3.088  0.00  0.00    +0.004 A 
ATOM     13  C   UNL     1       7.484   5.105   3.578  0.00  0.00    +0.002 A 
ATOM     14  C   UNL     1       6.436   4.616   2.823  0.00  0.00    +0.023 A 
ATOM     15  C   UNL     1       6.681   4.072   1.569  0.00  0.00    +0.037 A 
ATOM     16  C   UNL     1       7.981   4.016   1.081  0.00  0.00    -0.026 A 
ATOM     17  C   UNL     1       8.252   3.420  -0.276  0.00  0.00    +0.046 C 
ENDBRANCH   6  15
ENDBRANCH   1   7
BRANCH   2  18
ATOM     18  N   UNL     1       1.756   2.163   2.406  0.00  0.00    -0.341 N 
ATOM     19  H   UNL     1       0.871   1.839   2.636  0.00  0.00    +0.144 HD
ATOM     20  H   UNL     1       2.388   2.385   3.107  0.00  0.00    +0.144 HD
ENDBRANCH   2  18
BRANCH   3  21
ATOM     21  C   UNL     1      -0.031   1.538   0.009  0.00  0.00    +0.182 C 
BRANCH  21  22
ATOM     22  C   UNL     1      -0.019   0.031  -0.007  0.00  0.00    -0.026 A 
ATOM     23  C   UNL     1      -0.033  -0.646  -1.212  0.00  0.00    +0.006 A 
ATOM     24  C   UNL     1      -0.017  -2.028  -1.228  0.00  0.00    +0.015 A 
ATOM     25  C   UNL     1       0.002  -2.733  -0.038  0.00  0.00    +0.018 A 
ATOM     26  C   UNL     1       0.011  -2.055   1.167  0.00  0.00    +0.015 A 
ATOM     27  C   UNL     1       0.000  -0.673   1.182  0.00  0.00    +0.006 A 
ATOM     28 BR   UNL     1       0.018  -4.624  -0.059  0.00  0.00    -0.050 Br
ENDBRANCH  21  22
ENDBRANCH   3  21
TORSDOF 5
