REMARK  Name = ZINC01045908
REMARK  4 active torsions:
REMARK  status: ('A' for Active; 'I' for Inactive)
REMARK    1  A    between atoms: C_4  and  S_8
REMARK    2  A    between atoms: C_5  and  N_7
REMARK    3  A    between atoms: S_8  and  C_9
REMARK    4  A    between atoms: N_14  and  C_17
REMARK                            x       y       z     vdW  Elec       q    Type
REMARK                         _______ _______ _______ _____ _____    ______ ____
ROOT
ATOM      1  C   UNL     1       5.149   0.371  -0.122  0.00  0.00    +0.147 C 
ATOM      2  C   UNL     1       6.648   0.070   0.082  0.00  0.00    +0.120 C 
ATOM      3  C   UNL     1       7.293   0.614  -1.174  0.00  0.00    +0.228 C 
ATOM      4  O   UNL     1       8.479   0.582  -1.425  0.00  0.00    -0.275 OA
ATOM      5  N   UNL     1       6.348   1.135  -1.965  0.00  0.00    -0.209 N 
ATOM      6  C   UNL     1       5.102   1.055  -1.471  0.00  0.00    +0.240 C 
ATOM      7  O   UNL     1       4.099   1.463  -2.017  0.00  0.00    -0.274 OA
ENDROOT
BRANCH   5   8
ATOM      8  C   UNL     1       6.634   1.719  -3.207  0.00  0.00    +0.047 A 
ATOM      9  C   UNL     1       6.460   3.084  -3.390  0.00  0.00    +0.044 A 
ATOM     10  C   UNL     1       6.744   3.657  -4.616  0.00  0.00    +0.044 A 
ATOM     11  C   UNL     1       7.200   2.872  -5.660  0.00  0.00    +0.040 A 
ATOM     12  C   UNL     1       7.373   1.511  -5.479  0.00  0.00    +0.044 A 
ATOM     13  C   UNL     1       7.097   0.934  -4.254  0.00  0.00    +0.044 A 
ATOM     14 CL   UNL     1       7.946   0.528  -6.791  0.00  0.00    -0.083 Cl
ATOM     15 CL   UNL     1       6.527   5.364  -4.846  0.00  0.00    -0.083 Cl
ENDBRANCH   5   8
BRANCH   1  16
ATOM     16  S   UNL     1       4.188  -1.167  -0.152  0.00  0.00    -0.110 S 
BRANCH  16  20
ATOM     17  C   UNL     1      -0.106   0.233  -0.549  0.00  0.00    +0.002 A 
ATOM     18  C   UNL     1       0.922   1.157  -0.494  0.00  0.00    +0.001 A 
ATOM     19  C   UNL     1       2.232   0.733  -0.372  0.00  0.00    +0.016 A 
ATOM     20  C   UNL     1       2.519  -0.623  -0.306  0.00  0.00    +0.029 A 
ATOM     21  C   UNL     1       1.482  -1.555  -0.362  0.00  0.00    +0.038 A 
ATOM     22  C   UNL     1       0.171  -1.120  -0.484  0.00  0.00    +0.024 A 
BRANCH  21  23
ATOM     23  N   UNL     1       1.764  -2.924  -0.295  0.00  0.00    -0.357 N 
ATOM     24  H   UNL     1       2.682  -3.227  -0.211  0.00  0.00    +0.142 HD
ATOM     25  H   UNL     1       1.042  -3.571  -0.334  0.00  0.00    +0.142 HD
ENDBRANCH  21  23
ENDBRANCH  16  20
ENDBRANCH   1  16
TORSDOF 4
