REMARK  Name = ZINC37822498
REMARK  5 active torsions:
REMARK  status: ('A' for Active; 'I' for Inactive)
REMARK    1  A    between atoms: C_6  and  C_7
REMARK    2  A    between atoms: C_14  and  C_16
REMARK    3  A    between atoms: C_16  and  N_17
REMARK    4  A    between atoms: C_18  and  C_20
REMARK    5  A    between atoms: C_20  and  N_21
REMARK                            x       y       z     vdW  Elec       q    Type
REMARK                         _______ _______ _______ _____ _____    ______ ____
ROOT
ATOM      1  C   UNL     1      -1.293  -0.775   0.011  0.00  0.00    +0.166 C 
ATOM      2  C   UNL     1      -1.617  -1.247  -1.411  0.00  0.00    +0.144 C 
ATOM      3  N   UNL     1      -2.777  -2.150  -1.347  0.00  0.00    -0.295 N 
ATOM      4  C   UNL     1      -2.740  -3.257  -0.379  0.00  0.00    +0.136 C 
ATOM      5  C   UNL     1      -2.361  -2.687   0.993  0.00  0.00    +0.179 C 
ATOM      6  O   UNL     1      -1.166  -1.912   0.868  0.00  0.00    -0.369 OA
ATOM      7  C   UNL     1      -3.844  -1.968  -2.151  0.00  0.00    +0.233 C 
ATOM      8  O   UNL     1      -3.856  -1.049  -2.943  0.00  0.00    -0.274 OA
ENDROOT
BRANCH   1  14
ATOM      9  C   UNL     1      -0.017   1.378   0.010  0.00  0.00    +0.007 A 
ATOM     10  C   UNL     1       1.171   2.086   0.002  0.00  0.00    +0.020 A 
ATOM     11  C   UNL     1       2.378   1.410  -0.013  0.00  0.00    +0.041 A 
ATOM     12  C   UNL     1       2.396   0.027  -0.021  0.00  0.00    +0.020 A 
ATOM     13  C   UNL     1       1.208  -0.679  -0.013  0.00  0.00    +0.007 A 
ATOM     14  C   UNL     1       0.002  -0.004   0.002  0.00  0.00    -0.017 A 
ATOM     15 CL   UNL     1       3.870   2.298  -0.023  0.00  0.00    -0.084 Cl
ENDBRANCH   1  14
BRANCH   7  16
ATOM     16  C   UNL     1      -5.020  -2.905  -2.067  0.00  0.00    +0.200 C 
BRANCH  16  17
ATOM     17  N   UNL     1      -6.040  -2.498  -3.036  0.00  0.00    -0.308 N 
ATOM     18  C   UNL     1      -7.189  -3.195  -3.140  0.00  0.00    +0.196 C 
ATOM     19  O   UNL     1      -7.378  -4.161  -2.431  0.00  0.00    -0.278 OA
ATOM     20  H   UNL     1      -5.889  -1.725  -3.603  0.00  0.00    +0.149 HD
BRANCH  18  21
ATOM     21  C   UNL     1      -8.238  -2.776  -4.136  0.00  0.00    +0.011 C 
BRANCH  21  22
ATOM     22  N   UNL     1      -9.385  -3.690  -4.054  0.00  0.00    +0.384 N 
ATOM     23  H   UNL     1      -9.081  -4.630  -4.261  0.00  0.00    -0.089 HD
ATOM     24  H   UNL     1      -9.774  -3.659  -3.123  0.00  0.00    -0.089 HD
ATOM     25  H   UNL     1     -10.088  -3.409  -4.721  0.00  0.00    -0.089 HD
ENDBRANCH  21  22
ENDBRANCH  18  21
ENDBRANCH  16  17
ENDBRANCH   7  16
TORSDOF 5
