REMARK  Name = ZINC08764566
REMARK  17 active torsions:
REMARK  status: ('A' for Active; 'I' for Inactive)
REMARK    1  A    between atoms: C_1  and  C_2
REMARK    2  A    between atoms: C_3  and  C_37
REMARK    3  A    between atoms: C_9  and  C_36
REMARK    4  A    between atoms: C_10  and  C_16
REMARK    5  A    between atoms: C_16  and  C_17
REMARK    6  A    between atoms: N_19  and  C_20
REMARK    7  A    between atoms: N_19  and  C_21
REMARK    8  A    between atoms: C_21  and  C_22
REMARK    9  A    between atoms: C_22  and  C_24
REMARK   10  A    between atoms: C_22  and  O_35
REMARK   11  A    between atoms: C_24  and  C_26
REMARK   12  A    between atoms: C_24  and  O_34
REMARK   13  A    between atoms: C_26  and  C_28
REMARK   14  A    between atoms: C_26  and  O_33
REMARK   15  A    between atoms: C_28  and  C_30
REMARK   16  A    between atoms: C_28  and  O_32
REMARK   17  A    between atoms: C_30  and  O_31
REMARK                            x       y       z     vdW  Elec       q    Type
REMARK                         _______ _______ _______ _____ _____    ______ ____
ROOT
ATOM      1  C   UNL     1      -1.393   0.239   2.939  0.00  0.00    +0.220 C 
ATOM      2  O   UNL     1      -2.317  -0.151   2.257  0.00  0.00    -0.275 OA
ATOM      3  N   UNL     1      -1.636   0.873   4.104  0.00  0.00    -0.302 N 
ATOM      4  C   UNL     1      -0.520   1.344   4.928  0.00  0.00    +0.132 C 
ENDROOT
BRANCH   1   5
ATOM      5  C   UNL     1       0.026   0.017   2.485  0.00  0.00    +0.138 C 
BRANCH   5  15
ATOM      6  C   UNL     1      -0.091   0.922  -5.676  0.00  0.00    +0.048 C 
ATOM      7  C   UNL     1      -0.064  -0.465  -5.087  0.00  0.00    -0.002 A 
ATOM      8  C   UNL     1      -0.058  -1.623  -5.758  0.00  0.00    +0.106 A 
ATOM      9  O   UNL     1      -0.032  -2.659  -4.900  0.00  0.00    -0.460 OA
ATOM     10  C   UNL     1      -0.020  -2.227  -3.622  0.00  0.00    +0.139 A 
ATOM     11  C   UNL     1      -0.039  -0.818  -3.660  0.00  0.00    +0.024 A 
ATOM     12  C   UNL     1      -0.032  -0.081  -2.484  0.00  0.00    +0.023 A 
ATOM     13  C   UNL     1      -0.006  -0.750  -1.260  0.00  0.00    +0.022 A 
ATOM     14  C   UNL     1       0.002  -0.004   0.002  0.00  0.00    -0.029 A 
ATOM     15  C   UNL     1       0.023  -0.707   1.163  0.00  0.00    +0.049 A 
ATOM     16  C   UNL     1       0.041  -2.118   1.129  0.00  0.00    +0.341 A 
ATOM     17  O   UNL     1       0.059  -2.736   2.178  0.00  0.00    -0.245 OA
ATOM     18  O   UNL     1       0.039  -2.796  -0.029  0.00  0.00    -0.422 OA
ATOM     19  C   UNL     1       0.019  -2.160  -1.222  0.00  0.00    +0.143 A 
ATOM     20  C   UNL     1       0.017  -2.884  -2.401  0.00  0.00    +0.093 A 
ATOM     21  C   UNL     1      -0.018   1.503   0.010  0.00  0.00    +0.045 C 
ATOM     22  C   UNL     1      -0.077  -1.749  -7.259  0.00  0.00    +0.086 C 
ENDBRANCH   5  15
ENDBRANCH   1   5
BRANCH   3  23
ATOM     23  C   UNL     1      -3.016   1.089   4.546  0.00  0.00    +0.141 C 
BRANCH  23  24
ATOM     24  C   UNL     1      -3.473  -0.100   5.392  0.00  0.00    +0.163 C 
BRANCH  24  25
ATOM     25  O   UNL     1      -2.697  -0.158   6.591  0.00  0.00    -0.388 OA
ATOM     26  H   UNL     1      -2.769   0.631   7.145  0.00  0.00    +0.210 HD
ENDBRANCH  24  25
BRANCH  24  27
ATOM     27  C   UNL     1      -4.951   0.066   5.750  0.00  0.00    +0.175 C 
BRANCH  27  28
ATOM     28  O   UNL     1      -5.728   0.124   4.551  0.00  0.00    -0.387 OA
ATOM     29  H   UNL     1      -5.655  -0.665   3.997  0.00  0.00    +0.210 HD
ENDBRANCH  27  28
BRANCH  27  30
ATOM     30  C   UNL     1      -5.409  -1.124   6.596  0.00  0.00    +0.176 C 
BRANCH  30  31
ATOM     31  O   UNL     1      -5.123  -2.340   5.902  0.00  0.00    -0.387 OA
ATOM     32  H   UNL     1      -5.563  -2.415   5.044  0.00  0.00    +0.210 HD
ENDBRANCH  30  31
BRANCH  30  33
ATOM     33  C   UNL     1      -6.914  -1.021   6.849  0.00  0.00    +0.171 C 
BRANCH  33  34
ATOM     34  O   UNL     1      -7.199   0.195   7.543  0.00  0.00    -0.387 OA
ATOM     35  H   UNL     1      -6.760   0.270   8.401  0.00  0.00    +0.210 HD
ENDBRANCH  33  34
BRANCH  33  36
ATOM     36  C   UNL     1      -7.371  -2.211   7.695  0.00  0.00    +0.189 C 
BRANCH  36  37
ATOM     37  O   UNL     1      -8.793  -2.179   7.833  0.00  0.00    -0.392 OA
ATOM     38  H   UNL     1      -9.154  -2.906   8.360  0.00  0.00    +0.210 HD
ENDBRANCH  36  37
ENDBRANCH  33  36
ENDBRANCH  30  33
ENDBRANCH  27  30
ENDBRANCH  24  27
ENDBRANCH  23  24
ENDBRANCH   3  23
TORSDOF 13
