REMARK  Name = ZINC36743193
REMARK  8 active torsions:
REMARK  status: ('A' for Active; 'I' for Inactive)
REMARK    1  A    between atoms: C_1  and  C_2
REMARK    2  A    between atoms: C_2  and  N_3
REMARK    3  A    between atoms: N_3  and  C_4
REMARK    4  A    between atoms: N_3  and  S_6
REMARK    5  A    between atoms: C_4  and  C_5
REMARK    6  A    between atoms: S_6  and  N_9
REMARK    7  A    between atoms: N_9  and  C_10
REMARK    8  A    between atoms: C_11  and  N_18
REMARK                            x       y       z     vdW  Elec       q    Type
REMARK                         _______ _______ _______ _____ _____    ______ ____
ROOT
ATOM      1  C   UNL     1       3.678   0.332   2.919  0.00  0.00    +0.084 A 
ATOM      2  C   UNL     1       4.405  -0.746   3.425  0.00  0.00    +0.049 A 
ATOM      3  C   UNL     1       4.843  -0.725   4.741  0.00  0.00    +0.040 A 
ATOM      4  C   UNL     1       4.559   0.363   5.548  0.00  0.00    +0.021 A 
ATOM      5  C   UNL     1       3.837   1.431   5.046  0.00  0.00    +0.032 A 
ATOM      6  C   UNL     1       3.402   1.421   3.733  0.00  0.00    +0.043 A 
ATOM      7 BR   UNL     1       2.423   2.887   3.049  0.00  0.00    -0.048 Br
ATOM      8 BR   UNL     1       5.157   0.389   7.341  0.00  0.00    -0.050 Br
ENDROOT
BRANCH   2   9
ATOM      9  N   UNL     1       4.692  -1.845   2.608  0.00  0.00    -0.356 N 
ATOM     10  H   UNL     1       4.384  -1.859   1.688  0.00  0.00    +0.142 HD
ATOM     11  H   UNL     1       5.198  -2.594   2.961  0.00  0.00    +0.142 HD
ENDBRANCH   2   9
BRANCH   1  12
ATOM     12  N   UNL     1       3.233   0.316   1.591  0.00  0.00    -0.204 N 
ATOM     13  H   UNL     1       3.622   0.922   0.942  0.00  0.00    +0.175 HD
BRANCH  12  14
ATOM     14  S   UNL     1       2.041  -0.737   1.129  0.00  0.00    +0.112 S 
ATOM     15  O   UNL     1       2.304  -1.965   1.795  0.00  0.00    -0.138 OA
ATOM     16  O   UNL     1       1.941  -0.643  -0.285  0.00  0.00    -0.138 OA
BRANCH  14  17
ATOM     17  N   UNL     1       0.615  -0.163   1.744  0.00  0.00    -0.164 NA
BRANCH  17  19
ATOM     18  C   UNL     1      -0.008   2.119   1.120  0.00  0.00    +0.022 C 
ATOM     19  C   UNL     1      -0.281   0.630   0.898  0.00  0.00    +0.107 C 
ENDBRANCH  17  19
BRANCH  17  20
ATOM     20  C   UNL     1       0.248  -0.446   3.134  0.00  0.00    +0.107 C 
ATOM     21  C   UNL     1      -0.667  -1.671   3.180  0.00  0.00    +0.022 C 
ENDBRANCH  17  20
ENDBRANCH  14  17
ENDBRANCH  12  14
ENDBRANCH   1  12
TORSDOF 6
