REMARK  Name = ZINC52066921
REMARK  12 active torsions:
REMARK  status: ('A' for Active; 'I' for Inactive)
REMARK    1  A    between atoms: C_1  and  C_2
REMARK    2  A    between atoms: C_2  and  C_4
REMARK    3  A    between atoms: C_2  and  N_22
REMARK    4  A    between atoms: C_9  and  O_10
REMARK    5  A    between atoms: O_10  and  C_11
REMARK    6  A    between atoms: C_11  and  C_13
REMARK    7  A    between atoms: C_11  and  C_14
REMARK    8  A    between atoms: N_16  and  C_17
REMARK    9  A    between atoms: C_17  and  C_18
REMARK   10  A    between atoms: C_17  and  C_19
REMARK   11  A    between atoms: C_17  and  C_20
REMARK   12  A    between atoms: N_22  and  C_23
REMARK                            x       y       z     vdW  Elec       q    Type
REMARK                         _______ _______ _______ _____ _____    ______ ____
ROOT
ATOM      1  C   UNL     1      -1.501  -0.332   0.024  0.00  0.00    -0.019 A 
ATOM      2  C   UNL     1      -2.104  -0.671   1.219  0.00  0.00    +0.020 A 
ATOM      3  C   UNL     1      -3.313  -1.344   1.219  0.00  0.00    +0.018 A 
ATOM      4  C   UNL     1      -3.920  -1.679   0.021  0.00  0.00    +0.019 A 
ATOM      5  C   UNL     1      -3.320  -1.341  -1.176  0.00  0.00    +0.047 A 
ATOM      6  C   UNL     1      -2.110  -0.662  -1.178  0.00  0.00    +0.123 A 
ATOM      7 BR   UNL     1      -4.136  -1.807   2.857  0.00  0.00    -0.050 Br
ENDROOT
BRANCH   1   9
ATOM      8  C   UNL     1      -0.438   1.906  -0.090  0.00  0.00    -0.009 C 
ATOM      9  C   UNL     1      -0.184   0.401   0.025  0.00  0.00    -0.041 C 
BRANCH   9  10
ATOM     10  N   UNL     1       0.532   0.120   1.276  0.00  0.00    +0.382 N 
ATOM     11  C   UNL     1       1.865   0.736   1.227  0.00  0.00    -0.100 C 
ATOM     12  H   UNL     1       0.013   0.501   2.054  0.00  0.00    -0.085 HD
ATOM     13  H   UNL     1       0.627  -0.878   1.392  0.00  0.00    -0.085 HD
ENDBRANCH   9  10
ENDBRANCH   1   9
BRANCH   6  14
ATOM     14  O   UNL     1      -1.521  -0.324  -2.355  0.00  0.00    -0.480 OA
BRANCH  14  15
ATOM     15  C   UNL     1      -2.258  -0.592  -3.550  0.00  0.00    +0.255 C 
ATOM     16  C   UNL     1      -2.019  -2.040  -3.982  0.00  0.00    +0.062 C 
BRANCH  15  17
ATOM     17  C   UNL     1      -1.800   0.340  -4.642  0.00  0.00    +0.254 C 
ATOM     18  O   UNL     1      -0.869   1.091  -4.447  0.00  0.00    -0.272 OA
ATOM     19  N   UNL     1      -2.427   0.339  -5.835  0.00  0.00    -0.308 N 
ATOM     20  H   UNL     1      -3.172  -0.262  -5.991  0.00  0.00    +0.149 HD
BRANCH  19  21
ATOM     21  C   UNL     1      -1.983   1.246  -6.896  0.00  0.00    +0.026 C 
ATOM     22  C   UNL     1      -0.523   0.946  -7.245  0.00  0.00    +0.031 C 
ATOM     23  C   UNL     1      -2.855   1.045  -8.137  0.00  0.00    +0.031 C 
ATOM     24  C   UNL     1      -2.106   2.693  -6.416  0.00  0.00    +0.031 C 
ENDBRANCH  19  21
ENDBRANCH  15  17
ENDBRANCH  14  15
ENDBRANCH   6  14
TORSDOF 6
