REMARK  Name = ZINC20487491
REMARK  9 active torsions:
REMARK  status: ('A' for Active; 'I' for Inactive)
REMARK    1  A    between atoms: C_1  and  C_2
REMARK    2  A    between atoms: C_5  and  C_25
REMARK    3  A    between atoms: C_6  and  N_8
REMARK    4  A    between atoms: C_9  and  C_11
REMARK    5  A    between atoms: C_11  and  C_12
REMARK    6  A    between atoms: C_12  and  N_13
REMARK    7  A    between atoms: N_13  and  S_14
REMARK    8  A    between atoms: S_14  and  C_17
REMARK    9  A    between atoms: C_22  and  N_23
REMARK                            x       y       z     vdW  Elec       q    Type
REMARK                         _______ _______ _______ _____ _____    ______ ____
ROOT
ATOM      1  N   UNL     1       1.136   3.709   1.170  0.00  0.00    -0.189 NA
ATOM      2  H   UNL     1       1.134   4.354   2.061  0.00  0.00    +0.148 HD
ENDROOT
BRANCH   1   3
ATOM      3  S   UNL     1       0.182   4.114  -0.122  0.00  0.00    +0.062 S 
ATOM      4  O   UNL     1       0.934   3.817  -1.291  0.00  0.00    -0.153 OA
ATOM      5  O   UNL     1      -0.333   5.412   0.143  0.00  0.00    -0.153 OA
BRANCH   3   6
ATOM      6  C   UNL     1      -1.196   3.015  -0.117  0.00  0.00    +0.146 A 
ATOM      7  C   UNL     1      -1.385   2.123  -1.157  0.00  0.00    +0.048 A 
ATOM      8  C   UNL     1      -2.488   1.280  -1.115  0.00  0.00    +0.038 A 
ATOM      9  C   UNL     1      -3.353   1.352  -0.040  0.00  0.00    +0.128 A 
ATOM     10  N   UNL     1      -3.144   2.209   0.940  0.00  0.00    -0.238 NA
ATOM     11  C   UNL     1      -2.104   3.030   0.936  0.00  0.00    +0.143 A 
ATOM     12 BR   UNL     1      -2.802   0.046  -2.513  0.00  0.00    -0.049 Br
BRANCH  11  13
ATOM     13  N   UNL     1      -1.923   3.917   1.991  0.00  0.00    -0.342 N 
ATOM     14  H   UNL     1      -2.638   3.933   2.826  0.00  0.00    +0.144 HD
ATOM     15  H   UNL     1      -1.063   4.604   1.990  0.00  0.00    +0.144 HD
ENDBRANCH  11  13
ENDBRANCH   3   6
ENDBRANCH   1   3
BRANCH   1  16
ATOM     16  C   UNL     1       1.798   2.404   1.211  0.00  0.00    +0.115 C 
BRANCH  16  17
ATOM     17  C   UNL     1       2.937   2.442   2.232  0.00  0.00    +0.113 C 
BRANCH  17  19
ATOM     18  N   UNL     1       4.659   0.896   3.107  0.00  0.00    -0.285 N 
ATOM     19  C   UNL     1       3.619   1.098   2.274  0.00  0.00    +0.218 C 
ATOM     20  O   UNL     1       3.232   0.199   1.558  0.00  0.00    -0.275 OA
ATOM     21  H   UNL     1       4.963   1.687   3.809  0.00  0.00    +0.155 HD
BRANCH  18  27
ATOM     22  C   UNL     1       4.706  -3.927   2.152  0.00  0.00    +0.044 C 
ATOM     23  C   UNL     1       5.398  -2.673   2.622  0.00  0.00    -0.049 A 
ATOM     24  C   UNL     1       6.719  -2.724   3.027  0.00  0.00    +0.004 A 
ATOM     25  C   UNL     1       7.358  -1.576   3.459  0.00  0.00    +0.005 A 
ATOM     26  C   UNL     1       6.677  -0.374   3.487  0.00  0.00    -0.029 A 
ATOM     27  C   UNL     1       5.351  -0.320   3.080  0.00  0.00    +0.037 A 
ATOM     28  C   UNL     1       4.711  -1.476   2.652  0.00  0.00    +0.027 A 
ATOM     29  C   UNL     1       7.374   0.876   3.958  0.00  0.00    +0.045 C 
ENDBRANCH  18  27
ENDBRANCH  17  19
ENDBRANCH  16  17
ENDBRANCH   1  16
TORSDOF 7
