REMARK  Name = ZINC39559817
REMARK  7 active torsions:
REMARK  status: ('A' for Active; 'I' for Inactive)
REMARK    1  A    between atoms: C_1  and  C_2
REMARK    2  A    between atoms: C_6  and  C_27
REMARK    3  A    between atoms: C_13  and  C_20
REMARK    4  A    between atoms: C_13  and  C_21
REMARK    5  A    between atoms: C_15  and  O_19
REMARK    6  A    between atoms: C_17  and  O_18
REMARK    7  A    between atoms: C_24  and  O_26
REMARK                            x       y       z     vdW  Elec       q    Type
REMARK                         _______ _______ _______ _____ _____    ______ ____
ROOT
ATOM      1  C   UNL     1       1.812   0.246  -1.254  0.00  0.00    +0.022 C 
ATOM      2  C   UNL     1       1.815  -1.246  -0.914  0.00  0.00    +0.055 C 
ATOM      3  C   UNL     1       0.473  -1.907  -1.208  0.00  0.00    +0.017 C 
ATOM      4  C   UNL     1      -0.630  -1.301  -0.348  0.00  0.00    +0.002 C 
ATOM      5  C   UNL     1      -0.189  -0.757   1.005  0.00  0.00    +0.014 C 
ATOM      6  C   UNL     1       0.957  -1.574   1.588  0.00  0.00    +0.029 C 
ATOM      7  C   UNL     1       2.060  -1.511   0.558  0.00  0.00    -0.003 C 
ATOM      8  C   UNL     1       3.352  -1.747   0.753  0.00  0.00    +0.171 C 
ATOM      9  C   UNL     1       3.841  -1.916   2.146  0.00  0.00    +0.226 C 
ATOM     10  O   UNL     1       5.004  -2.168   2.402  0.00  0.00    -0.284 OA
ATOM     11  C   UNL     1       2.805  -1.755   3.209  0.00  0.00    +0.034 C 
ATOM     12  C   UNL     1       3.061  -2.271   4.399  0.00  0.00    -0.006 C 
ATOM     13  C   UNL     1       2.101  -2.193   5.552  0.00  0.00    +0.007 C 
ATOM     14  C   UNL     1       1.185  -0.981   5.362  0.00  0.00    +0.049 C 
ATOM     15  C   UNL     1       0.507  -1.095   3.997  0.00  0.00    +0.153 C 
ATOM     16  C   UNL     1       1.541  -1.009   2.880  0.00  0.00    +0.129 C 
ATOM     17  C   UNL     1       1.257  -3.469   5.601  0.00  0.00    +0.020 C 
ATOM     18  O   UNL     1       4.007  -1.849  -0.425  0.00  0.00    -0.459 OA
ATOM     19  C   UNL     1       3.037  -1.978  -1.500  0.00  0.00    +0.315 C 
ATOM     20  C   UNL     1       0.508  -3.020   1.806  0.00  0.00    +0.019 C 
ENDROOT
BRANCH  16  21
ATOM     21  O   UNL     1       1.873   0.364   2.663  0.00  0.00    -0.380 OA
ATOM     22  H   UNL     1       2.253   0.804   3.435  0.00  0.00    +0.211 HD
ENDBRANCH  16  21
BRANCH  15  23
ATOM     23  O   UNL     1      -0.184  -2.343   3.917  0.00  0.00    -0.389 OA
ATOM     24  H   UNL     1      -0.870  -2.457   4.590  0.00  0.00    +0.210 HD
ENDBRANCH  15  23
BRANCH  13  25
ATOM     25  C   UNL     1       2.870  -2.047   6.839  0.00  0.00    -0.024 C 
ATOM     26  C   UNL     1       2.606  -1.053   7.651  0.00  0.00    +0.005 C 
ENDBRANCH  13  25
BRANCH  19  27
ATOM     27  O   UNL     1       3.501  -1.330  -2.687  0.00  0.00    -0.357 OA
ATOM     28  H   UNL     1       4.269  -1.755  -3.092  0.00  0.00    +0.214 HD
ENDBRANCH  19  27
TORSDOF 4
