REMARK  Name = ZINC15016142
REMARK  3 active torsions:
REMARK  status: ('A' for Active; 'I' for Inactive)
REMARK    1  A    between atoms: C_1  and  C_2
REMARK    2  A    between atoms: C_8  and  C_12
REMARK    3  A    between atoms: C_8  and  O_24
REMARK                            x       y       z     vdW  Elec       q    Type
REMARK                         _______ _______ _______ _____ _____    ______ ____
ROOT
ATOM      1  C   UNL     1       0.003   1.488  -0.019  0.00  0.00    +0.044 C 
ATOM      2  C   UNL     1       0.017  -0.018  -0.018  0.00  0.00    -0.050 A 
ATOM      3  C   UNL     1       0.019  -0.713  -1.214  0.00  0.00    +0.005 A 
ATOM      4  C   UNL     1       0.032  -2.092  -1.220  0.00  0.00    +0.024 A 
ATOM      5  C   UNL     1       0.043  -2.797  -0.017  0.00  0.00    +0.040 A 
ATOM      6  C   UNL     1       0.042  -2.088   1.177  0.00  0.00    +0.015 A 
ATOM      7  C   UNL     1       0.034  -0.711   1.180  0.00  0.00    +0.012 A 
ATOM      8  C   UNL     1       0.056  -3.118   2.283  0.00  0.00    +0.184 C 
ATOM      9  C   UNL     1       0.066  -4.443   1.551  0.00  0.00    +0.255 C 
ATOM     10  O   UNL     1       0.078  -5.545   2.057  0.00  0.00    -0.272 OA
ATOM     11  N   UNL     1       0.057  -4.169   0.236  0.00  0.00    -0.282 N 
ATOM     12  H   UNL     1       0.060  -4.847  -0.458  0.00  0.00    +0.155 HD
ENDROOT
BRANCH   8  13
ATOM     13  C   UNL     1       1.316  -2.969   3.138  0.00  0.00    +0.152 C 
ATOM     14  C   UNL     1       2.550  -3.273   2.320  0.00  0.00    -0.010 A 
ATOM     15  C   UNL     1       3.093  -2.695   1.195  0.00  0.00    +0.021 A 
ATOM     16  C   UNL     1       4.263  -3.201   0.654  0.00  0.00    +0.018 A 
ATOM     17  C   UNL     1       4.881  -4.287   1.248  0.00  0.00    +0.017 A 
ATOM     18  C   UNL     1       4.338  -4.868   2.375  0.00  0.00    +0.025 A 
ATOM     19  C   UNL     1       3.162  -4.363   2.925  0.00  0.00    +0.038 A 
ATOM     20  N   UNL     1       2.429  -4.769   4.041  0.00  0.00    -0.285 N 
ATOM     21  C   UNL     1       1.336  -4.008   4.239  0.00  0.00    +0.228 C 
ATOM     22  O   UNL     1       0.521  -4.130   5.129  0.00  0.00    -0.275 OA
ATOM     23 BR   UNL     1       5.013  -2.412  -0.892  0.00  0.00    -0.050 Br
ATOM     24  H   UNL     1       2.678  -5.515   4.610  0.00  0.00    +0.155 HD
ENDBRANCH   8  13
BRANCH   8  25
ATOM     25  O   UNL     1      -1.116  -3.001   3.092  0.00  0.00    -0.374 OA
ATOM     26  H   UNL     1      -1.943  -3.117   2.605  0.00  0.00    +0.211 HD
ENDBRANCH   8  25
TORSDOF 2
