REMARK  Name = ZINC09059099
REMARK  4 active torsions:
REMARK  status: ('A' for Active; 'I' for Inactive)
REMARK    1  A    between atoms: C_5  and  N_7
REMARK    2  A    between atoms: C_11  and  C_12
REMARK    3  A    between atoms: C_15  and  O_18
REMARK    4  A    between atoms: C_19  and  O_23
REMARK                            x       y       z     vdW  Elec       q    Type
REMARK                         _______ _______ _______ _____ _____    ______ ____
ROOT
ATOM      1  N   UNL     1       1.092   2.133  -1.370  0.00  0.00    -0.186 N 
ATOM      2  C   UNL     1       1.146   3.422  -0.972  0.00  0.00    +0.264 C 
ATOM      3  O   UNL     1       2.169   4.071  -1.080  0.00  0.00    -0.269 OA
ATOM      4  C   UNL     1      -0.079   4.018  -0.401  0.00  0.00    +0.097 C 
ATOM      5  C   UNL     1      -0.111   5.334   0.031  0.00  0.00    +0.026 C 
ATOM      6  C   UNL     1      -1.264   3.150  -0.313  0.00  0.00    +0.218 C 
ATOM      7  N   UNL     1      -1.169   1.906  -0.749  0.00  0.00    -0.127 NA
ATOM      8  C   UNL     1      -0.036   1.418  -1.251  0.00  0.00    +0.340 C 
ATOM      9  O   UNL     1      -0.026   0.259  -1.627  0.00  0.00    -0.250 OA
ENDROOT
BRANCH   1  14
ATOM     10  C   UNL     1       3.588   0.993  -3.821  0.00  0.00    +0.002 A 
ATOM     11  C   UNL     1       4.490   0.345  -2.997  0.00  0.00    +0.003 A 
ATOM     12  C   UNL     1       4.268   0.288  -1.633  0.00  0.00    +0.040 A 
ATOM     13  C   UNL     1       3.145   0.885  -1.089  0.00  0.00    +0.145 A 
ATOM     14  C   UNL     1       2.234   1.532  -1.917  0.00  0.00    +0.081 A 
ATOM     15  C   UNL     1       2.462   1.586  -3.285  0.00  0.00    +0.027 A 
ATOM     16  F   UNL     1       2.931   0.835   0.244  0.00  0.00    -0.204 F 
ENDBRANCH   1  14
BRANCH   5  17
ATOM     17  C   UNL     1       1.130   6.099   0.133  0.00  0.00    -0.024 A 
ATOM     18  C   UNL     1       2.263   5.529   0.737  0.00  0.00    +0.011 A 
ATOM     19  C   UNL     1       3.420   6.248   0.825  0.00  0.00    +0.046 A 
ATOM     20  C   UNL     1       3.475   7.547   0.327  0.00  0.00    +0.117 A 
ATOM     21  C   UNL     1       2.355   8.120  -0.268  0.00  0.00    +0.046 A 
ATOM     22  C   UNL     1       1.193   7.410  -0.367  0.00  0.00    +0.011 A 
BRANCH  20  23
ATOM     23  O   UNL     1       4.627   8.258   0.422  0.00  0.00    -0.507 OA
ATOM     24  H   UNL     1       4.703   8.776   1.235  0.00  0.00    +0.292 HD
ENDBRANCH  20  23
ENDBRANCH   5  17
BRANCH   6  25
ATOM     25  O   UNL     1      -2.424   3.616   0.196  0.00  0.00    -0.493 OA
ATOM     26  H   UNL     1      -3.139   2.965   0.207  0.00  0.00    +0.294 HD
ENDBRANCH   6  25
TORSDOF 4
