REMARK  Name = ZINC61847030
REMARK  4 active torsions:
REMARK  status: ('A' for Active; 'I' for Inactive)
REMARK    1  A    between atoms: C_3  and  C_17
REMARK    2  A    between atoms: C_6  and  N_7
REMARK    3  A    between atoms: C_11  and  C_14
REMARK    4  A    between atoms: C_14  and  N_15
REMARK                            x       y       z     vdW  Elec       q    Type
REMARK                         _______ _______ _______ _____ _____    ______ ____
ROOT
ATOM      1  C   UNL     1       1.215  -0.687   0.004  0.00  0.00    +0.024 A 
ATOM      2  C   UNL     1       2.401   0.011  -0.003  0.00  0.00    +0.016 A 
ATOM      3  C   UNL     1       2.387   1.409  -0.013  0.00  0.00    +0.055 A 
ATOM      4  C   UNL     1       1.166   2.094  -0.015  0.00  0.00    +0.055 A 
ATOM      5  C   UNL     1      -0.017   1.387  -0.008  0.00  0.00    +0.044 A 
ATOM      6  C   UNL     1       0.002  -0.004   0.002  0.00  0.00    +0.031 A 
ATOM      7 CL   UNL     1       1.142   3.829  -0.027  0.00  0.00    -0.083 Cl
ENDROOT
BRANCH   6   8
ATOM      8  N   UNL     1      -1.194  -0.714   0.010  0.00  0.00    -0.330 N 
ATOM      9  C   UNL     1      -2.479  -0.013   0.130  0.00  0.00    +0.105 C 
ATOM     10  C   UNL     1      -3.265  -0.621   1.296  0.00  0.00    +0.019 C 
ATOM     11  C   UNL     1      -3.389  -2.132   1.090  0.00  0.00    +0.005 C 
ATOM     12  C   UNL     1      -1.995  -2.762   1.066  0.00  0.00    -0.011 C 
ATOM     13  C   UNL     1      -1.195  -2.179  -0.108  0.00  0.00    +0.106 C 
BRANCH  12  14
ATOM     14  C   UNL     1      -2.122  -4.277   0.893  0.00  0.00    -0.081 C 
BRANCH  14  15
ATOM     15  N   UNL     1      -2.787  -4.850   2.071  0.00  0.00    +0.378 N 
ATOM     16  H   UNL     1      -2.242  -4.650   2.896  0.00  0.00    -0.090 HD
ATOM     17  H   UNL     1      -3.706  -4.445   2.169  0.00  0.00    -0.090 HD
ATOM     18  H   UNL     1      -2.871  -5.849   1.957  0.00  0.00    -0.090 HD
ENDBRANCH  14  15
ENDBRANCH  12  14
ENDBRANCH   6   8
BRANCH   3  19
ATOM     19  C   UNL     1       3.655   2.161  -0.021  0.00  0.00    +0.243 C 
ATOM     20  O   UNL     1       3.641   3.377  -0.029  0.00  0.00    -0.270 OA
ATOM     21  N   UNL     1       4.830   1.500  -0.018  0.00  0.00    -0.325 N 
ATOM     22  H   UNL     1       4.841   0.530  -0.012  0.00  0.00    +0.145 HD
ATOM     23  H   UNL     1       5.665   1.995  -0.023  0.00  0.00    +0.145 HD
ENDBRANCH   3  19
TORSDOF 4
