REMARK  Name = ZINC40845541
REMARK  3 active torsions:
REMARK  status: ('A' for Active; 'I' for Inactive)
REMARK    1  A    between atoms: C_3  and  N_8
REMARK    2  A    between atoms: N_8  and  C_9
REMARK    3  A    between atoms: C_17  and  C_18
REMARK                            x       y       z     vdW  Elec       q    Type
REMARK                         _______ _______ _______ _____ _____    ______ ____
ROOT
ATOM      1  C   UNL     1       4.782   1.448  -0.138  0.00  0.00    +0.057 A 
ATOM      2  C   UNL     1       6.010   2.094   0.171  0.00  0.00    +0.028 A 
ATOM      3  C   UNL     1       6.234   3.455   0.632  0.00  0.00    +0.019 A 
ATOM      4  C   UNL     1       7.486   3.869   0.868  0.00  0.00    +0.048 A 
ATOM      5  S   UNL     1       8.477   2.439   0.483  0.00  0.00    -0.079 S 
ATOM      6  C   UNL     1       7.179   1.320   0.015  0.00  0.00    +0.087 A 
ATOM      7  N   UNL     1       7.161   0.065  -0.394  0.00  0.00    -0.354 N 
ATOM      8  C   UNL     1       6.040  -0.554  -0.686  0.00  0.00    +0.100 A 
ATOM      9  C   UNL     1       4.811   0.112  -0.564  0.00  0.00    +0.101 A 
ATOM     10  H   UNL     1       8.000  -0.413  -0.482  0.00  0.00    +0.166 HD
ENDROOT
BRANCH   9  11
ATOM     11  C   UNL     1       3.561  -0.586  -0.884  0.00  0.00    +0.390 C 
ATOM     12  O   UNL     1       3.580  -1.778  -1.165  0.00  0.00    -0.240 OA
ATOM     13  O   UNL     1       2.500   0.023  -0.872  0.00  0.00    -0.240 OA
ENDBRANCH   9  11
BRANCH   1  14
ATOM     14  N   UNL     1       3.582   2.122  -0.015  0.00  0.00    -0.313 N 
ATOM     15  H   UNL     1       3.080   2.072   0.813  0.00  0.00    +0.152 HD
BRANCH  14  18
ATOM     16  C   UNL     1       1.477   4.407  -1.980  0.00  0.00    +0.003 A 
ATOM     17  C   UNL     1       1.960   3.663  -0.921  0.00  0.00    +0.023 A 
ATOM     18  C   UNL     1       3.092   2.876  -1.085  0.00  0.00    +0.032 A 
ATOM     19  C   UNL     1       3.736   2.839  -2.316  0.00  0.00    +0.038 A 
ATOM     20  C   UNL     1       3.249   3.586  -3.371  0.00  0.00    +0.020 A 
ATOM     21  C   UNL     1       2.120   4.369  -3.203  0.00  0.00    +0.015 A 
ATOM     22 BR   UNL     1       4.125   3.538  -5.046  0.00  0.00    -0.050 Br
ENDBRANCH  14  18
ENDBRANCH   1  14
TORSDOF 3
