REMARK  Name = ZINC20519191
REMARK  5 active torsions:
REMARK  status: ('A' for Active; 'I' for Inactive)
REMARK    1  A    between atoms: C_1  and  S_2
REMARK    2  A    between atoms: S_2  and  C_3
REMARK    3  A    between atoms: C_3  and  C_4
REMARK    4  A    between atoms: C_4  and  C_5
REMARK    5  A    between atoms: N_13  and  C_16
REMARK                            x       y       z     vdW  Elec       q    Type
REMARK                         _______ _______ _______ _____ _____    ______ ____
ROOT
ATOM      1  C   UNL     1      -3.356  -2.382   0.021  0.00  0.00    +0.068 C 
ATOM      2  C   UNL     1      -3.508  -3.915  -0.074  0.00  0.00    +0.107 C 
ATOM      3  C   UNL     1      -4.707  -4.256   0.855  0.00  0.00    +0.122 C 
ATOM      4  C   UNL     1      -4.072  -5.082   1.952  0.00  0.00    +0.228 C 
ATOM      5  O   UNL     1      -4.662  -5.568   2.893  0.00  0.00    -0.275 OA
ATOM      6  N   UNL     1      -2.759  -5.195   1.721  0.00  0.00    -0.238 N 
ATOM      7  C   UNL     1      -2.327  -4.577   0.598  0.00  0.00    +0.227 C 
ATOM      8  O   UNL     1      -1.185  -4.550   0.192  0.00  0.00    -0.275 OA
ATOM      9  C   UNL     1      -5.162  -2.901   1.410  0.00  0.00    +0.136 C 
ATOM     10  N   UNL     1      -3.978  -2.014   1.321  0.00  0.00    -0.295 NA
ATOM     11  C   UNL     1      -6.339  -2.361   0.649  0.00  0.00    +0.005 A 
ATOM     12  C   UNL     1      -6.543  -2.031  -0.673  0.00  0.00    +0.008 A 
ATOM     13  C   UNL     1      -7.771  -1.544  -1.084  0.00  0.00    +0.002 A 
ATOM     14  C   UNL     1      -8.793  -1.390  -0.165  0.00  0.00    +0.022 A 
ATOM     15  C   UNL     1      -8.593  -1.718   1.161  0.00  0.00    +0.062 A 
ATOM     16  C   UNL     1      -7.359  -2.208   1.583  0.00  0.00    +0.057 A 
ATOM     17  N   UNL     1      -6.917  -2.602   2.849  0.00  0.00    -0.282 N 
ATOM     18  C   UNL     1      -5.637  -3.021   2.832  0.00  0.00    +0.243 C 
ATOM     19  O   UNL     1      -4.992  -3.418   3.780  0.00  0.00    -0.273 OA
ATOM     20 CL   UNL     1      -9.883  -1.520   2.305  0.00  0.00    -0.082 Cl
ATOM     21  H   UNL     1      -3.338  -2.172   2.085  0.00  0.00    +0.123 HD
ATOM     22  H   UNL     1      -7.468  -2.576   3.647  0.00  0.00    +0.155 HD
ENDROOT
BRANCH   6  23
ATOM     23  C   UNL     1      -1.860  -5.935   2.609  0.00  0.00    +0.084 C 
ATOM     24  C   UNL     1      -0.728  -5.011   3.104  0.00  0.00    +0.023 C 
ATOM     25  C   UNL     1       0.520  -5.927   3.147  0.00  0.00    +0.002 C 
ATOM     26  C   UNL     1       0.335  -6.815   1.892  0.00  0.00    +0.002 C 
ATOM     27  C   UNL     1      -1.184  -7.082   1.838  0.00  0.00    +0.023 C 
ENDBRANCH   6  23
BRANCH   1  28
ATOM     28  C   UNL     1      -1.877  -1.992   0.009  0.00  0.00    +0.030 C 
BRANCH  28  29
ATOM     29  C   UNL     1      -1.752  -0.467   0.016  0.00  0.00    +0.070 C 
BRANCH  29  31
ATOM     30  C   UNL     1      -0.022   1.810   0.012  0.00  0.00    +0.084 C 
ATOM     31  S   UNL     1       0.002  -0.004   0.002  0.00  0.00    -0.164 S 
ENDBRANCH  29  31
ENDBRANCH  28  29
ENDBRANCH   1  28
TORSDOF 4
