REMARK  Name = ZINC39603445
REMARK  8 active torsions:
REMARK  status: ('A' for Active; 'I' for Inactive)
REMARK    1  A    between atoms: C_1  and  C_2
REMARK    2  A    between atoms: C_3  and  C_15
REMARK    3  A    between atoms: C_4  and  C_7
REMARK    4  A    between atoms: C_19  and  C_28
REMARK    5  A    between atoms: N_30  and  C_31
REMARK    6  A    between atoms: C_31  and  C_32
REMARK    7  A    between atoms: C_32  and  O_33
REMARK    8  A    between atoms: O_33  and  C_34
REMARK                            x       y       z     vdW  Elec       q    Type
REMARK                         _______ _______ _______ _____ _____    ______ ____
ROOT
ATOM      1  C   UNL     1      -2.268  -0.589   0.436  0.00  0.00    +0.252 C 
ATOM      2  O   UNL     1      -2.963  -0.325  -0.527  0.00  0.00    -0.270 OA
ATOM      3  N   UNL     1      -2.824  -0.691   1.660  0.00  0.00    -0.296 N 
ATOM      4  C   UNL     1      -2.146  -0.995   2.942  0.00  0.00    +0.121 C 
ATOM      5  C   UNL     1      -2.836  -0.076   3.976  0.00  0.00    +0.100 C 
ATOM      6  C   UNL     1      -4.217   0.228   3.370  0.00  0.00    -0.004 C 
ATOM      7  C   UNL     1      -4.249  -0.517   2.028  0.00  0.00    +0.115 C 
ATOM      8  C   UNL     1      -5.321  -0.287   4.289  0.00  0.00    -0.010 C 
ATOM      9  C   UNL     1      -6.684   0.079   3.694  0.00  0.00    -0.082 C 
ATOM     10  N   UNL     1      -6.782   1.536   3.548  0.00  0.00    +0.379 N 
ATOM     11  C   UNL     1      -5.775   2.011   2.591  0.00  0.00    -0.082 C 
ATOM     12  C   UNL     1      -4.373   1.728   3.139  0.00  0.00    -0.010 C 
ATOM     13  H   UNL     1      -7.702   1.778   3.213  0.00  0.00    -0.086 HD
ATOM     14  H   UNL     1      -6.626   1.974   4.443  0.00  0.00    -0.086 HD
ENDROOT
BRANCH   1  17
ATOM     15  C   UNL     1      -0.093   1.654   0.347  0.00  0.00    +0.090 C 
ATOM     16  C   UNL     1       0.141   0.170   0.224  0.00  0.00    +0.147 A 
ATOM     17  C   UNL     1      -0.820  -0.796   0.265  0.00  0.00    +0.106 A 
ATOM     18  C   UNL     1      -0.132  -2.087   0.106  0.00  0.00    +0.128 A 
ATOM     19  N   UNL     1       1.145  -1.824  -0.016  0.00  0.00    -0.077 NA
ATOM     20  O   UNL     1       1.325  -0.423   0.051  0.00  0.00    -0.359 OA
BRANCH  18  21
ATOM     21  C   UNL     1      -0.763  -3.428   0.086  0.00  0.00    +0.041 A 
ATOM     22  C   UNL     1      -1.724  -3.736  -0.877  0.00  0.00    +0.052 A 
ATOM     23  C   UNL     1      -2.308  -4.988  -0.891  0.00  0.00    +0.021 A 
ATOM     24  C   UNL     1      -1.942  -5.934   0.049  0.00  0.00    +0.003 A 
ATOM     25  C   UNL     1      -0.991  -5.635   1.007  0.00  0.00    +0.021 A 
ATOM     26  C   UNL     1      -0.395  -4.389   1.027  0.00  0.00    +0.052 A 
ATOM     27 CL   UNL     1       0.805  -4.018   2.226  0.00  0.00    -0.083 Cl
ATOM     28 CL   UNL     1      -2.185  -2.548  -2.057  0.00  0.00    -0.083 Cl
ENDBRANCH  18  21
ENDBRANCH   1  17
BRANCH   5  29
ATOM     29  C   UNL     1      -2.984  -0.789   5.295  0.00  0.00    +0.218 C 
ATOM     30  O   UNL     1      -3.124  -1.993   5.321  0.00  0.00    -0.275 OA
ATOM     31  N   UNL     1      -2.961  -0.088   6.446  0.00  0.00    -0.313 N 
ATOM     32  H   UNL     1      -2.849   0.875   6.425  0.00  0.00    +0.149 HD
BRANCH  31  33
ATOM     33  C   UNL     1      -3.105  -0.781   7.729  0.00  0.00    +0.132 C 
BRANCH  33  34
ATOM     34  C   UNL     1      -3.045   0.238   8.868  0.00  0.00    +0.178 C 
BRANCH  34  35
ATOM     35  O   UNL     1      -4.170   1.114   8.784  0.00  0.00    -0.381 OA
ATOM     36  C   UNL     1      -4.210   2.110   9.808  0.00  0.00    +0.194 C 
ENDBRANCH  34  35
ENDBRANCH  33  34
ENDBRANCH  31  33
ENDBRANCH   5  29
TORSDOF 6
