REMARK  Name = ZINC05640655
REMARK  8 active torsions:
REMARK  status: ('A' for Active; 'I' for Inactive)
REMARK    1  A    between atoms: C_1  and  C_2
REMARK    2  A    between atoms: C_9  and  N_30
REMARK    3  A    between atoms: C_10  and  C_28
REMARK    4  A    between atoms: C_11  and  C_13
REMARK    5  A    between atoms: C_15  and  C_19
REMARK    6  A    between atoms: C_16  and  C_18
REMARK    7  A    between atoms: C_19  and  O_20
REMARK    8  A    between atoms: O_20  and  C_21
REMARK                            x       y       z     vdW  Elec       q    Type
REMARK                         _______ _______ _______ _____ _____    ______ ____
ROOT
ATOM      1  C   UNL     1      -0.018   1.503   0.010  0.00  0.00    +0.068 C 
ATOM      2  C   UNL     1       0.002  -0.004   0.002  0.00  0.00    +0.068 A 
ATOM      3  C   UNL     1       0.008  -0.813  -1.126  0.00  0.00    +0.050 A 
ATOM      4  C   UNL     1       0.027  -2.116  -0.713  0.00  0.00    +0.222 A 
ATOM      5  N   UNL     1       0.034  -2.116   0.629  0.00  0.00    -0.246 N 
ATOM      6  H   UNL     1       0.048  -2.900   1.201  0.00  0.00    +0.192 HD
ATOM      7  N   UNL     1       0.023  -0.780   1.060  0.00  0.00    -0.176 NA
ATOM      8  O   UNL     1       0.034  -3.159  -1.580  0.00  0.00    -0.423 OA
ATOM      9  C   UNL     1      -0.255  -2.900  -2.872  0.00  0.00    +0.200 C 
ATOM     10  C   UNL     1      -0.291  -1.656  -3.399  0.00  0.00    +0.099 C 
ATOM     11  C   UNL     1      -0.002  -0.421  -2.581  0.00  0.00    +0.108 C 
ENDROOT
BRANCH  11  12
ATOM     12  C   UNL     1       1.341   0.142  -2.966  0.00  0.00    +0.003 A 
ATOM     13  C   UNL     1       1.646   1.373  -3.443  0.00  0.00    +0.019 A 
ATOM     14  C   UNL     1       2.964   1.674  -3.731  0.00  0.00    -0.000 A 
ATOM     15  C   UNL     1       3.913   0.728  -3.526  0.00  0.00    -0.007 A 
ATOM     16  S   UNL     1       2.947  -0.637  -2.903  0.00  0.00    -0.097 S 
ATOM     17  C   UNL     1       5.400   0.810  -3.759  0.00  0.00    +0.052 C 
BRANCH  14  18
ATOM     18  C   UNL     1       3.340   3.033  -4.263  0.00  0.00    +0.265 C 
BRANCH  18  19
ATOM     19  O   UNL     1       2.166   3.838  -4.387  0.00  0.00    -0.487 OA
BRANCH  19  20
ATOM     20  C   UNL     1       2.331   5.102  -4.857  0.00  0.00    +0.121 A 
ATOM     21  C   UNL     1       3.597   5.556  -5.198  0.00  0.00    +0.048 A 
ATOM     22  C   UNL     1       3.763   6.842  -5.676  0.00  0.00    +0.042 A 
ATOM     23  C   UNL     1       2.668   7.677  -5.815  0.00  0.00    +0.124 A 
ATOM     24  C   UNL     1       1.404   7.225  -5.474  0.00  0.00    +0.042 A 
ATOM     25  C   UNL     1       1.234   5.938  -5.002  0.00  0.00    +0.048 A 
ATOM     26  F   UNL     1       2.832   8.934  -6.282  0.00  0.00    -0.205 F 
ENDBRANCH  19  20
ENDBRANCH  18  19
ENDBRANCH  14  18
ENDBRANCH  11  12
BRANCH   9  27
ATOM     27  N   UNL     1      -0.527  -3.961  -3.699  0.00  0.00    -0.328 N 
ATOM     28  H   UNL     1      -0.509  -4.865  -3.349  0.00  0.00    +0.145 HD
ATOM     29  H   UNL     1      -0.738  -3.806  -4.633  0.00  0.00    +0.145 HD
ENDBRANCH   9  27
BRANCH  10  30
ATOM     30  C   UNL     1      -0.615  -1.504  -4.786  0.00  0.00    +0.101 C 
ATOM     31  N   UNL     1      -0.872  -1.384  -5.886  0.00  0.00    -0.191 NA
ENDBRANCH  10  30
TORSDOF 6
