REMARK  Name = ZINC12345138
REMARK  12 active torsions:
REMARK  status: ('A' for Active; 'I' for Inactive)
REMARK    1  A    between atoms: C_1  and  C_2
REMARK    2  A    between atoms: C_3  and  C_37
REMARK    3  A    between atoms: N_6  and  C_30
REMARK    4  A    between atoms: C_7  and  N_80
REMARK    5  A    between atoms: C_9  and  C_10
REMARK    6  A    between atoms: C_9  and  N_80
REMARK    7  A    between atoms: C_10  and  C_29
REMARK    8  A    between atoms: C_14  and  C_28
REMARK    9  A    between atoms: C_23  and  C_25
REMARK   10  A    between atoms: C_25  and  C_26
REMARK   11  A    between atoms: C_25  and  C_27
REMARK   12  A    between atoms: C_30  and  C_31
REMARK                            x       y       z     vdW  Elec       q    Type
REMARK                         _______ _______ _______ _____ _____    ______ ____
ROOT
ATOM      1  C   UNL     1       3.585   5.433  -2.297  0.00  0.00    -0.044 C 
ATOM      2  C   UNL     1       2.521   6.295  -2.978  0.00  0.00    +0.005 C 
ATOM      3  C   UNL     1       2.168   7.470  -2.062  0.00  0.00    +0.001 C 
ATOM      4  C   UNL     1       3.418   8.319  -1.833  0.00  0.00    +0.011 C 
ATOM      5  C   UNL     1       4.505   7.477  -1.157  0.00  0.00    -0.004 C 
ATOM      6  C   UNL     1       4.832   6.262  -2.019  0.00  0.00    +0.004 C 
ATOM      7  C   UNL     1       5.462   6.745  -3.327  0.00  0.00    +0.009 C 
ATOM      8  C   UNL     1       6.856   7.288  -3.015  0.00  0.00    +0.036 C 
ATOM      9  C   UNL     1       6.809   8.251  -1.858  0.00  0.00    -0.043 A 
ATOM     10  C   UNL     1       5.739   8.333  -0.996  0.00  0.00    -0.038 A 
ATOM     11  C   UNL     1       5.766   9.235   0.058  0.00  0.00    +0.005 A 
ATOM     12  C   UNL     1       6.857  10.060   0.245  0.00  0.00    +0.004 A 
ATOM     13  C   UNL     1       7.929   9.985  -0.625  0.00  0.00    -0.045 A 
ATOM     14  C   UNL     1       7.904   9.085  -1.670  0.00  0.00    +0.007 A 
ATOM     15  C   UNL     1       4.020   7.014   0.218  0.00  0.00    +0.016 C 
ATOM     16  C   UNL     1       3.947   4.262  -3.212  0.00  0.00    +0.009 C 
ENDROOT
BRANCH  13  17
ATOM     17  C   UNL     1       9.122  10.886  -0.431  0.00  0.00    +0.013 C 
ATOM     18  C   UNL     1       8.678  12.347  -0.518  0.00  0.00    +0.012 C 
ATOM     19  C   UNL     1       9.742  10.622   0.943  0.00  0.00    +0.012 C 
ENDBRANCH  13  17
BRANCH   1  20
ATOM     20  C   UNL     1       3.031   4.892  -0.977  0.00  0.00    -0.073 C 
BRANCH  20  21
ATOM     21  N   UNL     1       1.931   3.952  -1.264  0.00  0.00    +0.394 N 
ATOM     22  H   UNL     1       1.167   4.456  -1.730  0.00  0.00    -0.083 HD
ATOM     23  H   UNL     1       2.275   3.206  -1.879  0.00  0.00    -0.083 HD
BRANCH  21  30
ATOM     24  C   UNL     1       0.548   5.664   1.069  0.00  0.00    +0.039 C 
ATOM     25  C   UNL     1       0.367   4.243   0.600  0.00  0.00    -0.062 C 
ATOM     26  C   UNL     1      -0.757   3.534   0.640  0.00  0.00    +0.010 C 
ATOM     27  C   UNL     1      -0.519   2.195   0.092  0.00  0.00    +0.241 C 
ATOM     28  O   UNL     1      -1.359   1.320   0.000  0.00  0.00    -0.270 OA
ATOM     29  N   UNL     1       0.763   2.078  -0.299  0.00  0.00    -0.305 N 
ATOM     30  C   UNL     1       1.427   3.357  -0.011  0.00  0.00    +0.046 C 
ATOM     31  C   UNL     1      -2.076   4.032   1.172  0.00  0.00    +0.049 C 
BRANCH  29  32
ATOM     32  C   UNL     1       1.383   0.894  -0.900  0.00  0.00    +0.138 C 
BRANCH  32  33
ATOM     33  C   UNL     1       1.093   0.875  -2.402  0.00  0.00    +0.136 C 
ATOM     34  C   UNL     1       1.650  -0.423  -3.026  0.00  0.00    +0.035 C 
ATOM     35  C   UNL     1       2.215   0.081  -4.383  0.00  0.00    +0.031 C 
ATOM     36  C   UNL     1       2.710   1.496  -3.990  0.00  0.00    +0.160 C 
ATOM     37  O   UNL     1       1.749   1.978  -3.038  0.00  0.00    -0.375 OA
ENDBRANCH  32  33
ENDBRANCH  29  32
ENDBRANCH  21  30
ENDBRANCH  20  21
ENDBRANCH   1  20
TORSDOF 6
