REMARK  Name = ZINC37675849
REMARK  5 active torsions:
REMARK  status: ('A' for Active; 'I' for Inactive)
REMARK    1  A    between atoms: C_1  and  C_2
REMARK    2  A    between atoms: C_3  and  C_17
REMARK    3  A    between atoms: C_4  and  N_7
REMARK    4  A    between atoms: N_7  and  S_8
REMARK    5  A    between atoms: S_8  and  C_11
REMARK                            x       y       z     vdW  Elec       q    Type
REMARK                         _______ _______ _______ _____ _____    ______ ____
ROOT
ATOM      1  N   UNL     1       0.034  -3.095  -1.998  0.00  0.00    -0.088 NA
ENDROOT
BRANCH   1   5
ATOM      2  C   UNL     1      -0.018   1.503   0.010  0.00  0.00    +0.067 C 
ATOM      3  C   UNL     1       0.002  -0.004   0.002  0.00  0.00    +0.063 A 
ATOM      4  C   UNL     1       0.006  -0.723  -1.196  0.00  0.00    +0.117 A 
ATOM      5  C   UNL     1       0.025  -2.113  -1.031  0.00  0.00    +0.145 A 
ATOM      6  S   UNL     1       0.036  -2.289   0.638  0.00  0.00    +0.031 S 
ATOM      7  N   UNL     1       0.022  -0.685   1.110  0.00  0.00    -0.213 NA
BRANCH   4   8
ATOM      8  C   UNL     1      -0.010  -0.080  -2.509  0.00  0.00    +0.391 C 
ATOM      9  O   UNL     1      -0.027   1.142  -2.592  0.00  0.00    -0.240 OA
ATOM     10  O   UNL     1      -0.006  -0.763  -3.526  0.00  0.00    -0.240 OA
ENDBRANCH   4   8
ENDBRANCH   1   5
BRANCH   1  11
ATOM     11  S   UNL     1       0.058  -4.691  -1.559  0.00  0.00    +0.098 S 
ATOM     12  O   UNL     1       1.310  -4.919  -0.926  0.00  0.00    -0.148 OA
ATOM     13  O   UNL     1      -1.181  -4.953  -0.914  0.00  0.00    -0.148 OA
BRANCH  11  14
ATOM     14  C   UNL     1       0.063  -5.640  -3.043  0.00  0.00    +0.149 A 
ATOM     15  C   UNL     1       1.119  -6.090  -3.764  0.00  0.00    +0.038 A 
ATOM     16  C   UNL     1       0.883  -6.826  -4.911  0.00  0.00    +0.025 A 
ATOM     17  C   UNL     1      -0.398  -7.075  -5.280  0.00  0.00    +0.057 A 
ATOM     18  S   UNL     1      -1.320  -6.265  -3.983  0.00  0.00    -0.061 S 
ATOM     19 BR   UNL     1      -1.042  -8.037  -6.775  0.00  0.00    -0.043 Br
ENDBRANCH  11  14
ENDBRANCH   1  11
TORSDOF 4
