REMARK  Name = ZINC02653414
REMARK  7 active torsions:
REMARK  status: ('A' for Active; 'I' for Inactive)
REMARK    1  A    between atoms: C_1  and  C_2
REMARK    2  A    between atoms: C_4  and  C_23
REMARK    3  A    between atoms: C_6  and  C_17
REMARK    4  A    between atoms: N_9  and  C_11
REMARK    5  A    between atoms: C_23  and  O_25
REMARK    6  A    between atoms: O_25  and  C_26
REMARK    7  A    between atoms: C_26  and  C_27
REMARK                            x       y       z     vdW  Elec       q    Type
REMARK                         _______ _______ _______ _____ _____    ______ ____
ROOT
ATOM      1  C   UNL     1       1.151   3.294   0.235  0.00  0.00    +0.068 C 
ATOM      2  C   UNL     1       0.248   3.405   1.437  0.00  0.00    +0.070 A 
ATOM      3  C   UNL     1       0.331   2.616   2.604  0.00  0.00    +0.056 A 
ATOM      4  C   UNL     1       1.185   1.567   3.017  0.00  0.00    +0.073 A 
ATOM      5  C   UNL     1       0.969   1.006   4.271  0.00  0.00    +0.044 A 
ATOM      6  C   UNL     1      -0.073   1.493   5.067  0.00  0.00    +0.074 A 
ATOM      7  N   UNL     1      -0.855   2.475   4.653  0.00  0.00    -0.227 NA
ATOM      8  C   UNL     1      -0.695   3.047   3.470  0.00  0.00    +0.165 A 
ATOM      9  N   UNL     1      -1.353   4.060   2.815  0.00  0.00    -0.214 N 
ATOM     10  N   UNL     1      -0.736   4.249   1.573  0.00  0.00    -0.169 NA
ENDROOT
BRANCH   9  11
ATOM     11  C   UNL     1      -2.448   4.782   3.307  0.00  0.00    +0.068 A 
ATOM     12  C   UNL     1      -3.400   4.150   4.096  0.00  0.00    +0.028 A 
ATOM     13  C   UNL     1      -4.475   4.866   4.584  0.00  0.00    +0.002 A 
ATOM     14  C   UNL     1      -4.610   6.208   4.278  0.00  0.00    +0.000 A 
ATOM     15  C   UNL     1      -3.667   6.839   3.488  0.00  0.00    +0.002 A 
ATOM     16  C   UNL     1      -2.586   6.130   3.001  0.00  0.00    +0.028 A 
ENDBRANCH   9  11
BRANCH   6  17
ATOM     17  C   UNL     1      -0.305   0.895   6.404  0.00  0.00    +0.000 A 
ATOM     18  C   UNL     1       0.506  -0.145   6.855  0.00  0.00    +0.010 A 
ATOM     19  C   UNL     1       0.289  -0.695   8.102  0.00  0.00    +0.001 A 
ATOM     20  C   UNL     1      -0.738  -0.223   8.899  0.00  0.00    +0.000 A 
ATOM     21  C   UNL     1      -1.550   0.805   8.454  0.00  0.00    +0.001 A 
ATOM     22  C   UNL     1      -1.338   1.366   7.211  0.00  0.00    +0.010 A 
ENDBRANCH   6  17
BRANCH   4  23
ATOM     23  C   UNL     1       2.274   1.083   2.143  0.00  0.00    +0.340 C 
ATOM     24  O   UNL     1       2.075   0.924   0.956  0.00  0.00    -0.245 OA
BRANCH  23  25
ATOM     25  O   UNL     1       3.488   0.817   2.664  0.00  0.00    -0.452 OA
BRANCH  25  26
ATOM     26  C   UNL     1       4.510   0.345   1.748  0.00  0.00    +0.328 C 
BRANCH  26  27
ATOM     27  C   UNL     1       5.790   0.102   2.504  0.00  0.00    +0.258 C 
ATOM     28  O   UNL     1       5.837   0.307   3.698  0.00  0.00    -0.272 OA
ATOM     29  N   UNL     1       6.884  -0.342   1.854  0.00  0.00    -0.238 N 
ATOM     30  C   UNL     1       8.029  -0.559   2.531  0.00  0.00    +0.303 C 
ATOM     31  O   UNL     1       8.076  -0.354   3.728  0.00  0.00    -0.253 OA
ATOM     32  N   UNL     1       9.122  -1.004   1.880  0.00  0.00    -0.313 N 
ATOM     33  H   UNL     1       6.847  -0.506   0.898  0.00  0.00    +0.159 HD
ATOM     34  H   UNL     1       9.085  -1.168   0.925  0.00  0.00    +0.146 HD
ATOM     35  H   UNL     1       9.947  -1.160   2.367  0.00  0.00    +0.146 HD
ENDBRANCH  26  27
ENDBRANCH  25  26
ENDBRANCH  23  25
ENDBRANCH   4  23
TORSDOF 6
