REMARK  Name = ZINC43596531
REMARK  3 active torsions:
REMARK  status: ('A' for Active; 'I' for Inactive)
REMARK    1  A    between atoms: C_3  and  N_9
REMARK    2  A    between atoms: C_6  and  N_7
REMARK    3  A    between atoms: C_13  and  C_15
REMARK                            x       y       z     vdW  Elec       q    Type
REMARK                         _______ _______ _______ _____ _____    ______ ____
ROOT
ATOM      1  C   UNL     1       0.357   0.100   1.332  0.00  0.00    +0.024 A 
ATOM      2  C   UNL     1       1.609   0.493   0.898  0.00  0.00    +0.026 A 
ATOM      3  C   UNL     1       1.895   1.841   0.737  0.00  0.00    +0.045 A 
ATOM      4  C   UNL     1       0.923   2.796   1.011  0.00  0.00    +0.041 A 
ATOM      5  C   UNL     1      -0.328   2.402   1.444  0.00  0.00    +0.039 A 
ATOM      6  C   UNL     1      -0.614   1.053   1.606  0.00  0.00    +0.026 A 
ATOM      7 BR   UNL     1       1.314   4.633   0.792  0.00  0.00    -0.048 Br
ENDROOT
BRANCH   3   8
ATOM      8  N   UNL     1       3.164   2.240   0.299  0.00  0.00    -0.317 N 
ATOM      9  C   UNL     1       3.602   2.320  -1.107  0.00  0.00    +0.106 C 
ATOM     10  C   UNL     1       4.760   3.349  -1.103  0.00  0.00    +0.021 C 
ATOM     11  C   UNL     1       5.460   3.025   0.243  0.00  0.00    +0.033 C 
ATOM     12  C   UNL     1       4.279   2.654   1.164  0.00  0.00    +0.159 C 
BRANCH  12  13
ATOM     13  C   UNL     1       4.676   1.515   2.068  0.00  0.00    +0.231 C 
ATOM     14  O   UNL     1       4.489   0.369   1.718  0.00  0.00    -0.274 OA
ATOM     15  N   UNL     1       5.238   1.771   3.266  0.00  0.00    -0.328 N 
ATOM     16  H   UNL     1       5.387   2.687   3.546  0.00  0.00    +0.145 HD
ATOM     17  H   UNL     1       5.493   1.038   3.848  0.00  0.00    +0.145 HD
ENDBRANCH  12  13
ENDBRANCH   3   8
BRANCH   6  18
ATOM     18  N   UNL     1      -1.882   0.654   2.045  0.00  0.00    -0.358 N 
ATOM     19  H   UNL     1      -2.082  -0.289   2.158  0.00  0.00    +0.142 HD
ATOM     20  H   UNL     1      -2.561   1.320   2.236  0.00  0.00    +0.142 HD
ENDBRANCH   6  18
TORSDOF 3
