REMARK  Name = ZINC62985159
REMARK  4 active torsions:
REMARK  status: ('A' for Active; 'I' for Inactive)
REMARK    1  A    between atoms: C_4  and  N_21
REMARK    2  A    between atoms: C_5  and  C_7
REMARK    3  A    between atoms: C_12  and  N_15
REMARK    4  A    between atoms: N_21  and  N_22
REMARK                            x       y       z     vdW  Elec       q    Type
REMARK                         _______ _______ _______ _____ _____    ______ ____
ROOT
ATOM      1  C   UNL     1       1.258  -2.154  -0.028  0.00  0.00    +0.248 C 
ATOM      2  O   UNL     1       2.319  -2.741   0.054  0.00  0.00    -0.270 OA
ATOM      3  N   UNL     1       0.108  -2.850  -0.128  0.00  0.00    -0.299 N 
ATOM      4  C   UNL     1      -1.227  -2.273  -0.341  0.00  0.00    +0.106 C 
ATOM      5  C   UNL     1      -2.234  -3.443  -0.362  0.00  0.00    +0.005 C 
ATOM      6  C   UNL     1      -1.481  -4.563   0.404  0.00  0.00    -0.049 C 
ATOM      7  C   UNL     1      -0.018  -4.317  -0.048  0.00  0.00    +0.093 C 
ENDROOT
BRANCH   6   8
ATOM      8  N   UNL     1      -1.944  -5.892  -0.017  0.00  0.00    +0.383 N 
ATOM      9  C   UNL     1      -3.383  -6.013   0.248  0.00  0.00    -0.078 C 
ATOM     10  C   UNL     1      -3.887  -7.365  -0.262  0.00  0.00    -0.019 C 
ATOM     11  C   UNL     1      -3.137  -8.489   0.458  0.00  0.00    -0.004 C 
ATOM     12  C   UNL     1      -1.632  -8.309   0.236  0.00  0.00    -0.019 C 
ATOM     13  C   UNL     1      -1.212  -6.922   0.728  0.00  0.00    -0.078 C 
ATOM     14  H   UNL     1      -1.776  -6.008  -1.005  0.00  0.00    -0.081 HD
ENDBRANCH   6   8
BRANCH   1  19
ATOM     15  C   UNL     1       0.470   1.392  -0.969  0.00  0.00    +0.001 A 
ATOM     16  C   UNL     1       1.174   2.095  -0.004  0.00  0.00    +0.002 A 
ATOM     17  C   UNL     1       1.905   1.424   0.954  0.00  0.00    +0.025 A 
ATOM     18  C   UNL     1       1.941   0.035   0.957  0.00  0.00    +0.053 A 
ATOM     19  C   UNL     1       1.229  -0.680  -0.019  0.00  0.00    +0.059 A 
ATOM     20  C   UNL     1       0.493   0.015  -0.983  0.00  0.00    +0.015 A 
BRANCH  18  21
ATOM     21  N   UNL     1       2.677  -0.643   1.920  0.00  0.00    -0.282 N 
ATOM     22  H   UNL     1       2.640  -1.612   1.966  0.00  0.00    +0.166 HD
BRANCH  21  23
ATOM     23  N   UNL     1       3.453   0.053   2.802  0.00  0.00    -0.256 NA
ATOM     24  H   UNL     1       2.906   0.736   3.304  0.00  0.00    +0.140 HD
ATOM     25  H   UNL     1       3.926  -0.571   3.438  0.00  0.00    +0.140 HD
ENDBRANCH  21  23
ENDBRANCH  18  21
ENDBRANCH   1  19
TORSDOF 4
