REMARK  Name = ZINC00569819
REMARK  3 active torsions:
REMARK  status: ('A' for Active; 'I' for Inactive)
REMARK    1  A    between atoms: C_1  and  C_2
REMARK    2  A    between atoms: C_5  and  N_9
REMARK    3  A    between atoms: C_13  and  N_19
REMARK                            x       y       z     vdW  Elec       q    Type
REMARK                         _______ _______ _______ _____ _____    ______ ____
ROOT
ATOM      1  N   UNL     1       2.348   4.546   0.004  0.00  0.00    -0.149 N 
ATOM      2  N   UNL     1       2.409   5.832   0.005  0.00  0.00    -0.147 NA
ATOM      3  C   UNL     1       3.680   6.201  -0.002  0.00  0.00    +0.115 A 
ATOM      4  C   UNL     1       4.388   7.415  -0.003  0.00  0.00    +0.055 A 
ATOM      5  C   UNL     1       5.752   7.396  -0.017  0.00  0.00    +0.041 A 
ATOM      6  C   UNL     1       6.470   6.192  -0.031  0.00  0.00    +0.041 A 
ATOM      7  C   UNL     1       5.841   4.988  -0.030  0.00  0.00    +0.049 A 
ATOM      8  C   UNL     1       4.436   4.939  -0.016  0.00  0.00    +0.114 A 
ATOM      9  N   UNL     1       3.510   3.992  -0.011  0.00  0.00    -0.147 NA
ATOM     10 BR   UNL     1       8.360   6.245  -0.051  0.00  0.00    -0.048 Br
ENDROOT
BRANCH   1  15
ATOM     11  C   UNL     1      -2.523   1.634   0.023  0.00  0.00    +0.045 C 
ATOM     12  C   UNL     1      -1.229   2.407   0.021  0.00  0.00    -0.032 A 
ATOM     13  C   UNL     1      -1.252   3.789   0.034  0.00  0.00    +0.007 A 
ATOM     14  C   UNL     1      -0.068   4.501   0.027  0.00  0.00    +0.030 A 
ATOM     15  C   UNL     1       1.146   3.827   0.012  0.00  0.00    +0.088 A 
ATOM     16  C   UNL     1       1.167   2.439   0.004  0.00  0.00    +0.049 A 
ATOM     17  C   UNL     1      -0.021   1.732   0.012  0.00  0.00    +0.046 A 
ATOM     18 CL   UNL     1       0.002  -0.004   0.002  0.00  0.00    -0.083 Cl
ENDBRANCH   1  15
BRANCH   5  19
ATOM     19  N   UNL     1       6.451   8.607  -0.018  0.00  0.00    -0.357 N 
ATOM     20  H   UNL     1       5.966   9.447  -0.009  0.00  0.00    +0.142 HD
ATOM     21  H   UNL     1       7.421   8.607  -0.028  0.00  0.00    +0.142 HD
ENDBRANCH   5  19
TORSDOF 2
