REMARK  Name = ZINC67415118
REMARK  5 active torsions:
REMARK  status: ('A' for Active; 'I' for Inactive)
REMARK    1  A    between atoms: C_4  and  N_27
REMARK    2  A    between atoms: C_5  and  N_7
REMARK    3  A    between atoms: C_8  and  C_10
REMARK    4  A    between atoms: N_12  and  C_13
REMARK    5  A    between atoms: N_22  and  C_24
REMARK                            x       y       z     vdW  Elec       q    Type
REMARK                         _______ _______ _______ _____ _____    ______ ____
ROOT
ATOM      1  C   UNL     1      -0.347  -4.007  -0.192  0.00  0.00    +0.300 C 
ATOM      2  O   UNL     1       0.629  -4.708  -0.024  0.00  0.00    -0.265 OA
ATOM      3  N   UNL     1      -1.564  -4.568  -0.330  0.00  0.00    -0.304 N 
ATOM      4  H   UNL     1      -2.344  -4.008  -0.464  0.00  0.00    +0.149 HD
ENDROOT
BRANCH   3   5
ATOM      5  C   UNL     1      -1.709  -6.021  -0.278  0.00  0.00    +0.076 C 
ATOM      6  C   UNL     1      -1.480  -6.633  -1.662  0.00  0.00    -0.007 C 
ATOM      7  C   UNL     1      -2.453  -6.033  -2.667  0.00  0.00    +0.003 C 
ATOM      8  C   UNL     1      -3.906  -6.173  -2.242  0.00  0.00    +0.001 C 
ATOM      9  C   UNL     1      -4.148  -5.798  -0.789  0.00  0.00    +0.003 C 
ATOM     10  C   UNL     1      -3.124  -6.403   0.160  0.00  0.00    -0.007 C 
ATOM     11  C   UNL     1      -3.246  -7.920   0.225  0.00  0.00    -0.073 C 
ATOM     12  N   UNL     1      -2.902  -8.575  -1.033  0.00  0.00    +0.382 N 
ATOM     13  C   UNL     1      -1.619  -8.147  -1.580  0.00  0.00    -0.073 C 
ATOM     14  H   UNL     1      -3.635  -8.438  -1.711  0.00  0.00    -0.081 HD
BRANCH  12  15
ATOM     15  C   UNL     1      -2.831 -10.022  -0.787  0.00  0.00    -0.069 C 
ATOM     16  C   UNL     1      -3.631 -10.937  -1.718  0.00  0.00    -0.017 C 
ATOM     17  C   UNL     1      -4.097 -10.715  -0.277  0.00  0.00    -0.017 C 
ENDBRANCH  12  15
ENDBRANCH   3   5
BRANCH   1  19
ATOM     18  N   UNL     1       1.018  -1.960  -0.107  0.00  0.00    -0.276 N 
ATOM     19  C   UNL     1      -0.199  -2.522  -0.245  0.00  0.00    +0.303 C 
ATOM     20  O   UNL     1      -1.175  -1.820  -0.413  0.00  0.00    -0.265 OA
ATOM     21  H   UNL     1       1.807  -2.521  -0.041  0.00  0.00    +0.155 HD
BRANCH  18  26
ATOM     22  C   UNL     1       0.393   1.610  -0.723  0.00  0.00    +0.002 A 
ATOM     23  C   UNL     1       1.396   2.189   0.035  0.00  0.00    +0.002 A 
ATOM     24  C   UNL     1       2.275   1.397   0.747  0.00  0.00    +0.030 A 
ATOM     25  C   UNL     1       2.155   0.015   0.704  0.00  0.00    +0.088 A 
ATOM     26  C   UNL     1       1.145  -0.569  -0.059  0.00  0.00    +0.059 A 
ATOM     27  C   UNL     1       0.266   0.235  -0.771  0.00  0.00    +0.025 A 
BRANCH  25  28
ATOM     28  N   UNL     1       3.047  -0.791   1.426  0.00  0.00    -0.218 N 
ATOM     29  C   UNL     1       4.124  -0.380   2.124  0.00  0.00    +0.225 A 
ATOM     30  N   UNL     1       4.692  -1.434   2.651  0.00  0.00    -0.222 NA
ATOM     31  C   UNL     1       4.012  -2.530   2.314  0.00  0.00    +0.245 A 
ATOM     32  N   UNL     1       2.993  -2.187   1.570  0.00  0.00    -0.153 NA
ENDBRANCH  25  28
ENDBRANCH  18  26
ENDBRANCH   1  19
TORSDOF 5
