REMARK  Name = ZINC04021315
REMARK  7 active torsions:
REMARK  status: ('A' for Active; 'I' for Inactive)
REMARK    1  A    between atoms: C_1  and  N_2
REMARK    2  A    between atoms: N_5  and  C_6
REMARK    3  A    between atoms: C_8  and  O_21
REMARK    4  A    between atoms: C_10  and  O_20
REMARK    5  A    between atoms: C_12  and  O_19
REMARK    6  A    between atoms: C_14  and  C_17
REMARK    7  A    between atoms: C_17  and  O_18
REMARK                            x       y       z     vdW  Elec       q    Type
REMARK                         _______ _______ _______ _____ _____    ______ ____
ROOT
ATOM      1  C   UNL     1      -2.491   4.181   0.037  0.00  0.00    +0.238 C 
ATOM      2  C   UNL     1      -2.355   5.458   0.870  0.00  0.00    +0.192 C 
ATOM      3  C   UNL     1      -1.315   6.375   0.219  0.00  0.00    +0.178 C 
ATOM      4  C   UNL     1      -1.737   6.665  -1.224  0.00  0.00    +0.177 C 
ATOM      5  C   UNL     1      -1.897   5.342  -1.977  0.00  0.00    +0.177 C 
ATOM      6  O   UNL     1      -2.856   4.524  -1.302  0.00  0.00    -0.348 OA
ENDROOT
BRANCH   1  11
ATOM      7  C   UNL     1       0.002  -0.004   0.002  0.00  0.00    +0.129 C 
ATOM      8  N   UNL     1      -0.018   1.461   0.010  0.00  0.00    -0.302 N 
ATOM      9  C   UNL     1      -1.194   2.119   0.019  0.00  0.00    +0.301 C 
ATOM     10  O   UNL     1      -2.239   1.496   0.021  0.00  0.00    -0.253 OA
ATOM     11  N   UNL     1      -1.212   3.466   0.027  0.00  0.00    -0.272 N 
ATOM     12  H   UNL     1       0.816   1.957   0.005  0.00  0.00    +0.150 HD
ATOM     13  H   UNL     1      -0.379   3.963   0.025  0.00  0.00    +0.153 HD
ENDBRANCH   1  11
BRANCH   4  14
ATOM     14  O   UNL     1      -2.981   7.369  -1.226  0.00  0.00    -0.386 OA
ATOM     15  H   UNL     1      -2.953   8.219  -0.766  0.00  0.00    +0.210 HD
ENDBRANCH   4  14
BRANCH   3  16
ATOM     16  O   UNL     1      -1.234   7.601   0.950  0.00  0.00    -0.386 OA
ATOM     17  H   UNL     1      -0.971   7.492   1.874  0.00  0.00    +0.210 HD
ENDBRANCH   3  16
BRANCH   2  18
ATOM     18  O   UNL     1      -1.934   5.122   2.194  0.00  0.00    -0.385 OA
ATOM     19  H   UNL     1      -2.545   4.538   2.664  0.00  0.00    +0.210 HD
ENDBRANCH   2  18
BRANCH   5  20
ATOM     20  C   UNL     1      -2.377   5.620  -3.402  0.00  0.00    +0.190 C 
BRANCH  20  21
ATOM     21  O   UNL     1      -2.416   4.397  -4.139  0.00  0.00    -0.392 OA
ATOM     22  H   UNL     1      -2.712   4.498  -5.054  0.00  0.00    +0.210 HD
ENDBRANCH  20  21
ENDBRANCH   5  20
TORSDOF 6
