REMARK  Name = ZINC20545970
REMARK  8 active torsions:
REMARK  status: ('A' for Active; 'I' for Inactive)
REMARK    1  A    between atoms: C_1  and  C_2
REMARK    2  A    between atoms: C_5  and  C_21
REMARK    3  A    between atoms: C_6  and  N_8
REMARK    4  A    between atoms: N_8  and  S_9
REMARK    5  A    between atoms: S_9  and  C_12
REMARK    6  A    between atoms: C_14  and  N_20
REMARK    7  A    between atoms: C_16  and  C_19
REMARK    8  A    between atoms: C_17  and  C_18
REMARK                            x       y       z     vdW  Elec       q    Type
REMARK                         _______ _______ _______ _____ _____    ______ ____
ROOT
ATOM      1  S   UNL     1       4.116  -0.867  -0.008  0.00  0.00    +0.073 S 
ATOM      2  O   UNL     1       4.210  -1.743  -1.123  0.00  0.00    -0.150 OA
ATOM      3  O   UNL     1       5.095   0.125   0.266  0.00  0.00    -0.150 OA
ENDROOT
BRANCH   1   4
ATOM      4  C   UNL     1       2.575  -0.026  -0.158  0.00  0.00    +0.113 A 
ATOM      5  C   UNL     1       2.527   1.350  -0.055  0.00  0.00    +0.051 A 
ATOM      6  C   UNL     1       1.312   2.012  -0.173  0.00  0.00    +0.027 A 
ATOM      7  C   UNL     1       0.148   1.287  -0.394  0.00  0.00    +0.026 A 
ATOM      8  C   UNL     1       0.202  -0.089  -0.495  0.00  0.00    -0.044 A 
ATOM      9  C   UNL     1       1.414  -0.745  -0.377  0.00  0.00    -0.021 A 
ATOM     10  C   UNL     1       1.470  -2.247  -0.489  0.00  0.00    +0.046 C 
ATOM     11  C   UNL     1      -1.060  -0.877  -0.735  0.00  0.00    +0.044 C 
BRANCH   6  12
ATOM     12  N   UNL     1       1.260   3.404  -0.070  0.00  0.00    -0.358 N 
ATOM     13  H   UNL     1       0.297   3.927  -0.164  0.00  0.00    +0.142 HD
ATOM     14  H   UNL     1       2.183   3.978   0.104  0.00  0.00    +0.142 HD
ENDBRANCH   6  12
ENDBRANCH   1   4
BRANCH   1  15
ATOM     15  N   UNL     1       4.022  -1.825   1.339  0.00  0.00    -0.216 N 
ATOM     16  H   UNL     1       4.007  -2.920   1.236  0.00  0.00    +0.174 HD
BRANCH  15  22
ATOM     17  C   UNL     1       2.467   1.813   4.255  0.00  0.00    +0.044 C 
ATOM     18  C   UNL     1       3.216   0.521   4.050  0.00  0.00    -0.049 A 
ATOM     19  C   UNL     1       3.847  -0.088   5.119  0.00  0.00    +0.004 A 
ATOM     20  C   UNL     1       4.535  -1.273   4.936  0.00  0.00    +0.005 A 
ATOM     21  C   UNL     1       4.596  -1.852   3.684  0.00  0.00    -0.028 A 
ATOM     22  C   UNL     1       3.963  -1.243   2.607  0.00  0.00    +0.051 A 
ATOM     23  C   UNL     1       3.276  -0.049   2.794  0.00  0.00    +0.028 A 
ATOM     24  C   UNL     1       5.347  -3.143   3.485  0.00  0.00    +0.046 C 
ENDBRANCH  15  22
ENDBRANCH   1  15
TORSDOF 4
