REMARK  Name = ZINC08790095
REMARK  5 active torsions:
REMARK  status: ('A' for Active; 'I' for Inactive)
REMARK    1  A    between atoms: C_1  and  C_2
REMARK    2  A    between atoms: C_13  and  C_15
REMARK    3  A    between atoms: C_15  and  C_16
REMARK    4  A    between atoms: N_21  and  C_24
REMARK    5  A    between atoms: C_24  and  C_25
REMARK                            x       y       z     vdW  Elec       q    Type
REMARK                         _______ _______ _______ _____ _____    ______ ____
ROOT
ATOM      1  C   UNL     1      -4.024  -0.968  -3.058  0.00  0.00    +0.044 C 
ATOM      2  C   UNL     1      -3.233  -1.106  -1.782  0.00  0.00    -0.050 A 
ATOM      3  C   UNL     1      -3.711  -1.898  -0.753  0.00  0.00    +0.005 A 
ATOM      4  C   UNL     1      -2.992  -2.028   0.417  0.00  0.00    +0.024 A 
ATOM      5  C   UNL     1      -1.777  -1.363   0.571  0.00  0.00    +0.036 A 
ATOM      6  C   UNL     1      -1.307  -0.570  -0.471  0.00  0.00    -0.027 A 
ATOM      7  C   UNL     1      -2.028  -0.442  -1.637  0.00  0.00    +0.008 A 
ATOM      8  C   UNL     1       0.002  -0.004   0.002  0.00  0.00    +0.050 C 
ATOM      9  C   UNL     1       1.156  -0.405  -0.924  0.00  0.00    +0.088 C 
ATOM     10  C   UNL     1       2.094   0.834  -0.943  0.00  0.00    +0.073 C 
ATOM     11  C   UNL     1       1.418   1.855  -0.002  0.00  0.00    -0.049 C 
ATOM     12  C   UNL     1       3.360   0.323  -0.292  0.00  0.00    +0.224 C 
ATOM     13  O   UNL     1       4.364   0.975  -0.107  0.00  0.00    -0.275 OA
ATOM     14  N   UNL     1       3.198  -0.961   0.047  0.00  0.00    -0.237 N 
ATOM     15  C   UNL     1       1.999  -1.470  -0.260  0.00  0.00    +0.225 C 
ATOM     16  O   UNL     1       1.644  -2.608  -0.039  0.00  0.00    -0.275 OA
ATOM     17  C   UNL     1       0.190  -0.560   1.387  0.00  0.00    +0.211 C 
ATOM     18  O   UNL     1       1.125  -0.349   2.131  0.00  0.00    -0.277 OA
ATOM     19  N   UNL     1      -0.881  -1.337   1.641  0.00  0.00    -0.286 N 
ATOM     20  H   UNL     1      -1.013  -1.821   2.470  0.00  0.00    +0.155 HD
ATOM     21  N   UNL     1       0.011   1.448   0.010  0.00  0.00    +0.394 N 
ATOM     22  H   UNL     1      -0.453   1.802   0.854  0.00  0.00    -0.083 HD
ATOM     23  H   UNL     1      -0.469   1.811  -0.822  0.00  0.00    -0.083 HD
ENDROOT
BRANCH  11  24
ATOM     24  C   UNL     1       1.585   3.274  -0.547  0.00  0.00    +0.080 C 
BRANCH  24  25
ATOM     25  C   UNL     1       0.960   4.257   0.409  0.00  0.00    +0.209 C 
ATOM     26  O   UNL     1       0.433   3.861   1.427  0.00  0.00    -0.276 OA
ATOM     27  N   UNL     1       0.987   5.576   0.133  0.00  0.00    -0.329 N 
ATOM     28  H   UNL     1       1.408   5.893  -0.681  0.00  0.00    +0.145 HD
ATOM     29  H   UNL     1       0.584   6.208   0.748  0.00  0.00    +0.145 HD
ENDBRANCH  24  25
ENDBRANCH  11  24
BRANCH  14  30
ATOM     30  C   UNL     1       4.248  -1.746   0.702  0.00  0.00    +0.151 C 
BRANCH  30  31
ATOM     31  C   UNL     1       4.114  -1.616   2.197  0.00  0.00    -0.026 A 
ATOM     32  C   UNL     1       3.328  -2.510   2.899  0.00  0.00    +0.009 A 
ATOM     33  C   UNL     1       3.202  -2.396   4.271  0.00  0.00    +0.050 A 
ATOM     34  C   UNL     1       3.864  -1.382   4.946  0.00  0.00    +0.166 A 
ATOM     35  C   UNL     1       4.655  -0.481   4.238  0.00  0.00    +0.167 A 
ATOM     36  C   UNL     1       4.781  -0.606   2.864  0.00  0.00    +0.054 A 
ATOM     37  O   UNL     1       5.194   0.412   5.119  0.00  0.00    -0.453 OA
ATOM     38  C   UNL     1       4.401   0.297   6.315  0.00  0.00    +0.466 C 
ATOM     39  O   UNL     1       3.906  -1.054   6.270  0.00  0.00    -0.453 OA
ENDBRANCH  30  31
ENDBRANCH  14  30
TORSDOF 4
