REMARK  Name = ZINC14459829
REMARK  8 active torsions:
REMARK  status: ('A' for Active; 'I' for Inactive)
REMARK    1  A    between atoms: C_1  and  C_2
REMARK    2  A    between atoms: C_2  and  C_4
REMARK    3  A    between atoms: C_2  and  N_10
REMARK    4  A    between atoms: C_11  and  C_13
REMARK    5  A    between atoms: C_20  and  C_29
REMARK    6  A    between atoms: C_33  and  O_36
REMARK    7  A    between atoms: C_34  and  O_35
REMARK    8  A    between atoms: O_36  and  C_37
REMARK                            x       y       z     vdW  Elec       q    Type
REMARK                         _______ _______ _______ _____ _____    ______ ____
ROOT
ATOM      1  C   UNL     1      -1.600   6.477  -1.635  0.00  0.00    +0.058 A 
ATOM      2  C   UNL     1      -2.981   6.349  -1.767  0.00  0.00    +0.015 A 
ATOM      3  C   UNL     1      -3.615   5.212  -1.317  0.00  0.00    +0.001 A 
ATOM      4  C   UNL     1      -2.877   4.200  -0.724  0.00  0.00    +0.006 A 
ATOM      5  C   UNL     1      -1.512   4.313  -0.579  0.00  0.00    -0.019 A 
ATOM      6  C   UNL     1      -0.840   5.449  -1.040  0.00  0.00    +0.044 A 
ATOM      7  N   UNL     1       0.532   5.623  -0.973  0.00  0.00    -0.336 N 
ATOM      8  C   UNL     1       1.310   4.570  -0.264  0.00  0.00    +0.109 C 
ATOM      9  C   UNL     1       0.680   3.247  -0.649  0.00  0.00    +0.029 C 
ATOM     10  C   UNL     1      -0.708   3.251   0.064  0.00  0.00    +0.049 C 
ATOM     11  C   UNL     1      -1.111   1.824   0.017  0.00  0.00    -0.023 C 
ATOM     12  C   UNL     1      -0.013   1.076   0.008  0.00  0.00    -0.030 C 
ATOM     13  C   UNL     1       1.229   1.972   0.001  0.00  0.00    +0.033 C 
ATOM     14  H   UNL     1       0.918   5.811  -1.886  0.00  0.00    +0.147 HD
ENDROOT
BRANCH   8  15
ATOM     15  C   UNL     1       1.232   4.761   1.228  0.00  0.00    +0.018 A 
ATOM     16  C   UNL     1       0.187   5.479   1.780  0.00  0.00    +0.009 A 
ATOM     17  C   UNL     1       0.113   5.657   3.149  0.00  0.00    +0.004 A 
ATOM     18  C   UNL     1       1.083   5.115   3.973  0.00  0.00    +0.049 A 
ATOM     19  C   UNL     1       2.132   4.394   3.426  0.00  0.00    +0.162 A 
ATOM     20  C   UNL     1       2.204   4.212   2.049  0.00  0.00    +0.163 A 
BRANCH  20  21
ATOM     21  O   UNL     1       3.229   3.500   1.508  0.00  0.00    -0.503 OA
ATOM     22  H   UNL     1       4.003   4.034   1.282  0.00  0.00    +0.292 HD
ENDBRANCH  20  21
BRANCH  19  23
ATOM     23  O   UNL     1       3.087   3.861   4.235  0.00  0.00    -0.491 OA
ATOM     24  C   UNL     1       2.946   4.084   5.640  0.00  0.00    +0.277 C 
ENDBRANCH  19  23
ENDBRANCH   8  15
BRANCH   1  26
ATOM     25  N   UNL     1      -1.649   8.682  -2.689  0.00  0.00    -0.305 N 
ATOM     26  C   UNL     1      -0.928   7.697  -2.120  0.00  0.00    +0.246 C 
ATOM     27  O   UNL     1       0.277   7.813  -2.007  0.00  0.00    -0.270 OA
ATOM     28  H   UNL     1      -2.611   8.590  -2.780  0.00  0.00    +0.150 HD
BRANCH  25  30
ATOM     29  C   UNL     1      -0.818  10.882  -2.014  0.00  0.00    +0.033 C 
ATOM     30  C   UNL     1      -0.982   9.894  -3.172  0.00  0.00    +0.100 C 
BRANCH  30  31
ATOM     31  C   UNL     1      -1.812  10.527  -4.258  0.00  0.00    -0.027 A 
ATOM     32  C   UNL     1      -3.190  10.560  -4.145  0.00  0.00    +0.005 A 
ATOM     33  C   UNL     1      -3.951  11.144  -5.139  0.00  0.00    +0.000 A 
ATOM     34  C   UNL     1      -3.336  11.687  -6.252  0.00  0.00    +0.000 A 
ATOM     35  C   UNL     1      -1.959  11.649  -6.368  0.00  0.00    +0.000 A 
ATOM     36  C   UNL     1      -1.197  11.069  -5.371  0.00  0.00    +0.005 A 
ENDBRANCH  30  31
ENDBRANCH  25  30
ENDBRANCH   1  26
TORSDOF 6
