REMARK  Name = ZINC04246609
REMARK  4 active torsions:
REMARK  status: ('A' for Active; 'I' for Inactive)
REMARK    1  A    between atoms: C_16  and  S_18
REMARK    2  A    between atoms: S_18  and  C_19
REMARK    3  A    between atoms: C_19  and  C_20
REMARK    4  A    between atoms: C_25  and  C_28
REMARK                            x       y       z     vdW  Elec       q    Type
REMARK                         _______ _______ _______ _____ _____    ______ ____
ROOT
ATOM      1  C   UNL     1      -3.019   6.315   0.060  0.00  0.00    +0.001 A 
ATOM      2  C   UNL     1      -2.178   7.419   0.058  0.00  0.00    +0.002 A 
ATOM      3  C   UNL     1      -0.810   7.264   0.045  0.00  0.00    +0.028 A 
ATOM      4  C   UNL     1      -0.258   5.980   0.034  0.00  0.00    +0.077 A 
ATOM      5  C   UNL     1      -1.117   4.859   0.037  0.00  0.00    +0.043 A 
ATOM      6  C   UNL     1      -2.498   5.038   0.050  0.00  0.00    +0.013 A 
ATOM      7  C   UNL     1      -0.510   3.519   0.025  0.00  0.00    +0.150 A 
ATOM      8  N   UNL     1      -1.017   2.309   0.019  0.00  0.00    -0.227 NA
ATOM      9  C   UNL     1      -0.017   1.395   0.010  0.00  0.00    +0.090 A 
ATOM     10  C   UNL     1       0.002  -0.004   0.002  0.00  0.00    +0.030 A 
ATOM     11  C   UNL     1       1.195  -0.669  -0.013  0.00  0.00    +0.002 A 
ATOM     12  C   UNL     1       2.394   0.030  -0.021  0.00  0.00    +0.002 A 
ATOM     13  C   UNL     1       2.400   1.409  -0.013  0.00  0.00    +0.028 A 
ATOM     14  C   UNL     1       1.198   2.103   0.002  0.00  0.00    +0.076 A 
ATOM     15  N   UNL     1       0.866   3.446   0.012  0.00  0.00    -0.271 N 
ATOM     16  C   UNL     1       1.615   4.593   0.010  0.00  0.00    +0.176 A 
ATOM     17  N   UNL     1       1.084   5.789   0.020  0.00  0.00    -0.223 NA
ENDROOT
BRANCH  16  18
ATOM     18  S   UNL     1       3.371   4.452  -0.007  0.00  0.00    -0.078 S 
BRANCH  18  19
ATOM     19  C   UNL     1       3.827   6.204  -0.003  0.00  0.00    +0.173 C 
BRANCH  19  20
ATOM     20  C   UNL     1       5.329   6.332  -0.016  0.00  0.00    +0.226 C 
ATOM     21  O   UNL     1       6.022   5.337  -0.027  0.00  0.00    -0.275 OA
ATOM     22  N   UNL     1       5.901   7.552  -0.016  0.00  0.00    -0.301 N 
ATOM     23  C   UNL     1       5.074   8.767  -0.009  0.00  0.00    +0.108 C 
ATOM     24  C   UNL     1       5.497   9.664  -1.171  0.00  0.00    +0.032 C 
ATOM     25  C   UNL     1       7.003   9.927  -1.087  0.00  0.00    +0.078 C 
ATOM     26  C   UNL     1       7.761   8.602  -1.196  0.00  0.00    +0.032 C 
ATOM     27  C   UNL     1       7.364   7.693  -0.029  0.00  0.00    +0.108 C 
BRANCH  25  28
ATOM     28  C   UNL     1       7.416  10.837  -2.215  0.00  0.00    +0.214 C 
ATOM     29  O   UNL     1       8.237  10.463  -3.026  0.00  0.00    -0.276 OA
ATOM     30  N   UNL     1       6.875  12.066  -2.322  0.00  0.00    -0.329 N 
ATOM     31  H   UNL     1       6.219  12.365  -1.673  0.00  0.00    +0.145 HD
ATOM     32  H   UNL     1       7.141  12.652  -3.048  0.00  0.00    +0.145 HD
ENDBRANCH  25  28
ENDBRANCH  19  20
ENDBRANCH  18  19
ENDBRANCH  16  18
TORSDOF 4
