REMARK  Name = ZINC63383574
REMARK  11 active torsions:
REMARK  status: ('A' for Active; 'I' for Inactive)
REMARK    1  A    between atoms: C_1  and  C_2
REMARK    2  A    between atoms: C_2  and  C_3
REMARK    3  A    between atoms: C_2  and  C_4
REMARK    4  A    between atoms: C_4  and  C_5
REMARK    5  A    between atoms: C_5  and  C_7
REMARK    6  A    between atoms: C_5  and  N_14
REMARK    7  A    between atoms: N_9  and  C_10
REMARK    8  A    between atoms: C_10  and  C_11
REMARK    9  A    between atoms: C_11  and  C_12
REMARK   10  A    between atoms: C_11  and  C_13
REMARK   11  A    between atoms: C_15  and  C_17
REMARK                            x       y       z     vdW  Elec       q    Type
REMARK                         _______ _______ _______ _____ _____    ______ ____
ROOT
ATOM      1  C   UNL     1      -1.399   3.241  -2.526  0.00  0.00    +0.167 C 
ATOM      2  C   UNL     1      -1.520   3.468  -4.045  0.00  0.00    +0.065 C 
ATOM      3  C   UNL     1      -1.153   4.907  -4.309  0.00  0.00    -0.034 C 
ATOM      4  C   UNL     1      -1.807   5.864  -4.958  0.00  0.00    -0.001 A 
ATOM      5  C   UNL     1      -3.061   5.841  -5.730  0.00  0.00    +0.010 A 
ATOM      6  C   UNL     1      -3.461   7.028  -6.258  0.00  0.00    +0.001 A 
ATOM      7  C   UNL     1      -2.749   8.221  -6.097  0.00  0.00    +0.002 A 
ATOM      8  C   UNL     1      -1.583   8.332  -5.412  0.00  0.00    +0.026 A 
ATOM      9  C   UNL     1      -1.056   7.148  -4.817  0.00  0.00    +0.043 A 
ATOM     10  N   UNL     1       0.035   6.963  -4.136  0.00  0.00    -0.375 N 
ATOM     11  C   UNL     1       0.140   5.540  -3.806  0.00  0.00    +0.131 C 
ATOM     12  C   UNL     1       0.175   5.312  -2.291  0.00  0.00    +0.134 C 
ATOM     13  N   UNL     1      -0.170   3.893  -2.054  0.00  0.00    -0.276 N 
ATOM     14  C   UNL     1       0.826   3.318  -1.356  0.00  0.00    +0.248 C 
ATOM     15  O   UNL     1       0.809   2.179  -0.930  0.00  0.00    -0.270 OA
ATOM     16  C   UNL     1       1.932   4.261  -1.185  0.00  0.00    +0.042 A 
ATOM     17  C   UNL     1       1.554   5.518  -1.752  0.00  0.00    -0.013 A 
ATOM     18  C   UNL     1       2.381   6.619  -1.745  0.00  0.00    +0.006 A 
ATOM     19  C   UNL     1       3.627   6.469  -1.143  0.00  0.00    +0.000 A 
ATOM     20  C   UNL     1       4.022   5.274  -0.575  0.00  0.00    +0.001 A 
ATOM     21  C   UNL     1       3.182   4.101  -0.581  0.00  0.00    +0.013 A 
ATOM     22  H   UNL     1       0.672   7.651  -3.887  0.00  0.00    +0.160 HD
ENDROOT
BRANCH   1  24
ATOM     23  N   UNL     1      -2.355   1.154  -1.604  0.00  0.00    -0.302 N 
ATOM     24  C   UNL     1      -1.333   1.764  -2.236  0.00  0.00    +0.235 C 
ATOM     25  O   UNL     1      -0.359   1.123  -2.573  0.00  0.00    -0.274 OA
ATOM     26  H   UNL     1      -3.163   1.650  -1.399  0.00  0.00    +0.150 HD
BRANCH  23  27
ATOM     27  C   UNL     1      -2.245  -0.257  -1.225  0.00  0.00    +0.159 C 
BRANCH  27  28
ATOM     28  C   UNL     1      -3.616  -0.880  -1.207  0.00  0.00    +0.233 C 
ATOM     29  O   UNL     1      -4.601  -0.177  -1.130  0.00  0.00    -0.274 OA
ATOM     30  N   UNL     1      -3.749  -2.220  -1.276  0.00  0.00    -0.314 N 
ATOM     31  H   UNL     1      -2.961  -2.786  -1.266  0.00  0.00    +0.149 HD
BRANCH  30  32
ATOM     32  C   UNL     1      -5.082  -2.821  -1.367  0.00  0.00    +0.107 C 
BRANCH  32  33
ATOM     33  C   UNL     1      -4.951  -4.343  -1.433  0.00  0.00    -0.000 C 
ATOM     34  C   UNL     1      -4.362  -4.862  -0.119  0.00  0.00    +0.009 C 
ATOM     35  C   UNL     1      -6.332  -4.965  -1.652  0.00  0.00    +0.009 C 
ENDBRANCH  32  33
ENDBRANCH  30  32
ENDBRANCH  27  28
BRANCH  27  36
ATOM     36  C   UNL     1      -1.617  -0.364   0.166  0.00  0.00    +0.034 C 
BRANCH  36  38
ATOM     37  C   UNL     1      -0.309  -2.409  -0.423  0.00  0.00    +0.007 C 
ATOM     38  C   UNL     1      -1.381  -1.836   0.507  0.00  0.00    -0.015 C 
ATOM     39  C   UNL     1      -0.912  -1.955   1.959  0.00  0.00    +0.007 C 
ENDBRANCH  36  38
ENDBRANCH  27  36
ENDBRANCH  23  27
ENDBRANCH   1  24
TORSDOF 7
