REMARK  Name = ZINC03642811
REMARK  1 active torsions:
REMARK  status: ('A' for Active; 'I' for Inactive)
REMARK    1  A    between atoms: C_3  and  C_6
REMARK                            x       y       z     vdW  Elec       q    Type
REMARK                         _______ _______ _______ _____ _____    ______ ____
ROOT
ATOM      1  C   UNL     1       2.499   1.455  -0.015  0.00  0.00    +0.142 C 
ATOM      2  C   UNL     1       3.044   1.554  -1.432  0.00  0.00    +0.052 C 
ATOM      3  C   UNL     1       4.554   1.237  -1.457  0.00  0.00    +0.036 C 
ATOM      4  C   UNL     1       5.129   2.260  -2.458  0.00  0.00    +0.161 C 
ATOM      5  O   UNL     1       4.023   3.024  -2.969  0.00  0.00    -0.372 OA
ATOM      6  C   UNL     1       2.993   3.003  -1.950  0.00  0.00    +0.155 C 
ATOM      7  C   UNL     1       3.389   3.992  -0.887  0.00  0.00    +0.005 A 
ATOM      8  C   UNL     1       3.625   5.305  -1.271  0.00  0.00    +0.046 A 
ATOM      9  C   UNL     1       3.993   6.253  -0.334  0.00  0.00    +0.124 A 
ATOM     10  C   UNL     1       4.131   5.899   0.998  0.00  0.00    +0.040 A 
ATOM     11  C   UNL     1       3.897   4.595   1.387  0.00  0.00    +0.026 A 
ATOM     12  C   UNL     1       3.525   3.643   0.445  0.00  0.00    +0.034 A 
ATOM     13  N   UNL     1       3.286   2.328   0.864  0.00  0.00    -0.334 N 
ATOM     14  F   UNL     1       4.220   7.528  -0.719  0.00  0.00    -0.205 F 
ATOM     15  H   UNL     1       3.631   2.003   1.711  0.00  0.00    +0.147 HD
ENDROOT
BRANCH   1  18
ATOM     16  C   UNL     1      -1.159   1.903   0.017  0.00  0.00    +0.041 A 
ATOM     17  C   UNL     1      -0.013   1.076   0.008  0.00  0.00    +0.046 A 
ATOM     18  C   UNL     1       1.057   1.892   0.002  0.00  0.00    +0.125 A 
ATOM     19  O   UNL     1       0.621   3.162   0.013  0.00  0.00    -0.466 OA
ATOM     20  C   UNL     1      -0.722   3.175   0.026  0.00  0.00    +0.195 A 
ENDBRANCH   1  18
TORSDOF 1
