REMARK  Name = ZINC01431627
REMARK  9 active torsions:
REMARK  status: ('A' for Active; 'I' for Inactive)
REMARK    1  A    between atoms: C_1  and  C_2
REMARK    2  A    between atoms: C_5  and  C_17
REMARK    3  A    between atoms: C_7  and  S_8
REMARK    4  A    between atoms: S_8  and  N_11
REMARK    5  A    between atoms: N_11  and  C_12
REMARK    6  A    between atoms: C_12  and  C_13
REMARK    7  A    between atoms: C_13  and  C_15
REMARK    8  A    between atoms: C_13  and  O_16
REMARK    9  A    between atoms: C_27  and  C_30
REMARK                            x       y       z     vdW  Elec       q    Type
REMARK                         _______ _______ _______ _____ _____    ______ ____
ROOT
ATOM      1  C   UNL     1       0.075   1.595  -0.097  0.00  0.00    +0.046 C 
ATOM      2  C   UNL     1       0.193   0.093  -0.056  0.00  0.00    -0.024 A 
ATOM      3  C   UNL     1       0.692  -0.589  -1.152  0.00  0.00    +0.006 A 
ATOM      4  C   UNL     1       0.803  -1.964  -1.120  0.00  0.00    +0.010 A 
ATOM      5  C   UNL     1       0.411  -2.666   0.020  0.00  0.00    +0.005 A 
ATOM      6  C   UNL     1      -0.090  -1.973   1.121  0.00  0.00    +0.039 A 
ATOM      7  C   UNL     1      -0.192  -0.597   1.079  0.00  0.00    +0.109 A 
ENDROOT
BRANCH   5   8
ATOM      8  C   UNL     1       0.527  -4.143   0.060  0.00  0.00    +0.100 A 
ATOM      9  C   UNL     1      -0.543  -4.944   0.669  0.00  0.00    +0.013 A 
ATOM     10  C   UNL     1      -1.681  -4.352   1.217  0.00  0.00    +0.011 A 
ATOM     11  C   UNL     1      -2.659  -5.144   1.776  0.00  0.00    +0.001 A 
ATOM     12  C   UNL     1      -2.524  -6.526   1.801  0.00  0.00    +0.001 A 
ATOM     13  C   UNL     1      -1.410  -7.133   1.266  0.00  0.00    +0.012 A 
ATOM     14  C   UNL     1      -0.408  -6.350   0.694  0.00  0.00    +0.030 A 
ATOM     15  C   UNL     1       0.800  -6.940   0.109  0.00  0.00    +0.186 A 
ATOM     16  N   UNL     1       1.235  -8.174  -0.034  0.00  0.00    -0.127 NA
ATOM     17  N   UNL     1       2.377  -8.161  -0.626  0.00  0.00    -0.132 NA
ATOM     18  C   UNL     1       2.733  -6.931  -0.893  0.00  0.00    +0.152 A 
ATOM     19  N   UNL     1       1.748  -6.111  -0.438  0.00  0.00    -0.196 N 
ATOM     20  N   UNL     1       1.580  -4.727  -0.451  0.00  0.00    -0.163 NA
ATOM     21  C   UNL     1       4.004  -6.501  -1.580  0.00  0.00    +0.090 C 
ENDBRANCH   5   8
BRANCH   7  22
ATOM     22  S   UNL     1      -0.820   0.281   2.472  0.00  0.00    +0.059 S 
ATOM     23  O   UNL     1      -1.221  -0.697   3.421  0.00  0.00    -0.153 OA
ATOM     24  O   UNL     1       0.130   1.293   2.776  0.00  0.00    -0.153 OA
BRANCH  22  25
ATOM     25  N   UNL     1      -2.198   1.057   1.981  0.00  0.00    -0.187 NA
ATOM     26  H   UNL     1      -2.219   2.026   1.935  0.00  0.00    +0.148 HD
BRANCH  25  27
ATOM     27  C   UNL     1      -3.385   0.281   1.615  0.00  0.00    +0.136 C 
BRANCH  27  28
ATOM     28  C   UNL     1      -4.605   1.202   1.576  0.00  0.00    +0.127 C 
ATOM     29  C   UNL     1      -5.864   0.372   1.317  0.00  0.00    +0.039 C 
BRANCH  28  30
ATOM     30  O   UNL     1      -4.444   2.163   0.530  0.00  0.00    -0.391 OA
ATOM     31  H   UNL     1      -5.183   2.782   0.448  0.00  0.00    +0.210 HD
ENDBRANCH  28  30
ENDBRANCH  27  28
ENDBRANCH  25  27
ENDBRANCH  22  25
ENDBRANCH   7  22
TORSDOF 6
