REMARK  Name = ZINC14637367
REMARK  4 active torsions:
REMARK  status: ('A' for Active; 'I' for Inactive)
REMARK    1  A    between atoms: C_3  and  C_6
REMARK    2  A    between atoms: C_11  and  C_14
REMARK    3  A    between atoms: N_16  and  C_17
REMARK    4  A    between atoms: C_22  and  N_23
REMARK                            x       y       z     vdW  Elec       q    Type
REMARK                         _______ _______ _______ _____ _____    ______ ____
ROOT
ATOM      1  C   UNL     1      -1.133  -2.062   0.041  0.00  0.00    +0.220 C 
ATOM      2  O   UNL     1      -0.076  -2.657   0.058  0.00  0.00    -0.275 OA
ATOM      3  N   UNL     1      -1.153  -0.719   0.157  0.00  0.00    -0.284 N 
ATOM      4  H   UNL     1      -2.000  -0.249   0.204  0.00  0.00    +0.155 HD
ENDROOT
BRANCH   1  10
ATOM      5  C   UNL     1      -4.915  -5.697   1.445  0.00  0.00    +0.282 C 
ATOM      6  O   UNL     1      -5.736  -5.399   2.293  0.00  0.00    -0.267 OA
ATOM      7  N   UNL     1      -4.350  -4.737   0.687  0.00  0.00    -0.295 N 
ATOM      8  C   UNL     1      -3.436  -5.089  -0.408  0.00  0.00    +0.109 C 
ATOM      9  C   UNL     1      -2.123  -4.320  -0.220  0.00  0.00    +0.032 C 
ATOM     10  C   UNL     1      -2.425  -2.824  -0.110  0.00  0.00    +0.078 C 
ATOM     11  C   UNL     1      -3.312  -2.570   1.111  0.00  0.00    +0.032 C 
ATOM     12  C   UNL     1      -4.637  -3.318   0.939  0.00  0.00    +0.109 C 
BRANCH   5  15
ATOM     13  C   UNL     1      -4.346  -9.303   1.478  0.00  0.00    +0.042 A 
ATOM     14  C   UNL     1      -4.935  -8.153   2.026  0.00  0.00    +0.054 A 
ATOM     15  C   UNL     1      -4.541  -7.101   1.249  0.00  0.00    +0.189 A 
ATOM     16  O   UNL     1      -3.751  -7.582   0.266  0.00  0.00    -0.458 OA
ATOM     17  C   UNL     1      -3.627  -8.908   0.404  0.00  0.00    +0.196 A 
ENDBRANCH   5  15
ENDBRANCH   1  10
BRANCH   3  18
ATOM     18  C   UNL     1       0.051  -0.003   0.208  0.00  0.00    +0.056 A 
ATOM     19  C   UNL     1       1.160  -0.551   0.833  0.00  0.00    +0.045 A 
ATOM     20  C   UNL     1       2.347   0.158   0.882  0.00  0.00    +0.043 A 
ATOM     21  C   UNL     1       2.430   1.415   0.310  0.00  0.00    +0.022 A 
ATOM     22  C   UNL     1       1.329   1.968  -0.315  0.00  0.00    +0.026 A 
ATOM     23  C   UNL     1       0.135   1.264  -0.369  0.00  0.00    +0.051 A 
ATOM     24 CL   UNL     1       3.735  -0.530   1.666  0.00  0.00    -0.083 Cl
BRANCH  23  25
ATOM     25  N   UNL     1      -0.980   1.821  -1.007  0.00  0.00    -0.328 N 
ATOM     26  C   UNL     1      -0.727   2.009  -2.441  0.00  0.00    +0.105 C 
ATOM     27  C   UNL     1      -2.010   2.480  -3.129  0.00  0.00    +0.019 C 
ATOM     28  C   UNL     1      -2.469   3.797  -2.495  0.00  0.00    +0.003 C 
ATOM     29  C   UNL     1      -2.679   3.585  -0.994  0.00  0.00    +0.019 C 
ATOM     30  C   UNL     1      -1.376   3.082  -0.367  0.00  0.00    +0.105 C 
ENDBRANCH  23  25
ENDBRANCH   3  18
TORSDOF 4
