REMARK  Name = ZINC58125698
REMARK  10 active torsions:
REMARK  status: ('A' for Active; 'I' for Inactive)
REMARK    1  A    between atoms: C_1  and  C_2
REMARK    2  A    between atoms: C_4  and  C_19
REMARK    3  A    between atoms: C_9  and  C_17
REMARK    4  A    between atoms: C_9  and  C_18
REMARK    5  A    between atoms: C_11  and  N_13
REMARK    6  A    between atoms: C_14  and  C_16
REMARK    7  A    between atoms: C_19  and  C_21
REMARK    8  A    between atoms: C_19  and  N_24
REMARK    9  A    between atoms: C_21  and  O_22
REMARK   10  A    between atoms: O_22  and  C_23
REMARK                            x       y       z     vdW  Elec       q    Type
REMARK                         _______ _______ _______ _____ _____    ______ ____
ROOT
ATOM      1  C   UNL     1      -0.018   1.503   0.010  0.00  0.00    +0.047 C 
ATOM      2  C   UNL     1       0.002  -0.004   0.002  0.00  0.00    -0.008 A 
ATOM      3  C   UNL     1       0.006  -0.685  -1.198  0.00  0.00    +0.009 A 
ATOM      4  C   UNL     1       0.025  -2.068  -1.208  0.00  0.00    -0.059 A 
ATOM      5  C   UNL     1       0.043  -2.766  -0.016  0.00  0.00    +0.011 A 
ATOM      6  C   UNL     1       0.040  -2.088   1.192  0.00  0.00    +0.015 A 
ATOM      7  C   UNL     1       0.023  -0.704   1.204  0.00  0.00    +0.129 A 
ATOM      8  O   UNL     1       0.013   0.002   2.365  0.00  0.00    -0.486 OA
ATOM      9  C   UNL     1       0.402  -0.676   3.561  0.00  0.00    +0.107 C 
ATOM     10  C   UNL     1      -0.367  -2.001   3.639  0.00  0.00    +0.074 C 
ATOM     11  C   UNL     1       0.064  -2.885   2.471  0.00  0.00    +0.110 C 
ATOM     12  C   UNL     1       1.906  -0.955   3.529  0.00  0.00    +0.055 C 
ATOM     13  C   UNL     1       0.064   0.190   4.776  0.00  0.00    +0.055 C 
ENDROOT
BRANCH  11  14
ATOM     14  N   UNL     1      -0.841  -4.030   2.350  0.00  0.00    -0.308 N 
ATOM     15  C   UNL     1      -0.409  -5.173   1.781  0.00  0.00    +0.210 C 
ATOM     16  O   UNL     1       0.729  -5.253   1.370  0.00  0.00    -0.276 OA
ATOM     17  C   UNL     1      -1.341  -6.351   1.656  0.00  0.00    +0.109 C 
ATOM     18  H   UNL     1      -1.751  -3.966   2.679  0.00  0.00    +0.149 HD
ENDBRANCH  11  14
BRANCH   4  19
ATOM     19  C   UNL     1       0.027  -2.813  -2.518  0.00  0.00    -0.018 C 
BRANCH  19  20
ATOM     20  N   UNL     1       0.900  -2.120  -3.474  0.00  0.00    +0.384 N 
ATOM     21  H   UNL     1       0.901  -2.619  -4.351  0.00  0.00    -0.089 HD
ATOM     22  H   UNL     1       0.560  -1.181  -3.621  0.00  0.00    -0.089 HD
ATOM     23  H   UNL     1       1.839  -2.084  -3.107  0.00  0.00    -0.089 HD
ENDBRANCH  19  20
BRANCH  19  24
ATOM     24  C   UNL     1      -1.397  -2.867  -3.075  0.00  0.00    +0.148 C 
BRANCH  24  25
ATOM     25  O   UNL     1      -1.416  -3.672  -4.255  0.00  0.00    -0.384 OA
ATOM     26  C   UNL     1      -2.707  -3.789  -4.858  0.00  0.00    +0.193 C 
ENDBRANCH  24  25
ENDBRANCH  19  24
ENDBRANCH   4  19
TORSDOF 5
