REMARK  Name = ZINC13584077
REMARK  3 active torsions:
REMARK  status: ('A' for Active; 'I' for Inactive)
REMARK    1  A    between atoms: C_3  and  S_12
REMARK    2  A    between atoms: S_12  and  N_15
REMARK    3  A    between atoms: C_21  and  C_23
REMARK                            x       y       z     vdW  Elec       q    Type
REMARK                         _______ _______ _______ _____ _____    ______ ____
ROOT
ATOM      1  N   UNL     1      -0.505  -4.787   0.883  0.00  0.00    -0.174 NA
ATOM      2  C   UNL     1      -1.878  -4.262   0.902  0.00  0.00    +0.128 C 
ATOM      3  C   UNL     1      -2.017  -3.212  -0.207  0.00  0.00    +0.125 C 
ATOM      4  N   UNL     1      -0.896  -2.268  -0.103  0.00  0.00    -0.295 N 
ATOM      5  C   UNL     1       0.477  -2.792  -0.127  0.00  0.00    +0.125 C 
ATOM      6  C   UNL     1       0.615  -3.842   0.988  0.00  0.00    +0.128 C 
ATOM      7  C   UNL     1      -1.123  -0.944   0.009  0.00  0.00    +0.253 C 
ATOM      8  O   UNL     1      -2.260  -0.530   0.144  0.00  0.00    -0.269 OA
ENDROOT
BRANCH   7   9
ATOM      9  C   UNL     1      -0.001  -0.002  -0.034  0.00  0.00    +0.074 A 
ATOM     10  C   UNL     1       0.082   1.280   0.480  0.00  0.00    +0.024 A 
ATOM     11  C   UNL     1       1.265   1.975   0.309  0.00  0.00    -0.040 A 
ATOM     12  C   UNL     1       2.268   1.333  -0.364  0.00  0.00    -0.023 A 
ATOM     13  S   UNL     1       1.616  -0.209  -0.763  0.00  0.00    -0.090 S 
ATOM     14  C   UNL     1       3.626   1.882  -0.671  0.00  0.00    -0.039 C 
ATOM     15  C   UNL     1       3.002   3.654   0.857  0.00  0.00    -0.077 C 
ATOM     16  C   UNL     1       1.494   3.393   0.829  0.00  0.00    +0.017 C 
ATOM     17  N   UNL     1       3.597   3.346  -0.456  0.00  0.00    +0.382 N 
ATOM     18  H   UNL     1       3.037   3.787  -1.194  0.00  0.00    -0.085 HD
ATOM     19  H   UNL     1       4.556   3.712  -0.488  0.00  0.00    -0.085 HD
ENDBRANCH   7   9
BRANCH   1  20
ATOM     20  S   UNL     1      -0.227  -6.414   0.746  0.00  0.00    +0.061 S 
ATOM     21  O   UNL     1       1.058  -6.654   1.303  0.00  0.00    -0.153 OA
ATOM     22  O   UNL     1      -1.396  -7.067   1.219  0.00  0.00    -0.153 OA
BRANCH  20  25
ATOM     23  C   UNL     1      -1.196  -7.411  -3.013  0.00  0.00    +0.010 A 
ATOM     24  C   UNL     1      -1.253  -7.128  -1.683  0.00  0.00    +0.029 A 
ATOM     25  C   UNL     1      -0.106  -6.779  -0.973  0.00  0.00    +0.106 A 
ATOM     26  C   UNL     1       1.107  -6.721  -1.588  0.00  0.00    +0.037 A 
ATOM     27  C   UNL     1       1.207  -7.012  -2.958  0.00  0.00    -0.016 A 
ATOM     28  C   UNL     1       0.039  -7.362  -3.681  0.00  0.00    -0.016 A 
ATOM     29  C   UNL     1       0.139  -7.654  -5.052  0.00  0.00    +0.028 A 
ATOM     30  C   UNL     1       1.353  -7.597  -5.667  0.00  0.00    +0.042 A 
ATOM     31  C   UNL     1       2.502  -7.252  -4.955  0.00  0.00    +0.020 A 
ATOM     32  C   UNL     1       2.443  -6.963  -3.627  0.00  0.00    +0.010 A 
ATOM     33 CL   UNL     1       1.472  -7.958  -7.361  0.00  0.00    -0.084 Cl
ENDBRANCH  20  25
ENDBRANCH   1  20
TORSDOF 3
