REMARK  Name = ZINC20502712
REMARK  3 active torsions:
REMARK  status: ('A' for Active; 'I' for Inactive)
REMARK    1  A    between atoms: C_12  and  C_14
REMARK    2  A    between atoms: C_14  and  P_15
REMARK    3  A    between atoms: P_15  and  O_18
REMARK                            x       y       z     vdW  Elec       q    Type
REMARK                         _______ _______ _______ _____ _____    ______ ____
ROOT
ATOM      1  C   UNL     1      -0.017   1.384   0.010  0.00  0.00    +0.022 A 
ATOM      2  C   UNL     1       1.142   2.116   0.003  0.00  0.00    +0.030 A 
ATOM      3  C   UNL     1       2.402   1.474  -0.013  0.00  0.00    +0.080 A 
ATOM      4  C   UNL     1       2.383   0.061  -0.020  0.00  0.00    +0.042 A 
ATOM      5  C   UNL     1       1.218  -0.665  -0.013  0.00  0.00    +0.037 A 
ATOM      6  C   UNL     1       0.002  -0.004   0.002  0.00  0.00    +0.042 A 
ATOM      7 CL   UNL     1      -1.484  -0.902   0.012  0.00  0.00    -0.084 Cl
ATOM      8  S   UNL     1       4.114  -0.341  -0.038  0.00  0.00    -0.052 S 
ATOM      9  C   UNL     1       4.733   1.336  -0.035  0.00  0.00    +0.165 A 
ATOM     10  N   UNL     1       3.627   2.043  -0.021  0.00  0.00    -0.225 NA
ATOM     11  N   UNL     1       6.046   1.777  -0.045  0.00  0.00    -0.264 N 
ATOM     12  C   UNL     1       6.314   3.098  -0.040  0.00  0.00    +0.230 C 
ATOM     13  O   UNL     1       5.404   3.901  -0.028  0.00  0.00    -0.275 OA
ATOM     14  H   UNL     1       6.774   1.135  -0.055  0.00  0.00    +0.157 HD
ENDROOT
BRANCH  12  15
ATOM     15  C   UNL     1       7.742   3.578  -0.051  0.00  0.00    +0.225 C 
BRANCH  15  16
ATOM     16  P   UNL     1       8.239   4.045   1.640  0.00  0.00    +0.366 P 
ATOM     17  O   UNL     1       7.243   5.086   2.200  0.00  0.00    -0.256 OA
ATOM     18  O   UNL     1       8.235   2.792   2.543  0.00  0.00    -0.140 OA
BRANCH  16  19
ATOM     19  O   UNL     1       9.718   4.680   1.609  0.00  0.00    -0.322 OA
ATOM     20  H   UNL     1      10.047   4.952   2.476  0.00  0.00    +0.220 HD
ENDBRANCH  16  19
ENDBRANCH  15  16
ENDBRANCH  12  15
TORSDOF 3
