REMARK  Name = ZINC21182677
REMARK  8 active torsions:
REMARK  status: ('A' for Active; 'I' for Inactive)
REMARK    1  A    between atoms: C_1  and  C_2
REMARK    2  A    between atoms: C_7  and  N_8
REMARK    3  A    between atoms: C_12  and  C_28
REMARK    4  A    between atoms: C_13  and  C_27
REMARK    5  A    between atoms: C_17  and  S_18
REMARK    6  A    between atoms: S_18  and  C_19
REMARK    7  A    between atoms: C_19  and  C_20
REMARK    8  A    between atoms: N_25  and  C_26
REMARK                            x       y       z     vdW  Elec       q    Type
REMARK                         _______ _______ _______ _____ _____    ______ ____
ROOT
ATOM      1  N   UNL     1       2.357   3.889   0.001  0.00  0.00    -0.255 N 
ATOM      2  C   UNL     1       2.932   4.227   1.170  0.00  0.00    +0.268 A 
ATOM      3  O   UNL     1       2.413   3.911   2.227  0.00  0.00    -0.267 OA
ATOM      4  C   UNL     1       4.162   4.957   1.157  0.00  0.00    +0.076 A 
ATOM      5  C   UNL     1       4.965   5.425   2.273  0.00  0.00    -0.026 A 
ATOM      6  C   UNL     1       6.095   6.104   2.028  0.00  0.00    -0.008 A 
ATOM      7  S   UNL     1       6.164   6.164   0.247  0.00  0.00    -0.073 S 
ATOM      8  C   UNL     1       4.671   5.276  -0.116  0.00  0.00    +0.117 A 
ATOM      9  N   UNL     1       4.052   4.917  -1.234  0.00  0.00    -0.215 NA
ATOM     10  C   UNL     1       2.922   4.240  -1.193  0.00  0.00    +0.178 A 
ATOM     11  C   UNL     1       7.073   6.679   3.020  0.00  0.00    +0.052 C 
ATOM     12  C   UNL     1       4.533   5.151   3.691  0.00  0.00    +0.045 C 
ENDROOT
BRANCH   1  19
ATOM     13  C   UNL     1      -0.085   5.351   0.032  0.00  0.00    +0.046 C 
ATOM     14  C   UNL     1      -0.059   3.844   0.023  0.00  0.00    -0.026 A 
ATOM     15  C   UNL     1      -1.243   3.133   0.031  0.00  0.00    +0.005 A 
ATOM     16  C   UNL     1      -1.220   1.750   0.017  0.00  0.00    +0.000 A 
ATOM     17  C   UNL     1      -0.013   1.076   0.008  0.00  0.00    +0.002 A 
ATOM     18  C   UNL     1       1.174   1.782   0.000  0.00  0.00    +0.026 A 
ATOM     19  C   UNL     1       1.155   3.170   0.008  0.00  0.00    +0.055 A 
ENDBRANCH   1  19
BRANCH  10  20
ATOM     20  S   UNL     1       2.129   3.781  -2.699  0.00  0.00    -0.078 S 
BRANCH  20  21
ATOM     21  C   UNL     1       3.289   4.489  -3.894  0.00  0.00    +0.173 C 
BRANCH  21  22
ATOM     22  C   UNL     1       2.802   4.211  -5.292  0.00  0.00    +0.231 C 
ATOM     23  O   UNL     1       1.771   3.596  -5.464  0.00  0.00    -0.274 OA
ATOM     24  N   UNL     1       3.511   4.647  -6.352  0.00  0.00    -0.240 N 
ATOM     25  C   UNL     1       3.075   4.399  -7.603  0.00  0.00    +0.306 C 
ATOM     26  O   UNL     1       2.042   3.782  -7.775  0.00  0.00    -0.252 OA
ATOM     27  N   UNL     1       3.784   4.834  -8.663  0.00  0.00    -0.302 N 
ATOM     28  C   UNL     1       3.310   4.564 -10.023  0.00  0.00    +0.129 C 
ATOM     29  H   UNL     1       4.446   5.205  -6.197  0.00  0.00    +0.159 HD
ATOM     30  H   UNL     1       4.719   5.393  -8.507  0.00  0.00    +0.150 HD
ENDBRANCH  21  22
ENDBRANCH  20  21
ENDBRANCH  10  20
TORSDOF 4
