REMARK  Name = ZINC05237905
REMARK  9 active torsions:
REMARK  status: ('A' for Active; 'I' for Inactive)
REMARK    1  A    between atoms: C_1  and  C_2
REMARK    2  A    between atoms: C_4  and  C_25
REMARK    3  A    between atoms: C_5  and  N_9
REMARK    4  A    between atoms: C_6  and  C_8
REMARK    5  A    between atoms: C_10  and  C_12
REMARK    6  A    between atoms: C_12  and  C_14
REMARK    7  A    between atoms: C_12  and  S_15
REMARK    8  A    between atoms: S_15  and  C_16
REMARK    9  A    between atoms: C_22  and  N_24
REMARK                            x       y       z     vdW  Elec       q    Type
REMARK                         _______ _______ _______ _____ _____    ______ ____
ROOT
ATOM      1  C   UNL     1      -0.823   3.970  -0.602  0.00  0.00    +0.137 C 
ATOM      2  C   UNL     1      -0.377   3.725   0.841  0.00  0.00    +0.029 C 
ENDROOT
BRANCH   1   4
ATOM      3  N   UNL     1      -2.381   5.876  -0.364  0.00  0.00    -0.284 N 
ATOM      4  C   UNL     1      -1.181   5.423  -0.777  0.00  0.00    +0.230 C 
ATOM      5  O   UNL     1      -0.388   6.186  -1.289  0.00  0.00    -0.274 OA
ATOM      6  H   UNL     1      -3.041   5.255  -0.019  0.00  0.00    +0.155 HD
BRANCH   3  11
ATOM      7  C   UNL     1      -3.573  11.416  -0.645  0.00  0.00    +0.044 C 
ATOM      8  C   UNL     1      -3.256   9.944  -0.571  0.00  0.00    -0.050 A 
ATOM      9  C   UNL     1      -2.096   9.519   0.049  0.00  0.00    +0.008 A 
ATOM     10  C   UNL     1      -1.803   8.171   0.120  0.00  0.00    -0.029 A 
ATOM     11  C   UNL     1      -2.675   7.242  -0.433  0.00  0.00    +0.039 A 
ATOM     12  C   UNL     1      -3.837   7.673  -1.061  0.00  0.00    -0.029 A 
ATOM     13  C   UNL     1      -4.127   9.022  -1.123  0.00  0.00    +0.008 A 
ATOM     14  C   UNL     1      -4.783   6.670  -1.667  0.00  0.00    +0.045 C 
ATOM     15  C   UNL     1      -0.538   7.708   0.796  0.00  0.00    +0.045 C 
ENDBRANCH   3  11
ENDBRANCH   1   4
BRANCH   1  16
ATOM     16  S   UNL     1       0.525   3.540  -1.731  0.00  0.00    -0.075 S 
BRANCH  16  17
ATOM     17  C   UNL     1       0.632   1.807  -1.434  0.00  0.00    +0.171 A 
ATOM     18  N   UNL     1       1.558   1.070  -2.109  0.00  0.00    -0.302 N 
ATOM     19  H   UNL     1       2.167   1.515  -2.766  0.00  0.00    +0.171 HD
ATOM     20  C   UNL     1       1.654  -0.259  -1.894  0.00  0.00    +0.254 A 
ATOM     21  O   UNL     1       2.480  -0.927  -2.495  0.00  0.00    -0.268 OA
ATOM     22  C   UNL     1       0.790  -0.858  -0.972  0.00  0.00    +0.113 A 
ATOM     23  C   UNL     1      -0.135  -0.063  -0.309  0.00  0.00    +0.124 A 
ATOM     24  N   UNL     1      -0.184   1.250  -0.563  0.00  0.00    -0.209 NA
BRANCH  23  25
ATOM     25  N   UNL     1      -1.001  -0.625   0.607  0.00  0.00    -0.343 N 
ATOM     26  H   UNL     1      -1.647  -0.067   1.068  0.00  0.00    +0.144 HD
ATOM     27  H   UNL     1      -0.963  -1.576   0.789  0.00  0.00    +0.144 HD
ENDBRANCH  23  25
ENDBRANCH  16  17
ENDBRANCH   1  16
TORSDOF 5
