REMARK  Name = ZINC49350998
REMARK  4 active torsions:
REMARK  status: ('A' for Active; 'I' for Inactive)
REMARK    1  A    between atoms: C_1  and  C_2
REMARK    2  A    between atoms: C_5  and  C_7
REMARK    3  A    between atoms: C_8  and  C_13
REMARK    4  A    between atoms: C_9  and  N_12
REMARK                            x       y       z     vdW  Elec       q    Type
REMARK                         _______ _______ _______ _____ _____    ______ ____
ROOT
ATOM      1  C   UNL     1       1.038  -4.032  -0.024  0.00  0.00    +0.130 A 
ATOM      2  C   UNL     1       2.251  -4.498  -0.703  0.00  0.00    +0.072 A 
ATOM      3  C   UNL     1       2.357  -5.849  -0.444  0.00  0.00    +0.224 A 
ATOM      4  O   UNL     1       1.315  -6.207   0.323  0.00  0.00    -0.339 OA
ATOM      5  N   UNL     1       0.510  -5.074   0.580  0.00  0.00    -0.075 NA
ENDROOT
BRANCH   2   6
ATOM      6  C   UNL     1       3.183  -3.677  -1.511  0.00  0.00    -0.005 A 
ATOM      7  C   UNL     1       2.748  -3.090  -2.699  0.00  0.00    +0.047 A 
ATOM      8  C   UNL     1       3.621  -2.325  -3.449  0.00  0.00    +0.127 A 
ATOM      9  C   UNL     1       4.926  -2.140  -3.022  0.00  0.00    +0.076 A 
ATOM     10  C   UNL     1       5.362  -2.720  -1.843  0.00  0.00    +0.127 A 
ATOM     11  C   UNL     1       4.496  -3.483  -1.083  0.00  0.00    +0.047 A 
ATOM     12  F   UNL     1       6.636  -2.536  -1.431  0.00  0.00    -0.205 F 
ATOM     13  F   UNL     1       3.201  -1.756  -4.600  0.00  0.00    -0.205 F 
ENDBRANCH   2   6
BRANCH   1  18
ATOM     14  C   UNL     1      -0.018   1.503   0.010  0.00  0.00    +0.051 C 
ATOM     15  C   UNL     1       0.002  -0.004   0.002  0.00  0.00    -0.013 A 
ATOM     16  C   UNL     1      -1.043  -0.873   0.002  0.00  0.00    +0.011 A 
ATOM     17  C   UNL     1      -0.790  -2.226  -0.007  0.00  0.00    +0.018 A 
ATOM     18  C   UNL     1       0.511  -2.653  -0.015  0.00  0.00    +0.042 A 
ATOM     19  S   UNL     1       1.405  -1.107  -0.018  0.00  0.00    -0.092 S 
ENDBRANCH   1  18
BRANCH   3  20
ATOM     20  N   UNL     1       3.357  -6.685  -0.894  0.00  0.00    -0.327 N 
ATOM     21  H   UNL     1       4.072  -6.333  -1.447  0.00  0.00    +0.145 HD
ATOM     22  H   UNL     1       3.345  -7.626  -0.658  0.00  0.00    +0.145 HD
ENDBRANCH   3  20
TORSDOF 3
