REMARK  Name = ZINC39666271
REMARK  10 active torsions:
REMARK  status: ('A' for Active; 'I' for Inactive)
REMARK    1  A    between atoms: C_1  and  C_2
REMARK    2  A    between atoms: C_5  and  O_8
REMARK    3  A    between atoms: O_8  and  C_9
REMARK    4  A    between atoms: C_9  and  C_11
REMARK    5  A    between atoms: C_9  and  C_12
REMARK    6  A    between atoms: C_12  and  N_13
REMARK    7  A    between atoms: C_14  and  C_16
REMARK    8  A    between atoms: C_27  and  C_29
REMARK    9  A    between atoms: C_30  and  C_40
REMARK   10  A    between atoms: C_33  and  C_34
REMARK                            x       y       z     vdW  Elec       q    Type
REMARK                         _______ _______ _______ _____ _____    ______ ____
ROOT
ATOM      1  C   UNL     1       4.756  -6.780  -0.060  0.00  0.00    +0.100 C 
ATOM      2  C   UNL     1       5.589  -6.113   1.058  0.00  0.00    +0.121 C 
ATOM      3  N   UNL     1       6.218  -7.243   1.781  0.00  0.00    -0.296 N 
ATOM      4  C   UNL     1       6.595  -8.200   0.714  0.00  0.00    +0.115 C 
ATOM      5  C   UNL     1       5.422  -8.149  -0.285  0.00  0.00    -0.004 C 
ATOM      6  C   UNL     1       4.432  -9.272   0.007  0.00  0.00    -0.010 C 
ATOM      7  C   UNL     1       5.099 -10.621  -0.278  0.00  0.00    -0.082 C 
ATOM      8  N   UNL     1       5.526 -10.670  -1.682  0.00  0.00    +0.379 N 
ATOM      9  C   UNL     1       6.546  -9.645  -1.931  0.00  0.00    -0.082 C 
ATOM     10  C   UNL     1       5.941  -8.255  -1.715  0.00  0.00    -0.010 C 
ATOM     11  C   UNL     1       6.406  -7.371   3.110  0.00  0.00    +0.252 C 
ATOM     12  O   UNL     1       6.943  -8.367   3.555  0.00  0.00    -0.270 OA
ATOM     13  H   UNL     1       5.909 -11.581  -1.883  0.00  0.00    -0.086 HD
ATOM     14  H   UNL     1       4.730 -10.503  -2.280  0.00  0.00    -0.086 HD
ENDROOT
BRANCH  11  15
ATOM     15  C   UNL     1       5.960  -6.305   4.023  0.00  0.00    +0.106 A 
ATOM     16  C   UNL     1       4.739  -6.205   4.622  0.00  0.00    +0.147 A 
ATOM     17  O   UNL     1       4.729  -5.100   5.372  0.00  0.00    -0.359 OA
ATOM     18  N   UNL     1       5.979  -4.448   5.266  0.00  0.00    -0.077 NA
ATOM     19  C   UNL     1       6.747  -5.146   4.468  0.00  0.00    +0.126 A 
ATOM     20  C   UNL     1       3.597  -7.176   4.466  0.00  0.00    +0.090 C 
BRANCH  19  21
ATOM     21  C   UNL     1       8.144  -4.826   4.084  0.00  0.00    +0.004 A 
ATOM     22  C   UNL     1       9.064  -5.852   3.875  0.00  0.00    +0.010 A 
ATOM     23  C   UNL     1      10.362  -5.549   3.518  0.00  0.00    +0.001 A 
ATOM     24  C   UNL     1      10.751  -4.230   3.367  0.00  0.00    +0.000 A 
ATOM     25  C   UNL     1       9.842  -3.208   3.574  0.00  0.00    +0.001 A 
ATOM     26  C   UNL     1       8.540  -3.499   3.926  0.00  0.00    +0.010 A 
ENDBRANCH  19  21
ENDBRANCH  11  15
BRANCH   1  28
ATOM     27  N   UNL     1       2.344  -7.061  -0.530  0.00  0.00    -0.312 N 
ATOM     28  C   UNL     1       3.328  -6.959   0.386  0.00  0.00    +0.218 C 
ATOM     29  O   UNL     1       3.063  -7.010   1.568  0.00  0.00    -0.275 OA
ATOM     30  H   UNL     1       2.555  -7.020  -1.476  0.00  0.00    +0.149 HD
BRANCH  27  31
ATOM     31  C   UNL     1       0.955  -7.234  -0.097  0.00  0.00    +0.148 C 
BRANCH  31  32
ATOM     32  C   UNL     1       0.046  -7.323  -1.323  0.00  0.00    +0.187 C 
ATOM     33  C   UNL     1      -1.415  -7.378  -0.872  0.00  0.00    +0.053 C 
BRANCH  32  34
ATOM     34  O   UNL     1       0.360  -8.502  -2.066  0.00  0.00    -0.488 OA
BRANCH  34  39
ATOM     35  C   UNL     1      -0.873  -8.471  -7.561  0.00  0.00    +0.044 C 
ATOM     36  C   UNL     1      -0.544  -8.480  -6.091  0.00  0.00    -0.050 A 
ATOM     37  C   UNL     1      -0.920  -7.415  -5.293  0.00  0.00    +0.007 A 
ATOM     38  C   UNL     1      -0.619  -7.420  -3.945  0.00  0.00    +0.046 A 
ATOM     39  C   UNL     1       0.062  -8.495  -3.392  0.00  0.00    +0.121 A 
ATOM     40  C   UNL     1       0.438  -9.562  -4.194  0.00  0.00    +0.046 A 
ATOM     41  C   UNL     1       0.130  -9.555  -5.541  0.00  0.00    +0.007 A 
ENDBRANCH  34  39
ENDBRANCH  32  34
ENDBRANCH  31  32
ENDBRANCH  27  31
ENDBRANCH   1  28
TORSDOF 7
