REMARK  Name = ZINC09412835
REMARK  5 active torsions:
REMARK  status: ('A' for Active; 'I' for Inactive)
REMARK    1  A    between atoms: C_1  and  C_2
REMARK    2  A    between atoms: C_2  and  C_3
REMARK    3  A    between atoms: C_3  and  C_21
REMARK    4  A    between atoms: N_6  and  C_10
REMARK    5  A    between atoms: C_10  and  C_11
REMARK                            x       y       z     vdW  Elec       q    Type
REMARK                         _______ _______ _______ _____ _____    ______ ____
ROOT
ATOM      1  C   UNL     1       5.426   1.774   3.227  0.00  0.00    +0.138 C 
ATOM      2  C   UNL     1       5.152   1.355   1.797  0.00  0.00    +0.251 C 
ATOM      3  O   UNL     1       5.656   0.431   1.195  0.00  0.00    -0.272 OA
ATOM      4  N   UNL     1       4.232   2.224   1.332  0.00  0.00    -0.220 N 
ATOM      5  C   UNL     1       3.894   3.127   2.259  0.00  0.00    +0.310 C 
ATOM      6  O   UNL     1       3.085   4.015   2.074  0.00  0.00    -0.252 OA
ATOM      7  N   UNL     1       4.545   2.939   3.421  0.00  0.00    -0.281 N 
ATOM      8  H   UNL     1       4.456   3.470   4.228  0.00  0.00    +0.152 HD
ENDROOT
BRANCH   1   9
ATOM      9  C   UNL     1       5.062   0.667   4.183  0.00  0.00    -0.015 A 
ATOM     10  C   UNL     1       6.010  -0.273   4.543  0.00  0.00    +0.009 A 
ATOM     11  C   UNL     1       5.680  -1.286   5.424  0.00  0.00    +0.039 A 
ATOM     12  C   UNL     1       4.396  -1.366   5.936  0.00  0.00    +0.123 A 
ATOM     13  C   UNL     1       3.446  -0.427   5.570  0.00  0.00    +0.039 A 
ATOM     14  C   UNL     1       3.780   0.588   4.694  0.00  0.00    +0.009 A 
ATOM     15  F   UNL     1       4.071  -2.359   6.792  0.00  0.00    -0.205 F 
ENDBRANCH   1   9
BRANCH   1  17
ATOM     16  C   UNL     1       7.188   3.410   2.551  0.00  0.00    +0.007 C 
ATOM     17  C   UNL     1       6.893   2.172   3.400  0.00  0.00    +0.037 C 
ENDBRANCH   1  17
BRANCH   4  18
ATOM     18  C   UNL     1       3.676   2.187  -0.023  0.00  0.00    +0.154 C 
BRANCH  18  19
ATOM     19  C   UNL     1       2.387   1.406  -0.016  0.00  0.00    -0.012 A 
ATOM     20  C   UNL     1       1.977   0.761   1.137  0.00  0.00    +0.055 A 
ATOM     21  C   UNL     1       0.792   0.044   1.146  0.00  0.00    +0.167 A 
ATOM     22  C   UNL     1       0.015  -0.026  -0.008  0.00  0.00    +0.167 A 
ATOM     23  C   UNL     1       0.432   0.621  -1.159  0.00  0.00    +0.065 A 
ATOM     24  C   UNL     1       1.616   1.336  -1.162  0.00  0.00    +0.026 A 
ATOM     25 BR   UNL     1       2.182   2.220  -2.735  0.00  0.00    -0.050 Br
ATOM     26  O   UNL     1      -1.089  -0.784   0.255  0.00  0.00    -0.453 OA
ATOM     27  C   UNL     1      -1.187  -0.835   1.691  0.00  0.00    +0.466 C 
ATOM     28  O   UNL     1       0.171  -0.664   2.134  0.00  0.00    -0.453 OA
ENDBRANCH  18  19
ENDBRANCH   4  18
TORSDOF 4
