REMARK  Name = ZINC44924766
REMARK  5 active torsions:
REMARK  status: ('A' for Active; 'I' for Inactive)
REMARK    1  A    between atoms: C_1  and  C_2
REMARK    2  A    between atoms: C_2  and  C_4
REMARK    3  A    between atoms: C_2  and  N_9
REMARK    4  A    between atoms: N_9  and  C_10
REMARK    5  A    between atoms: C_15  and  N_16
REMARK                            x       y       z     vdW  Elec       q    Type
REMARK                         _______ _______ _______ _____ _____    ______ ____
ROOT
ATOM      1  C   UNL     1      -2.052  -0.660   1.222  0.00  0.00    +0.051 A 
ATOM      2  C   UNL     1      -1.443  -0.327   2.429  0.00  0.00    +0.042 A 
ATOM      3  C   UNL     1      -2.149  -0.489   3.604  0.00  0.00    +0.084 A 
ATOM      4  N   UNL     1      -3.384  -0.952   3.597  0.00  0.00    -0.365 N 
ATOM      5  C   UNL     1      -4.000  -1.280   2.476  0.00  0.00    +0.107 A 
ATOM      6  C   UNL     1      -3.365  -1.143   1.253  0.00  0.00    +0.062 A 
ATOM      7  H   UNL     1      -3.854  -1.054   4.439  0.00  0.00    +0.165 HD
ENDROOT
BRANCH   6   8
ATOM      8  N   UNL     1      -4.025  -1.487   0.067  0.00  0.00    -0.355 N 
ATOM      9  H   UNL     1      -3.572  -1.391  -0.786  0.00  0.00    +0.142 HD
ATOM     10  H   UNL     1      -4.936  -1.821   0.097  0.00  0.00    +0.142 HD
ENDBRANCH   6   8
BRANCH   1  11
ATOM     11  N   UNL     1      -1.372  -0.511   0.012  0.00  0.00    -0.333 N 
ATOM     12  H   UNL     1      -1.810  -0.743  -0.822  0.00  0.00    +0.147 HD
BRANCH  11  14
ATOM     13  C   UNL     1      -0.019   1.526   0.010  0.00  0.00    +0.036 C 
ATOM     14  C   UNL     1       0.002  -0.004   0.002  0.00  0.00    +0.139 C 
BRANCH  14  15
ATOM     15  C   UNL     1       0.707  -0.490  -1.238  0.00  0.00    +0.196 A 
ATOM     16  N   UNL     1       1.930  -0.996  -1.304  0.00  0.00    -0.109 NA
ATOM     17  N   UNL     1       2.164  -1.290  -2.538  0.00  0.00    -0.021 NA
ATOM     18  N   UNL     1       1.131  -0.987  -3.244  0.00  0.00    -0.021 NA
ATOM     19  N   UNL     1       0.222  -0.499  -2.471  0.00  0.00    -0.109 NA
ENDBRANCH  14  15
ENDBRANCH  11  14
ENDBRANCH   1  11
TORSDOF 4
