REMARK  Name = ZINC46303559
REMARK  12 active torsions:
REMARK  status: ('A' for Active; 'I' for Inactive)
REMARK    1  A    between atoms: C_1  and  C_2
REMARK    2  A    between atoms: C_2  and  N_3
REMARK    3  A    between atoms: N_3  and  C_4
REMARK    4  A    between atoms: C_4  and  C_5
REMARK    5  A    between atoms: C_9  and  C_11
REMARK    6  A    between atoms: N_14  and  C_15
REMARK    7  A    between atoms: C_15  and  C_16
REMARK    8  A    between atoms: C_20  and  N_22
REMARK    9  A    between atoms: C_23  and  C_25
REMARK   10  A    between atoms: C_25  and  N_26
REMARK   11  A    between atoms: N_26  and  C_27
REMARK   12  A    between atoms: N_26  and  C_28
REMARK                            x       y       z     vdW  Elec       q    Type
REMARK                         _______ _______ _______ _____ _____    ______ ____
ROOT
ATOM      1  C   UNL     1      -2.010  -0.793   3.621  0.00  0.00    +0.141 C 
ENDROOT
BRANCH   1   2
ATOM      2  C   UNL     1      -1.080  -0.455   4.758  0.00  0.00    -0.029 A 
ATOM      3  C   UNL     1      -0.227  -1.420   5.263  0.00  0.00    +0.005 A 
ATOM      4  C   UNL     1       0.628  -1.113   6.306  0.00  0.00    +0.002 A 
ATOM      5  C   UNL     1       0.632   0.158   6.846  0.00  0.00    +0.023 A 
ATOM      6  C   UNL     1      -0.222   1.129   6.341  0.00  0.00    +0.034 A 
ATOM      7  C   UNL     1      -1.076   0.819   5.290  0.00  0.00    +0.028 A 
BRANCH   6   8
ATOM      8  N   UNL     1      -0.220   2.417   6.886  0.00  0.00    -0.287 N 
ATOM      9  C   UNL     1      -0.010   2.590   8.206  0.00  0.00    +0.201 C 
ATOM     10  O   UNL     1       0.261   1.637   8.907  0.00  0.00    -0.278 OA
ATOM     11  H   UNL     1      -0.370   3.186   6.315  0.00  0.00    +0.155 HD
BRANCH   9  12
ATOM     12  C   UNL     1      -0.111   3.966   8.812  0.00  0.00    +0.018 C 
BRANCH  12  13
ATOM     13  N   UNL     1       0.160   3.888  10.254  0.00  0.00    +0.382 N 
ATOM     14  C   UNL     1       0.180   5.242  10.822  0.00  0.00    -0.096 C 
ATOM     15  C   UNL     1      -0.892   3.098  10.907  0.00  0.00    -0.096 C 
ATOM     16  H   UNL     1       1.055   3.447  10.404  0.00  0.00    -0.082 HD
ENDBRANCH  12  13
ENDBRANCH   9  12
ENDBRANCH   6   8
ENDBRANCH   1   2
BRANCH   1  20
ATOM     17  N   UNL     1      -1.367  -0.512   0.012  0.00  0.00    -0.282 N 
ATOM     18  C   UNL     1      -1.984  -0.757   1.185  0.00  0.00    +0.303 C 
ATOM     19  O   UNL     1      -3.122  -1.186   1.196  0.00  0.00    -0.253 OA
ATOM     20  N   UNL     1      -1.339  -0.527   2.346  0.00  0.00    -0.295 N 
ATOM     21  H   UNL     1      -0.432  -0.185   2.338  0.00  0.00    +0.151 HD
BRANCH  17  23
ATOM     22  C   UNL     1      -0.028   1.534   0.009  0.00  0.00    +0.024 C 
ATOM     23  C   UNL     1       0.004   0.005  -0.001  0.00  0.00    +0.106 C 
ENDBRANCH  17  23
BRANCH  17  24
ATOM     24  C   UNL     1      -2.067  -0.762  -1.250  0.00  0.00    +0.144 C 
BRANCH  24  25
ATOM     25  C   UNL     1      -1.807  -2.178  -1.697  0.00  0.00    -0.030 A 
ATOM     26  C   UNL     1      -0.721  -2.458  -2.506  0.00  0.00    +0.005 A 
ATOM     27  C   UNL     1      -0.481  -3.756  -2.916  0.00  0.00    +0.001 A 
ATOM     28  C   UNL     1      -1.328  -4.774  -2.517  0.00  0.00    +0.003 A 
ATOM     29  C   UNL     1      -2.413  -4.494  -1.708  0.00  0.00    -0.050 A 
ATOM     30  C   UNL     1      -2.650  -3.196  -1.295  0.00  0.00    +0.008 A 
ATOM     31  C   UNL     1      -3.336  -5.604  -1.275  0.00  0.00    +0.044 C 
ENDBRANCH  24  25
ENDBRANCH  17  24
ENDBRANCH   1  20
TORSDOF 8
