REMARK  Name = ZINC67300282
REMARK  5 active torsions:
REMARK  status: ('A' for Active; 'I' for Inactive)
REMARK    1  A    between atoms: C_1  and  C_2
REMARK    2  A    between atoms: C_2  and  C_3
REMARK    3  A    between atoms: C_2  and  C_4
REMARK    4  A    between atoms: C_10  and  N_12
REMARK    5  A    between atoms: C_13  and  C_15
REMARK                            x       y       z     vdW  Elec       q    Type
REMARK                         _______ _______ _______ _____ _____    ______ ____
ROOT
ATOM      1  C   UNL     1      -2.524   3.353  -2.643  0.00  0.00    +0.075 C 
ATOM      2  C   UNL     1      -3.715   3.798  -1.791  0.00  0.00    +0.015 C 
ATOM      3  C   UNL     1      -3.832   5.324  -1.837  0.00  0.00    +0.036 C 
ATOM      4  C   UNL     1      -4.020   5.779  -3.280  0.00  0.00    +0.112 C 
ATOM      5  C   UNL     1      -2.852   5.321  -4.147  0.00  0.00    +0.036 C 
ATOM      6  C   UNL     1      -2.739   3.795  -4.092  0.00  0.00    +0.015 C 
ATOM      7  C   UNL     1      -5.325   5.255  -3.833  0.00  0.00    +0.244 C 
ATOM      8  O   UNL     1      -5.652   4.096  -3.970  0.00  0.00    -0.273 OA
ATOM      9  N   UNL     1      -6.051   6.350  -4.141  0.00  0.00    -0.238 N 
ATOM     10  C   UNL     1      -5.385   7.478  -3.861  0.00  0.00    +0.307 C 
ATOM     11  O   UNL     1      -5.832   8.591  -4.052  0.00  0.00    -0.252 OA
ATOM     12  N   UNL     1      -4.165   7.239  -3.343  0.00  0.00    -0.285 N 
ATOM     13  H   UNL     1      -6.943   6.324  -4.520  0.00  0.00    +0.159 HD
ATOM     14  H   UNL     1      -3.512   7.900  -3.067  0.00  0.00    +0.151 HD
ENDROOT
BRANCH   1  16
ATOM     15  N   UNL     1      -2.205   1.234  -1.407  0.00  0.00    -0.312 N 
ATOM     16  C   UNL     1      -2.400   1.852  -2.589  0.00  0.00    +0.216 C 
ATOM     17  O   UNL     1      -2.477   1.200  -3.608  0.00  0.00    -0.276 OA
ATOM     18  H   UNL     1      -2.143   1.756  -0.591  0.00  0.00    +0.149 HD
BRANCH  15  24
ATOM     19  C   UNL     1      -1.244  -0.624  -0.140  0.00  0.00    +0.012 C 
ATOM     20  C   UNL     1      -1.119  -2.148  -0.085  0.00  0.00    +0.005 C 
ATOM     21  C   UNL     1      -2.511  -2.770   0.033  0.00  0.00    +0.000 C 
ATOM     22  C   UNL     1      -3.352  -2.371  -1.182  0.00  0.00    +0.002 C 
ATOM     23  C   UNL     1      -3.477  -0.847  -1.237  0.00  0.00    +0.022 C 
ATOM     24  C   UNL     1      -2.085  -0.225  -1.354  0.00  0.00    +0.076 C 
BRANCH  19  26
ATOM     25  C   UNL     1       0.947  -0.296   1.015  0.00  0.00    +0.007 C 
ATOM     26  C   UNL     1       0.149  -0.001  -0.257  0.00  0.00    -0.012 C 
ATOM     27  C   UNL     1       0.874  -0.598  -1.464  0.00  0.00    +0.007 C 
ENDBRANCH  19  26
ENDBRANCH  15  24
ENDBRANCH   1  16
TORSDOF 3
