REMARK  Name = ZINC36862659
REMARK  3 active torsions:
REMARK  status: ('A' for Active; 'I' for Inactive)
REMARK    1  A    between atoms: C_3  and  N_9
REMARK    2  A    between atoms: C_10  and  C_12
REMARK    3  A    between atoms: C_14  and  N_18
REMARK                            x       y       z     vdW  Elec       q    Type
REMARK                         _______ _______ _______ _____ _____    ______ ____
ROOT
ATOM      1  N   UNL     1       3.584   2.128  -0.021  0.00  0.00    -0.279 N 
ATOM      2  C   UNL     1       3.568   3.472  -0.116  0.00  0.00    +0.265 C 
ATOM      3  O   UNL     1       2.507   4.070  -0.103  0.00  0.00    -0.268 OA
ATOM      4  H   UNL     1       4.429   1.657   0.049  0.00  0.00    +0.155 HD
ENDROOT
BRANCH   1   7
ATOM      5  C   UNL     1       0.065   1.244  -0.621  0.00  0.00    +0.040 A 
ATOM      6  C   UNL     1       1.250   1.953  -0.619  0.00  0.00    +0.027 A 
ATOM      7  C   UNL     1       2.382   1.411  -0.024  0.00  0.00    +0.052 A 
ATOM      8  C   UNL     1       2.318   0.155   0.568  0.00  0.00    +0.065 A 
ATOM      9  C   UNL     1       1.130  -0.551   0.563  0.00  0.00    +0.060 A 
ATOM     10  C   UNL     1       0.004  -0.007  -0.031  0.00  0.00    +0.125 A 
ATOM     11  F   UNL     1      -1.157  -0.698  -0.035  0.00  0.00    -0.205 F 
ATOM     12 CL   UNL     1       3.731  -0.527   1.312  0.00  0.00    -0.082 Cl
ENDBRANCH   1   7
BRANCH   2  13
ATOM     13  C   UNL     1       4.826   4.214  -0.235  0.00  0.00    +0.104 A 
ATOM     14  C   UNL     1       4.958   5.584  -0.334  0.00  0.00    +0.055 A 
ATOM     15  C   UNL     1       6.329   5.862  -0.427  0.00  0.00    +0.043 A 
ATOM     16  C   UNL     1       6.995   4.678  -0.384  0.00  0.00    +0.106 A 
ATOM     17  N   UNL     1       6.090   3.671  -0.262  0.00  0.00    -0.355 N 
ATOM     18  H   UNL     1       6.300   2.725  -0.206  0.00  0.00    +0.166 HD
BRANCH  15  19
ATOM     19  N   UNL     1       6.911   7.138  -0.545  0.00  0.00    -0.357 N 
ATOM     20  H   UNL     1       6.348   7.927  -0.567  0.00  0.00    +0.142 HD
ATOM     21  H   UNL     1       7.875   7.227  -0.603  0.00  0.00    +0.142 HD
ENDBRANCH  15  19
ENDBRANCH   2  13
TORSDOF 3
