REMARK  Name = ZINC34755335
REMARK  5 active torsions:
REMARK  status: ('A' for Active; 'I' for Inactive)
REMARK    1  A    between atoms: C_1  and  C_2
REMARK    2  A    between atoms: C_2  and  C_3
REMARK    3  A    between atoms: C_2  and  N_4
REMARK    4  A    between atoms: C_9  and  C_22
REMARK    5  A    between atoms: C_13  and  C_15
REMARK                            x       y       z     vdW  Elec       q    Type
REMARK                         _______ _______ _______ _____ _____    ______ ____
ROOT
ATOM      1  N   UNL     1      -1.658  -0.336  -1.432  0.00  0.00    -0.297 N 
ATOM      2  C   UNL     1      -1.865  -1.667  -1.448  0.00  0.00    +0.303 C 
ATOM      3  O   UNL     1      -1.027  -2.408  -1.925  0.00  0.00    -0.253 OA
ATOM      4  N   UNL     1      -3.002  -2.179  -0.934  0.00  0.00    -0.278 N 
ATOM      5  C   UNL     1      -4.079  -1.293  -0.472  0.00  0.00    +0.122 C 
ATOM      6  C   UNL     1      -4.437  -1.663   0.971  0.00  0.00    +0.093 C 
ATOM      7  C   UNL     1      -4.776  -3.154   1.041  0.00  0.00    +0.016 C 
ATOM      8  C   UNL     1      -3.556  -3.977   0.619  0.00  0.00    +0.028 C 
ATOM      9  C   UNL     1      -3.190  -3.632  -0.833  0.00  0.00    +0.108 C 
ATOM     10  H   UNL     1      -2.357   0.260  -1.120  0.00  0.00    +0.150 HD
ENDROOT
BRANCH   6  11
ATOM     11  C   UNL     1      -3.265  -1.370   1.871  0.00  0.00    +0.220 C 
ATOM     12  O   UNL     1      -2.141  -1.348   1.416  0.00  0.00    -0.275 OA
ATOM     13  N   UNL     1      -3.466  -1.133   3.183  0.00  0.00    -0.300 N 
ATOM     14  C   UNL     1      -4.808  -1.280   3.747  0.00  0.00    +0.118 C 
ATOM     15  C   UNL     1      -4.820  -2.445   4.743  0.00  0.00    +0.088 C 
ATOM     16  S   UNL     1      -3.567  -2.128   6.022  0.00  0.00    -0.158 S 
ATOM     17  C   UNL     1      -2.055  -1.833   5.056  0.00  0.00    +0.088 C 
ATOM     18  C   UNL     1      -2.337  -0.739   4.027  0.00  0.00    +0.118 C 
ENDBRANCH   6  11
BRANCH   9  19
ATOM     19  C   UNL     1      -1.913  -4.335  -1.214  0.00  0.00    -0.027 A 
ATOM     20  C   UNL     1      -0.747  -4.074  -0.519  0.00  0.00    +0.008 A 
ATOM     21  C   UNL     1       0.425  -4.718  -0.867  0.00  0.00    +0.038 A 
ATOM     22  C   UNL     1       0.431  -5.625  -1.913  0.00  0.00    +0.123 A 
ATOM     23  C   UNL     1      -0.737  -5.886  -2.609  0.00  0.00    +0.038 A 
ATOM     24  C   UNL     1      -1.909  -5.244  -2.255  0.00  0.00    +0.008 A 
ATOM     25  F   UNL     1       1.577  -6.255  -2.255  0.00  0.00    -0.205 F 
ENDBRANCH   9  19
BRANCH   1  27
ATOM     26  C   UNL     1      -0.578   1.652  -2.362  0.00  0.00    +0.027 C 
ATOM     27  C   UNL     1      -0.377   0.211  -1.887  0.00  0.00    +0.068 C 
ATOM     28  C   UNL     1       0.626   0.190  -0.733  0.00  0.00    +0.027 C 
ENDBRANCH   1  27
TORSDOF 3
