REMARK  Name = ZINC40800915
REMARK  5 active torsions:
REMARK  status: ('A' for Active; 'I' for Inactive)
REMARK    1  A    between atoms: C_5  and  C_7
REMARK    2  A    between atoms: C_7  and  N_8
REMARK    3  A    between atoms: C_10  and  N_23
REMARK    4  A    between atoms: C_11  and  N_15
REMARK    5  A    between atoms: N_15  and  C_16
REMARK                            x       y       z     vdW  Elec       q    Type
REMARK                         _______ _______ _______ _____ _____    ______ ____
ROOT
ATOM      1  N   UNL     1       1.489  -2.679   1.333  0.00  0.00    -0.323 N 
ATOM      2  C   UNL     1       1.554  -4.046   1.575  0.00  0.00    +0.145 A 
ATOM      3  C   UNL     1       1.795  -4.527   2.863  0.00  0.00    +0.105 A 
ATOM      4  C   UNL     1       1.850  -5.909   3.050  0.00  0.00    +0.145 A 
ATOM      5  N   UNL     1       1.671  -6.710   2.002  0.00  0.00    -0.219 NA
ATOM      6  C   UNL     1       1.446  -6.214   0.802  0.00  0.00    +0.225 A 
ATOM      7  N   UNL     1       1.381  -4.916   0.583  0.00  0.00    -0.219 NA
ATOM      8  H   UNL     1       1.615  -2.051   2.062  0.00  0.00    +0.148 HD
ENDROOT
BRANCH   3   9
ATOM      9  N   UNL     1       1.978  -3.645   3.940  0.00  0.00    -0.353 N 
ATOM     10  H   UNL     1       1.938  -2.687   3.795  0.00  0.00    +0.143 HD
ATOM     11  H   UNL     1       2.145  -3.994   4.830  0.00  0.00    +0.143 HD
ENDBRANCH   3   9
BRANCH   4  12
ATOM     12  N   UNL     1       2.088  -6.441   4.312  0.00  0.00    -0.325 N 
ATOM     13  H   UNL     1       2.217  -5.851   5.071  0.00  0.00    +0.148 HD
BRANCH  12  14
ATOM     14  C   UNL     1       2.143  -7.894   4.496  0.00  0.00    +0.072 C 
ATOM     15  C   UNL     1       0.705  -8.436   4.623  0.00  0.00    +0.022 C 
ATOM     16  C   UNL     1       0.719  -9.906   4.300  0.00  0.00    +0.002 C 
ATOM     17  C   UNL     1       0.855 -10.784   5.559  0.00  0.00    +0.000 C 
ATOM     18  C   UNL     1       1.877 -10.227   6.568  0.00  0.00    +0.000 C 
ATOM     19  C   UNL     1       3.120  -9.705   5.900  0.00  0.00    +0.002 C 
ATOM     20  C   UNL     1       2.953  -8.190   5.669  0.00  0.00    +0.022 C 
ENDBRANCH  12  14
ENDBRANCH   4  12
BRANCH   1  21
ATOM     21  C   UNL     1       1.229  -2.186  -0.022  0.00  0.00    +0.139 C 
BRANCH  21  26
ATOM     22  C   UNL     1      -0.017   1.378   0.010  0.00  0.00    +0.000 A 
ATOM     23  C   UNL     1       1.171   2.086   0.002  0.00  0.00    +0.001 A 
ATOM     24  C   UNL     1       2.377   1.412  -0.013  0.00  0.00    +0.020 A 
ATOM     25  C   UNL     1       2.397   0.029  -0.021  0.00  0.00    +0.046 A 
ATOM     26  C   UNL     1       1.208  -0.679  -0.013  0.00  0.00    -0.012 A 
ATOM     27  C   UNL     1       0.002  -0.004   0.002  0.00  0.00    +0.006 A 
ATOM     28 CL   UNL     1       3.912  -0.818  -0.041  0.00  0.00    -0.083 Cl
ENDBRANCH  21  26
ENDBRANCH   1  21
TORSDOF 5
