REMARK  Name = ZINC37945662
REMARK  5 active torsions:
REMARK  status: ('A' for Active; 'I' for Inactive)
REMARK    1  A    between atoms: C_3  and  S_18
REMARK    2  A    between atoms: C_6  and  C_7
REMARK    3  A    between atoms: C_7  and  C_9
REMARK    4  A    between atoms: C_7  and  N_12
REMARK    5  A    between atoms: S_18  and  C_19
REMARK                            x       y       z     vdW  Elec       q    Type
REMARK                         _______ _______ _______ _____ _____    ______ ____
ROOT
ATOM      1  C   UNL     1      -1.294  -0.773   0.010  0.00  0.00    +0.173 C 
ENDROOT
BRANCH   1   2
ATOM      2  N   UNL     1      -1.165  -1.940   0.893  0.00  0.00    -0.291 NA
ATOM      3  C   UNL     1      -0.767  -1.534   2.248  0.00  0.00    +0.066 C 
ATOM      4  C   UNL     1      -0.586  -2.780   3.118  0.00  0.00    -0.067 C 
ATOM      5  N   UNL     1      -1.846  -3.533   3.165  0.00  0.00    +0.381 N 
ATOM      6  C   UNL     1      -2.218  -3.953   1.807  0.00  0.00    -0.067 C 
ATOM      7  C   UNL     1      -2.412  -2.716   0.926  0.00  0.00    +0.066 C 
ATOM      8  H   UNL     1      -1.730  -4.347   3.748  0.00  0.00    -0.086 HD
ATOM      9  H   UNL     1      -2.574  -2.947   3.546  0.00  0.00    -0.086 HD
ENDBRANCH   1   2
BRANCH   1  15
ATOM     10  C   UNL     1      -0.017   1.379   0.010  0.00  0.00    +0.007 A 
ATOM     11  C   UNL     1       1.169   2.087   0.002  0.00  0.00    +0.015 A 
ATOM     12  C   UNL     1       2.381   1.409  -0.013  0.00  0.00    +0.016 A 
ATOM     13  C   UNL     1       2.396   0.019  -0.021  0.00  0.00    +0.015 A 
ATOM     14  C   UNL     1       1.207  -0.683  -0.013  0.00  0.00    +0.007 A 
ATOM     15  C   UNL     1       0.002  -0.004   0.002  0.00  0.00    -0.021 A 
BRANCH  12  16
ATOM     16  S   UNL     1       3.897   2.308  -0.023  0.00  0.00    -0.016 S 
BRANCH  16  17
ATOM     17  C   UNL     1       5.172   1.019  -0.042  0.00  0.00    +0.448 C 
ATOM     18  F   UNL     1       5.020   0.229  -1.187  0.00  0.00    -0.160 F 
ATOM     19  F   UNL     1       6.438   1.615  -0.051  0.00  0.00    -0.160 F 
ATOM     20  F   UNL     1       5.043   0.218   1.097  0.00  0.00    -0.160 F 
ENDBRANCH  16  17
ENDBRANCH  12  16
ENDBRANCH   1  15
BRANCH   1  21
ATOM     21  C   UNL     1      -1.613  -1.234  -1.389  0.00  0.00    +0.232 C 
ATOM     22  O   UNL     1      -1.722  -2.419  -1.627  0.00  0.00    -0.274 OA
ATOM     23  N   UNL     1      -1.777  -0.331  -2.375  0.00  0.00    -0.328 N 
ATOM     24  H   UNL     1      -1.690   0.616  -2.185  0.00  0.00    +0.145 HD
ATOM     25  H   UNL     1      -1.983  -0.628  -3.275  0.00  0.00    +0.145 HD
ENDBRANCH   1  21
TORSDOF 5
