REMARK  Name = ZINC40372777
REMARK  5 active torsions:
REMARK  status: ('A' for Active; 'I' for Inactive)
REMARK    1  A    between atoms: C_1  and  C_2
REMARK    2  A    between atoms: C_5  and  C_7
REMARK    3  A    between atoms: N_9  and  C_10
REMARK    4  A    between atoms: C_10  and  C_17
REMARK    5  A    between atoms: N_18  and  O_19
REMARK                            x       y       z     vdW  Elec       q    Type
REMARK                         _______ _______ _______ _____ _____    ______ ____
ROOT
ATOM      1  C   UNL     1       2.514   0.356   4.400  0.00  0.00    +0.093 C 
ATOM      2  C   UNL     1       1.450   1.196   5.136  0.00  0.00    +0.033 C 
ATOM      3  C   UNL     1       0.183   0.390   5.224  0.00  0.00    +0.002 C 
ATOM      4  C   UNL     1       0.070  -0.389   6.548  0.00  0.00    +0.000 C 
ATOM      5  C   UNL     1       1.402  -1.035   6.976  0.00  0.00    +0.000 C 
ATOM      6  C   UNL     1       2.139  -1.656   5.820  0.00  0.00    +0.002 C 
ATOM      7  C   UNL     1       3.145  -0.625   5.270  0.00  0.00    +0.033 C 
ENDROOT
BRANCH   1   8
ATOM      8  C   UNL     1       3.574   1.281   3.858  0.00  0.00    +0.155 C 
ATOM      9  N   UNL     1       4.810   1.115   4.196  0.00  0.00    -0.075 NA
ATOM     10  N   UNL     1       3.225   2.302   3.003  0.00  0.00    -0.342 N 
ATOM     11  H   UNL     1       2.310   2.382   2.691  0.00  0.00    +0.144 HD
ATOM     12  H   UNL     1       3.894   2.942   2.713  0.00  0.00    +0.144 HD
BRANCH   9  13
ATOM     13  O   UNL     1       5.806   1.984   3.687  0.00  0.00    -0.408 OA
ATOM     14  H   UNL     1       6.699   1.782   3.996  0.00  0.00    +0.328 HD
ENDBRANCH   9  13
ENDBRANCH   1   8
BRANCH   1  17
ATOM     15  C   UNL     1       2.596  -1.189   2.518  0.00  0.00    +0.217 C 
ATOM     16  O   UNL     1       3.790  -1.305   2.700  0.00  0.00    -0.275 OA
ATOM     17  N   UNL     1       1.877  -0.342   3.280  0.00  0.00    -0.303 N 
ATOM     18  H   UNL     1       0.938  -0.194   3.088  0.00  0.00    +0.150 HD
BRANCH  15  22
ATOM     19  C   UNL     1       4.281  -2.994   0.935  0.00  0.00    +0.008 C 
ATOM     20  C   UNL     1       2.787  -2.938   0.608  0.00  0.00    -0.002 C 
ATOM     21  C   UNL     1       2.248  -1.649  -0.014  0.00  0.00    +0.017 C 
ATOM     22  C   UNL     1       1.917  -1.994   1.440  0.00  0.00    +0.078 C 
ENDBRANCH  15  22
ENDBRANCH   1  17
TORSDOF 4
