REMARK  Name = ZINC35389844
REMARK  9 active torsions:
REMARK  status: ('A' for Active; 'I' for Inactive)
REMARK    1  A    between atoms: C_1  and  C_2
REMARK    2  A    between atoms: C_2  and  C_3
REMARK    3  A    between atoms: C_2  and  C_4
REMARK    4  A    between atoms: C_2  and  CA_5
REMARK    5  A    between atoms: CA_5  and  C_7
REMARK    6  A    between atoms: CA_5  and  N_10
REMARK    7  A    between atoms: C_11  and  C_13
REMARK    8  A    between atoms: N_19  and  S_20
REMARK    9  A    between atoms: S_20  and  C_23
REMARK                            x       y       z     vdW  Elec       q    Type
REMARK                         _______ _______ _______ _____ _____    ______ ____
ROOT
ATOM      1  N   UNL     1       0.380  -1.862  -1.694  0.00  0.00    -0.300 N 
ATOM      2  C   UNL     1       1.172  -2.623  -2.476  0.00  0.00    +0.233 C 
ATOM      3  O   UNL     1       1.996  -2.100  -3.196  0.00  0.00    -0.274 OA
ATOM      4  H   UNL     1      -0.279  -2.280  -1.118  0.00  0.00    +0.150 HD
ENDROOT
BRANCH   2   5
ATOM      5  C   UNL     1       1.033  -4.123  -2.456  0.00  0.00    +0.165 C 
ATOM      6  C   UNL     1       2.298  -4.748  -1.859  0.00  0.00    +0.030 C 
ATOM      7  C   UNL     1       2.210  -6.272  -1.968  0.00  0.00    +0.003 C 
ATOM      8  C   UNL     1       2.122  -6.675  -3.442  0.00  0.00    +0.017 C 
ATOM      9  C   UNL     1       0.855  -6.072  -4.057  0.00  0.00    +0.110 C 
ATOM     10  N   UNL     1       0.859  -4.620  -3.827  0.00  0.00    -0.170 NA
BRANCH  10  11
ATOM     11  S   UNL     1       0.675  -3.565  -5.090  0.00  0.00    +0.030 S 
ATOM     12  O   UNL     1       0.010  -4.316  -6.097  0.00  0.00    -0.158 OA
ATOM     13  O   UNL     1       0.061  -2.418  -4.518  0.00  0.00    -0.158 OA
ATOM     14  C   UNL     1       2.365  -3.171  -5.619  0.00  0.00    +0.215 C 
ENDBRANCH  10  11
ENDBRANCH   2   5
BRANCH   1  15
ATOM     15  CA  UNL     1       0.515  -0.404  -1.714  0.00  0.00    +0.192 C 
BRANCH  15  17
ATOM     16  C   UNL     1      -0.665   1.760  -1.303  0.00  0.00    +0.013 C 
ATOM     17  C   UNL     1      -0.806   0.237  -1.283  0.00  0.00    -0.009 C 
ATOM     18  C   UNL     1      -1.158  -0.224   0.133  0.00  0.00    +0.013 C 
ATOM     19  C   UNL     1      -1.916  -0.186  -2.247  0.00  0.00    +0.013 C 
ENDBRANCH  15  17
BRANCH  15  20
ATOM     20  C   UNL     1       1.609   0.013  -0.764  0.00  0.00    +0.376 C 
ATOM     21  O   UNL     1       1.843  -0.657   0.228  0.00  0.00    -0.244 OA
ATOM     22  OXT UNL     1       2.259   1.019  -0.987  0.00  0.00    -0.244 OA
ENDBRANCH  15  20
ENDBRANCH   1  15
TORSDOF 5
