REMARK  Name = ZINC50305957
REMARK  7 active torsions:
REMARK  status: ('A' for Active; 'I' for Inactive)
REMARK    1  A    between atoms: C_1  and  C_2
REMARK    2  A    between atoms: C_3  and  N_19
REMARK    3  A    between atoms: C_4  and  C_8
REMARK    4  A    between atoms: N_10  and  C_11
REMARK    5  A    between atoms: C_12  and  C_18
REMARK    6  A    between atoms: N_14  and  C_17
REMARK    7  A    between atoms: C_15  and  C_16
REMARK                            x       y       z     vdW  Elec       q    Type
REMARK                         _______ _______ _______ _____ _____    ______ ____
ROOT
ATOM      1  C   UNL     1       0.581  -3.584  -0.933  0.00  0.00    +0.270 C 
ATOM      2  O   UNL     1       1.469  -3.693  -1.757  0.00  0.00    -0.268 OA
ATOM      3  N   UNL     1      -0.269  -4.608  -0.719  0.00  0.00    -0.277 N 
ATOM      4  H   UNL     1      -0.939  -4.543  -0.021  0.00  0.00    +0.155 HD
ENDROOT
BRANCH   3   5
ATOM      5  C   UNL     1      -0.184  -5.770  -1.508  0.00  0.00    +0.077 A 
ATOM      6  C   UNL     1      -0.339  -5.836  -2.900  0.00  0.00    +0.081 A 
ATOM      7  N   UNL     1      -0.191  -7.082  -3.272  0.00  0.00    -0.175 NA
ATOM      8  N   UNL     1       0.064  -7.855  -2.132  0.00  0.00    -0.270 N 
ATOM      9  C   UNL     1       0.069  -7.025  -1.057  0.00  0.00    +0.057 A 
ATOM     10  C   UNL     1       0.308  -7.426   0.376  0.00  0.00    +0.067 C 
ATOM     11  C   UNL     1       0.290  -9.303  -2.105  0.00  0.00    +0.172 C 
ATOM     12  C   UNL     1      -0.628  -4.672  -3.812  0.00  0.00    +0.069 C 
ENDBRANCH   3   5
BRANCH   1  16
ATOM     13  C   UNL     1       1.248   1.107   0.879  0.00  0.00    +0.067 C 
ATOM     14  C   UNL     1       0.738  -0.285   0.611  0.00  0.00    +0.054 A 
ATOM     15  C   UNL     1       1.248  -1.174  -0.282  0.00  0.00    +0.078 A 
ATOM     16  C   UNL     1       0.435  -2.332  -0.168  0.00  0.00    +0.168 A 
ATOM     17  N   UNL     1      -0.477  -2.076   0.750  0.00  0.00    -0.167 NA
ATOM     18  N   UNL     1      -0.315  -0.891   1.220  0.00  0.00    -0.279 N 
ATOM     19  H   UNL     1      -0.866  -0.487   1.909  0.00  0.00    +0.189 HD
BRANCH  15  20
ATOM     20  N   UNL     1       2.345  -0.987  -1.136  0.00  0.00    -0.355 N 
ATOM     21  H   UNL     1       2.828  -0.146  -1.127  0.00  0.00    +0.142 HD
ATOM     22  H   UNL     1       2.619  -1.698  -1.736  0.00  0.00    +0.142 HD
ENDBRANCH  15  20
ENDBRANCH   1  16
TORSDOF 3
