REMARK  Name = ZINC37042079
REMARK  4 active torsions:
REMARK  status: ('A' for Active; 'I' for Inactive)
REMARK    1  A    between atoms: C_3  and  N_21
REMARK    2  A    between atoms: C_4  and  C_8
REMARK    3  A    between atoms: N_10  and  C_11
REMARK    4  A    between atoms: C_16  and  N_17
REMARK                            x       y       z     vdW  Elec       q    Type
REMARK                         _______ _______ _______ _____ _____    ______ ____
ROOT
ATOM      1  C   UNL     1       3.461  -0.612  -0.060  0.00  0.00    +0.250 C 
ATOM      2  O   UNL     1       4.540  -0.064   0.061  0.00  0.00    -0.270 OA
ATOM      3  N   UNL     1       3.397  -1.952  -0.189  0.00  0.00    -0.280 N 
ATOM      4  H   UNL     1       2.543  -2.384  -0.347  0.00  0.00    +0.155 HD
ENDROOT
BRANCH   1   8
ATOM      5  C   UNL     1      -0.107   1.698  -0.076  0.00  0.00    +0.040 A 
ATOM      6  C   UNL     1       1.117   2.335  -0.057  0.00  0.00    +0.026 A 
ATOM      7  C   UNL     1       2.290   1.591  -0.051  0.00  0.00    +0.037 A 
ATOM      8  C   UNL     1       2.224   0.189  -0.065  0.00  0.00    +0.060 A 
ATOM      9  C   UNL     1       0.978  -0.444  -0.085  0.00  0.00    +0.053 A 
ATOM     10  C   UNL     1      -0.177   0.312  -0.091  0.00  0.00    +0.124 A 
ATOM     11  F   UNL     1      -1.381  -0.300  -0.110  0.00  0.00    -0.205 F 
BRANCH   7  12
ATOM     12  N   UNL     1       3.523   2.231  -0.032  0.00  0.00    -0.357 N 
ATOM     13  H   UNL     1       3.569   3.198  -0.100  0.00  0.00    +0.142 HD
ATOM     14  H   UNL     1       4.338   1.712   0.051  0.00  0.00    +0.142 HD
ENDBRANCH   7  12
ENDBRANCH   1   8
BRANCH   3  15
ATOM     15  C   UNL     1       4.563  -2.720  -0.094  0.00  0.00    +0.064 A 
ATOM     16  C   UNL     1       5.763  -2.228  -0.590  0.00  0.00    +0.027 A 
ATOM     17  C   UNL     1       6.912  -2.988  -0.495  0.00  0.00    +0.017 A 
ATOM     18  C   UNL     1       6.868  -4.239   0.094  0.00  0.00    +0.020 A 
ATOM     19  C   UNL     1       5.674  -4.733   0.589  0.00  0.00    +0.050 A 
ATOM     20  C   UNL     1       4.523  -3.974   0.501  0.00  0.00    +0.148 A 
ATOM     21 BR   UNL     1       8.443  -5.277   0.223  0.00  0.00    -0.050 Br
BRANCH  20  22
ATOM     22  N   UNL     1       3.247  -4.500   1.036  0.00  0.00    +0.058 N 
ATOM     23  O   UNL     1       3.228  -5.553   1.631  0.00  0.00    -0.126 OA
ATOM     24  O   UNL     1       2.223  -3.877   0.878  0.00  0.00    -0.126 OA
ENDBRANCH  20  22
ENDBRANCH   3  15
TORSDOF 4
