REMARK  Name = ZINC06700124
REMARK  6 active torsions:
REMARK  status: ('A' for Active; 'I' for Inactive)
REMARK    1  A    between atoms: C_1  and  C_2
REMARK    2  A    between atoms: C_3  and  C_22
REMARK    3  A    between atoms: C_4  and  C_19
REMARK    4  A    between atoms: C_5  and  N_7
REMARK    5  A    between atoms: C_8  and  C_10
REMARK    6  A    between atoms: C_16  and  C_18
REMARK                            x       y       z     vdW  Elec       q    Type
REMARK                         _______ _______ _______ _____ _____    ______ ____
ROOT
ATOM      1  C   UNL     1       0.198  -2.392   2.325  0.00  0.00    +0.052 C 
ATOM      2  C   UNL     1       0.787  -2.890   1.030  0.00  0.00    -0.003 A 
ATOM      3  C   UNL     1       1.247  -2.164  -0.021  0.00  0.00    +0.006 A 
ATOM      4  C   UNL     1       1.772  -2.910  -1.149  0.00  0.00    +0.073 A 
ATOM      5  C   UNL     1       1.748  -4.293  -1.049  0.00  0.00    +0.085 A 
ATOM      6  S   UNL     1       1.044  -4.573   0.508  0.00  0.00    -0.077 S 
ENDROOT
BRANCH   3   7
ATOM      7  C   UNL     1       1.220  -0.682  -0.013  0.00  0.00    -0.016 A 
ATOM      8  C   UNL     1       0.002  -0.004   0.002  0.00  0.00    +0.008 A 
ATOM      9  C   UNL     1      -0.017   1.376   0.010  0.00  0.00    +0.001 A 
ATOM     10  C   UNL     1       1.170   2.086   0.002  0.00  0.00    +0.000 A 
ATOM     11  C   UNL     1       2.382   1.419  -0.013  0.00  0.00    +0.001 A 
ATOM     12  C   UNL     1       2.413   0.040  -0.021  0.00  0.00    +0.008 A 
ENDBRANCH   3   7
BRANCH   4  13
ATOM     13  C   UNL     1       2.300  -2.235  -2.337  0.00  0.00    +0.244 C 
ATOM     14  O   UNL     1       3.480  -1.939  -2.394  0.00  0.00    -0.270 OA
ATOM     15  N   UNL     1       1.481  -1.941  -3.366  0.00  0.00    -0.325 N 
ATOM     16  H   UNL     1       0.541  -2.177  -3.320  0.00  0.00    +0.145 HD
ATOM     17  H   UNL     1       1.831  -1.494  -4.152  0.00  0.00    +0.145 HD
ENDBRANCH   4  13
BRANCH   5  18
ATOM     18  N   UNL     1       2.183  -5.229  -1.975  0.00  0.00    -0.279 N 
ATOM     19  C   UNL     1       2.080  -6.545  -1.703  0.00  0.00    +0.221 C 
ATOM     20  O   UNL     1       1.607  -6.910  -0.648  0.00  0.00    -0.275 OA
ATOM     21  H   UNL     1       2.562  -4.936  -2.818  0.00  0.00    +0.155 HD
BRANCH  19  22
ATOM     22  C   UNL     1       2.553  -7.561  -2.709  0.00  0.00    +0.078 C 
ATOM     23  C   UNL     1       1.771  -7.390  -4.013  0.00  0.00    +0.032 C 
ATOM     24  C   UNL     1       2.279  -8.402  -5.045  0.00  0.00    +0.108 C 
ATOM     25  N   UNL     1       2.197  -9.749  -4.466  0.00  0.00    -0.302 N 
ATOM     26  C   UNL     1       2.838 -10.000  -3.168  0.00  0.00    +0.108 C 
ATOM     27  C   UNL     1       2.324  -8.970  -2.157  0.00  0.00    +0.032 C 
ATOM     28  C   UNL     1       1.546 -10.737  -5.112  0.00  0.00    +0.212 C 
ATOM     29  O   UNL     1       1.485 -11.845  -4.623  0.00  0.00    -0.276 OA
ATOM     30  C   UNL     1       0.893 -10.464  -6.443  0.00  0.00    +0.109 C 
ENDBRANCH  19  22
ENDBRANCH   5  18
TORSDOF 4
