REMARK  Name = ZINC13298284
REMARK  6 active torsions:
REMARK  status: ('A' for Active; 'I' for Inactive)
REMARK    1  A    between atoms: C_1  and  C_2
REMARK    2  A    between atoms: C_2  and  C_4
REMARK    3  A    between atoms: C_10  and  C_31
REMARK    4  A    between atoms: C_11  and  O_30
REMARK    5  A    between atoms: C_22  and  C_29
REMARK    6  A    between atoms: C_25  and  O_28
REMARK                            x       y       z     vdW  Elec       q    Type
REMARK                         _______ _______ _______ _____ _____    ______ ____
ROOT
ATOM      1  C   UNL     1       1.548   5.638   2.656  0.00  0.00    +0.064 C 
ATOM      2  C   UNL     1       1.798   4.460   3.641  0.00  0.00    +0.012 C 
ATOM      3  C   UNL     1       0.970   3.261   3.114  0.00  0.00    +0.005 C 
ATOM      4  C   UNL     1       0.456   3.723   1.740  0.00  0.00    +0.001 C 
ATOM      5  C   UNL     1       0.248   5.239   1.955  0.00  0.00    +0.006 C 
ATOM      6  C   UNL     1      -0.141   5.912   0.672  0.00  0.00    +0.122 C 
ATOM      7  C   UNL     1      -1.328   5.221   0.001  0.00  0.00    +0.036 C 
ATOM      8  C   UNL     1      -1.335   3.704   0.003  0.00  0.00    +0.001 C 
ATOM      9  C   UNL     1      -0.841   3.092   1.300  0.00  0.00    -0.004 C 
ATOM     10  C   UNL     1      -0.736   1.571   1.262  0.00  0.00    +0.004 C 
ATOM     11  C   UNL     1      -0.013   1.092   0.008  0.00  0.00    +0.004 C 
ATOM     12  C   UNL     1      -0.792   1.585  -1.208  0.00  0.00    -0.002 C 
ATOM     13  C   UNL     1      -0.744   3.113  -1.270  0.00  0.00    -0.026 C 
ATOM     14  C   UNL     1      -1.600   3.559  -2.467  0.00  0.00    +0.010 C 
ATOM     15  C   UNL     1      -1.079   2.950  -3.766  0.00  0.00    +0.032 C 
ATOM     16  C   UNL     1      -1.066   1.425  -3.683  0.00  0.00    +0.115 C 
ATOM     17  C   UNL     1      -0.232   0.969  -2.484  0.00  0.00    +0.035 C 
ATOM     18  C   UNL     1       0.691   3.578  -1.502  0.00  0.00    +0.012 C 
ATOM     19  C   UNL     1      -0.882   5.480   2.982  0.00  0.00    +0.015 C 
ENDROOT
BRANCH   1  21
ATOM     20  C   UNL     1       3.884   6.649   2.104  0.00  0.00    +0.086 C 
ATOM     21  C   UNL     1       2.725   5.760   1.733  0.00  0.00    +0.134 C 
ATOM     22  O   UNL     1       2.743   5.147   0.693  0.00  0.00    -0.297 OA
ENDBRANCH   1  21
BRANCH  16  23
ATOM     23  O   UNL     1      -0.503   0.890  -4.884  0.00  0.00    -0.392 OA
ATOM     24  H   UNL     1      -0.986   1.129  -5.686  0.00  0.00    +0.210 HD
ENDBRANCH  16  23
BRANCH   6  25
ATOM     25  O   UNL     1       0.925   6.080  -0.255  0.00  0.00    -0.391 OA
ATOM     26  H   UNL     1       0.695   6.614  -1.028  0.00  0.00    +0.210 HD
ENDBRANCH   6  25
TORSDOF 3
