REMARK  Name = ZINC03072030
REMARK  6 active torsions:
REMARK  status: ('A' for Active; 'I' for Inactive)
REMARK    1  A    between atoms: CB_1  and  CA_2
REMARK    2  A    between atoms: CA_2  and  C_4
REMARK    3  A    between atoms: CA_2  and  N_6
REMARK    4  A    between atoms: C_7  and  C_9
REMARK    5  A    between atoms: C_9  and  N_10
REMARK    6  A    between atoms: C_14  and  C_15
REMARK                            x       y       z     vdW  Elec       q    Type
REMARK                         _______ _______ _______ _____ _____    ______ ____
ROOT
ATOM      1  N   UNK A   0      -2.632  -2.561   0.321  0.00  0.00    -0.246 N 
ATOM      2  C   UNK A   0      -1.376  -2.156   0.227  0.00  0.00    +0.259 C 
ATOM      3  O   UNK A   0      -0.448  -2.943   0.234  0.00  0.00    -0.269 OA
ATOM      4  C   UNK A   0      -1.158  -0.699   0.112  0.00  0.00    +0.077 C 
ATOM      5  C   UNK A   0       0.002  -0.004   0.002  0.00  0.00    +0.028 C 
ATOM      6  S   UNK A   0      -2.842  -0.103   0.165  0.00  0.00    -0.061 S 
ATOM      7  C   UNK A   0      -3.657  -1.685   0.312  0.00  0.00    +0.121 C 
ATOM      8  S   UNK A   0      -5.334  -2.010   0.423  0.00  0.00    -0.027 S 
ENDROOT
BRANCH   5   9
ATOM      9  C   UNK A   0      -0.029   1.437  -0.288  0.00  0.00    -0.024 A 
ATOM     10  C   UNK A   0      -1.233   2.059  -0.636  0.00  0.00    +0.008 A 
ATOM     11  C   UNK A   0      -1.254   3.411  -0.901  0.00  0.00    +0.001 A 
ATOM     12  C   UNK A   0      -0.087   4.152  -0.836  0.00  0.00    +0.000 A 
ATOM     13  C   UNK A   0       1.110   3.543  -0.498  0.00  0.00    +0.001 A 
ATOM     14  C   UNK A   0       1.147   2.192  -0.224  0.00  0.00    +0.008 A 
ENDBRANCH   5   9
BRANCH   1  15
ATOM     15  C   UNK A   0      -2.915  -3.993   0.438  0.00  0.00    +0.210 C 
BRANCH  15  17
ATOM     16  N   ALA A   1      -3.183  -5.662   2.244  0.00  0.00    -0.301 N 
ATOM     17  C   UNK A   0      -2.939  -4.383   1.893  0.00  0.00    +0.231 C 
ATOM     18  O   UNK A   0      -2.739  -3.547   2.748  0.00  0.00    -0.274 OA
ATOM     19  H   ALA A   1      -3.343  -6.330   1.560  0.00  0.00    +0.150 HD
BRANCH  16  21
ATOM     20  CB  ALA A   1      -1.781  -6.337   4.131  0.00  0.00    +0.040 C 
ATOM     21  CA  ALA A   1      -3.206  -6.041   3.659  0.00  0.00    +0.183 C 
BRANCH  21  22
ATOM     22  C   ALA A   1      -4.059  -7.270   3.836  0.00  0.00    +0.376 C 
ATOM     23  O   ALA A   1      -4.593  -7.778   2.878  0.00  0.00    -0.244 OA
ATOM     24  OXT ALA A   1      -4.226  -7.802   5.057  0.00  0.00    -0.244 OA
ENDBRANCH  21  22
ENDBRANCH  16  21
ENDBRANCH  15  17
ENDBRANCH   1  15
TORSDOF 5
