REMARK  Name = ZINC15034646
REMARK  6 active torsions:
REMARK  status: ('A' for Active; 'I' for Inactive)
REMARK    1  A    between atoms: C_3  and  O_25
REMARK    2  A    between atoms: C_4  and  C_8
REMARK    3  A    between atoms: N_12  and  C_16
REMARK    4  A    between atoms: C_16  and  C_18
REMARK    5  A    between atoms: C_16  and  C_22
REMARK    6  A    between atoms: C_18  and  C_19
REMARK                            x       y       z     vdW  Elec       q    Type
REMARK                         _______ _______ _______ _____ _____    ______ ____
ROOT
ATOM      1  C   UNL     1       3.688  -0.686  -0.037  0.00  0.00    +0.032 C 
ATOM      2  C   UNL     1       3.711  -2.040   0.058  0.00  0.00    +0.077 C 
ATOM      3  C   UNL     1       4.864  -2.956   0.168  0.00  0.00    +0.259 C 
ATOM      4  O   UNL     1       6.009  -2.544   0.186  0.00  0.00    -0.269 OA
ATOM      5  N   UNL     1       4.589  -4.247   0.247  0.00  0.00    -0.241 N 
ATOM      6  C   UNL     1       3.318  -4.700   0.227  0.00  0.00    +0.121 C 
ATOM      7  S   UNL     1       2.764  -6.317   0.317  0.00  0.00    -0.027 S 
ATOM      8  S   UNL     1       2.354  -3.203   0.092  0.00  0.00    -0.061 S 
ENDROOT
BRANCH   1  12
ATOM      9  C   UNL     1       0.027   1.328  -0.778  0.00  0.00    +0.023 A 
ATOM     10  C   UNL     1       1.102   2.030  -0.267  0.00  0.00    +0.047 A 
ATOM     11  C   UNL     1       2.302   1.384  -0.021  0.00  0.00    +0.124 A 
ATOM     12  C   UNL     1       2.421   0.011  -0.293  0.00  0.00    +0.019 A 
ATOM     13  C   UNL     1       1.325  -0.689  -0.811  0.00  0.00    +0.031 A 
ATOM     14  C   UNL     1       0.139  -0.027  -1.049  0.00  0.00    +0.042 A 
ATOM     15 CL   UNL     1      -1.221  -0.895  -1.690  0.00  0.00    -0.084 Cl
BRANCH  11  16
ATOM     16  O   UNL     1       3.358   2.074   0.481  0.00  0.00    -0.506 OA
ATOM     17  H   UNL     1       3.395   2.087   1.447  0.00  0.00    +0.292 HD
ENDBRANCH  11  16
ENDBRANCH   1  12
BRANCH   5  18
ATOM     18  C   UNL     1       5.689  -5.208   0.357  0.00  0.00    +0.206 C 
BRANCH  18  19
ATOM     19  C   UNL     1       5.647  -6.157  -0.813  0.00  0.00    +0.377 C 
ATOM     20  O   UNL     1       6.680  -6.647  -1.237  0.00  0.00    -0.244 OA
ATOM     21  O   UNL     1       4.581  -6.433  -1.336  0.00  0.00    -0.244 OA
ENDBRANCH  18  19
BRANCH  18  22
ATOM     22  C   UNL     1       5.547  -5.998   1.660  0.00  0.00    +0.159 C 
BRANCH  22  23
ATOM     23  C   UNL     1       5.712  -5.067   2.833  0.00  0.00    +0.358 C 
ATOM     24  O   UNL     1       5.923  -3.881   2.645  0.00  0.00    -0.246 OA
ATOM     25  O   UNL     1       5.634  -5.499   3.970  0.00  0.00    -0.246 OA
ENDBRANCH  22  23
ENDBRANCH  18  22
ENDBRANCH   5  18
TORSDOF 6
