REMARK  Name = ZINC39022151
REMARK  5 active torsions:
REMARK  status: ('A' for Active; 'I' for Inactive)
REMARK    1  A    between atoms: N_9  and  C_13
REMARK    2  A    between atoms: C_10  and  O_12
REMARK    3  A    between atoms: C_13  and  C_14
REMARK    4  A    between atoms: C_14  and  C_15
REMARK    5  A    between atoms: C_15  and  N_17
REMARK                            x       y       z     vdW  Elec       q    Type
REMARK                         _______ _______ _______ _____ _____    ______ ____
ROOT
ATOM      1  C   UNL     1       2.611  -4.199  -0.238  0.00  0.00    +0.121 C 
ENDROOT
BRANCH   1  10
ATOM      2  C   UNL     1       0.041   1.390   0.007  0.00  0.00    +0.001 A 
ATOM      3  C   UNL     1       1.228   2.106  -0.014  0.00  0.00    +0.002 A 
ATOM      4  C   UNL     1       2.444   1.449  -0.041  0.00  0.00    +0.024 A 
ATOM      5  C   UNL     1       2.475   0.065  -0.047  0.00  0.00    +0.042 A 
ATOM      6  C   UNL     1       1.272  -0.664  -0.022  0.00  0.00    +0.058 A 
ATOM      7  C   UNL     1       0.054   0.011   0.003  0.00  0.00    +0.015 A 
ATOM      8  C   UNL     1       1.345  -2.136  -0.019  0.00  0.00    +0.251 C 
ATOM      9  O   UNL     1       0.362  -2.800   0.251  0.00  0.00    -0.270 OA
ATOM     10  N   UNL     1       2.513  -2.739  -0.320  0.00  0.00    -0.256 N 
ATOM     11  C   UNL     1       3.685  -1.963  -0.725  0.00  0.00    +0.299 C 
ATOM     12  N   UNL     1       3.670  -0.644  -0.079  0.00  0.00    -0.303 N 
ATOM     13  H   UNL     1       4.475  -0.277   0.316  0.00  0.00    +0.150 HD
BRANCH  11  14
ATOM     14  O   UNL     1       3.673  -1.794  -2.144  0.00  0.00    -0.359 OA
ATOM     15  H   UNL     1       4.422  -1.287  -2.486  0.00  0.00    +0.213 HD
ENDBRANCH  11  14
ENDBRANCH   1  10
BRANCH   1  16
ATOM     16  C   UNL     1       2.237  -4.811  -1.589  0.00  0.00    +0.117 C 
BRANCH  16  17
ATOM     17  C   UNL     1       2.337  -6.312  -1.506  0.00  0.00    +0.241 C 
ATOM     18  O   UNL     1       2.676  -6.842  -0.465  0.00  0.00    -0.274 OA
BRANCH  17  19
ATOM     19  N   UNL     1       2.056  -7.058  -2.570  0.00  0.00    -0.147 NA
ATOM     20  C   UNL     1       2.244  -8.374  -2.529  0.00  0.00    +0.198 A 
ATOM     21  N   UNL     1       2.608  -9.083  -1.428  0.00  0.00    -0.326 N 
ATOM     22  H   UNL     1       2.772  -8.717  -0.545  0.00  0.00    +0.169 HD
ATOM     23  C   UNL     1       2.703 -10.425  -1.784  0.00  0.00    +0.065 A 
ATOM     24  C   UNL     1       3.030 -11.572  -1.076  0.00  0.00    +0.028 A 
ATOM     25  C   UNL     1       3.039 -12.796  -1.716  0.00  0.00    +0.002 A 
ATOM     26  C   UNL     1       2.724 -12.883  -3.061  0.00  0.00    +0.002 A 
ATOM     27  C   UNL     1       2.398 -11.747  -3.775  0.00  0.00    +0.028 A 
ATOM     28  C   UNL     1       2.385 -10.512  -3.142  0.00  0.00    +0.065 A 
ATOM     29  N   UNL     1       2.099  -9.223  -3.579  0.00  0.00    -0.326 N 
ATOM     30  H   UNL     1       1.842  -8.973  -4.481  0.00  0.00    +0.169 HD
ENDBRANCH  17  19
ENDBRANCH  16  17
ENDBRANCH   1  16
TORSDOF 5
