REMARK  Name = ZINC05725726
REMARK  6 active torsions:
REMARK  status: ('A' for Active; 'I' for Inactive)
REMARK    1  A    between atoms: C_2  and  C_18
REMARK    2  A    between atoms: C_4  and  O_17
REMARK    3  A    between atoms: C_6  and  O_16
REMARK    4  A    between atoms: C_8  and  O_15
REMARK    5  A    between atoms: C_10  and  O_14
REMARK    6  A    between atoms: C_18  and  O_19
REMARK                            x       y       z     vdW  Elec       q    Type
REMARK                         _______ _______ _______ _____ _____    ______ ____
ROOT
ATOM      1  C   UNL     1      -2.163   0.988  -1.252  0.00  0.00    +0.168 C 
ATOM      2  C   UNL     1      -0.755   1.594  -1.235  0.00  0.00    +0.071 C 
ATOM      3  C   UNL     1       0.033   1.215  -2.481  0.00  0.00    +0.153 C 
ATOM      4  C   UNL     1      -0.507   1.892  -3.727  0.00  0.00    +0.174 C 
ATOM      5  C   UNL     1      -1.263   0.930  -4.636  0.00  0.00    +0.176 C 
ATOM      6  C   UNL     1      -2.382   0.200  -3.900  0.00  0.00    +0.171 C 
ATOM      7  C   UNL     1      -3.403   1.171  -3.328  0.00  0.00    +0.193 C 
ATOM      8  O   UNL     1      -2.999   1.772  -2.107  0.00  0.00    -0.377 OA
ENDROOT
BRANCH   6   9
ATOM      9  O   UNL     1      -3.057  -0.655  -4.846  0.00  0.00    -0.387 OA
ATOM     10  H   UNL     1      -3.778  -1.173  -4.463  0.00  0.00    +0.210 HD
ENDBRANCH   6   9
BRANCH   5  11
ATOM     11  O   UNL     1      -1.813   1.653  -5.745  0.00  0.00    -0.387 OA
ATOM     12  H   UNL     1      -2.265   1.096  -6.394  0.00  0.00    +0.210 HD
ENDBRANCH   5  11
BRANCH   4  13
ATOM     13  O   UNL     1      -1.312   3.022  -3.397  0.00  0.00    -0.387 OA
ATOM     14  H   UNL     1      -1.596   3.539  -4.163  0.00  0.00    +0.210 HD
ENDBRANCH   4  13
BRANCH   3  15
ATOM     15  O   UNL     1       0.090  -0.200  -2.637  0.00  0.00    -0.389 OA
ATOM     16  H   UNL     1       0.582  -0.490  -3.418  0.00  0.00    +0.210 HD
ENDBRANCH   3  15
BRANCH   2  17
ATOM     17  C   UNL     1      -0.013   1.086   0.008  0.00  0.00    +0.164 C 
BRANCH  17  18
ATOM     18  O   UNL     1      -0.682   1.547   1.184  0.00  0.00    -0.395 OA
ATOM     19  H   UNL     1      -0.266   1.262   2.009  0.00  0.00    +0.209 HD
ENDBRANCH  17  18
ENDBRANCH   2  17
TORSDOF 6
