REMARK  Name = ZINC63514059
REMARK  8 active torsions:
REMARK  status: ('A' for Active; 'I' for Inactive)
REMARK    1  A    between atoms: C_1  and  O_2
REMARK    2  A    between atoms: O_2  and  C_3
REMARK    3  A    between atoms: C_7  and  C_10
REMARK    4  A    between atoms: C_8  and  O_9
REMARK    5  A    between atoms: N_18  and  C_21
REMARK    6  A    between atoms: C_27  and  C_29
REMARK    7  A    between atoms: C_27  and  C_39
REMARK    8  A    between atoms: C_29  and  C_30
REMARK                            x       y       z     vdW  Elec       q    Type
REMARK                         _______ _______ _______ _____ _____    ______ ____
ROOT
ATOM      1  C   UNL     1       1.329  -4.110  -2.298  0.00  0.00    -0.023 C 
ATOM      2  C   UNL     1       0.026  -4.667  -2.862  0.00  0.00    +0.077 C 
ATOM      3  C   UNL     1       0.578  -6.087  -3.264  0.00  0.00    +0.086 C 
ATOM      4  C   UNL     1      -0.638  -6.847  -3.423  0.00  0.00    +0.229 C 
ATOM      5  O   UNL     1      -0.849  -7.747  -4.206  0.00  0.00    -0.275 OA
ATOM      6  N   UNL     1      -1.505  -6.328  -2.493  0.00  0.00    -0.210 N 
ATOM      7  C   UNL     1      -1.071  -5.132  -1.958  0.00  0.00    +0.229 C 
ATOM      8  O   UNL     1      -1.481  -4.574  -0.963  0.00  0.00    -0.275 OA
ATOM      9  C   UNL     1       1.817  -5.780  -3.990  0.00  0.00    +0.052 C 
ATOM     10  N   UNL     1       2.353  -4.546  -3.303  0.00  0.00    +0.396 N 
ATOM     11  H   UNL     1       2.493  -3.817  -3.987  0.00  0.00    -0.083 HD
ATOM     12  H   UNL     1       3.224  -4.752  -2.837  0.00  0.00    -0.083 HD
ENDROOT
BRANCH   1  17
ATOM     13  C   UNL     1       0.859  -0.604  -0.949  0.00  0.00    +0.161 A 
ATOM     14  C   UNL     1       1.171   0.159  -2.063  0.00  0.00    +0.049 A 
ATOM     15  C   UNL     1       1.533  -0.459  -3.245  0.00  0.00    +0.004 A 
ATOM     16  C   UNL     1       1.584  -1.839  -3.320  0.00  0.00    +0.006 A 
ATOM     17  C   UNL     1       1.273  -2.606  -2.212  0.00  0.00    -0.015 A 
ATOM     18  C   UNL     1       0.916  -1.993  -1.022  0.00  0.00    +0.160 A 
BRANCH  13  20
ATOM     19  C   UNL     1       0.467   1.431   0.217  0.00  0.00    +0.277 C 
ATOM     20  O   UNL     1       0.504   0.003   0.215  0.00  0.00    -0.491 OA
ENDBRANCH  13  20
BRANCH  18  21
ATOM     21  O   UNL     1       0.616  -2.746   0.069  0.00  0.00    -0.503 OA
ATOM     22  H   UNL     1      -0.318  -2.985   0.138  0.00  0.00    +0.292 HD
ENDBRANCH  18  21
ENDBRANCH   1  17
BRANCH   6  23
ATOM     23  C   UNL     1      -2.713  -6.939  -2.131  0.00  0.00    +0.044 A 
ATOM     24  C   UNL     1      -3.088  -8.140  -2.719  0.00  0.00    +0.024 A 
ATOM     25  C   UNL     1      -4.280  -8.740  -2.361  0.00  0.00    +0.002 A 
ATOM     26  C   UNL     1      -5.098  -8.146  -1.418  0.00  0.00    +0.000 A 
ATOM     27  C   UNL     1      -4.727  -6.951  -0.831  0.00  0.00    +0.002 A 
ATOM     28  C   UNL     1      -3.535  -6.349  -1.181  0.00  0.00    +0.024 A 
ENDBRANCH   6  23
BRANCH   9  29
ATOM     29  C   UNL     1       1.522  -5.516  -5.444  0.00  0.00    +0.347 C 
ATOM     30  O   UNL     1       1.804  -4.438  -5.938  0.00  0.00    -0.248 OA
ATOM     31  O   UNL     1       1.002  -6.382  -6.127  0.00  0.00    -0.248 OA
ENDBRANCH   9  29
BRANCH   9  32
ATOM     32  C   UNL     1       2.818  -6.928  -3.847  0.00  0.00    +0.033 C 
BRANCH  32  33
ATOM     33  C   UNL     1       4.122  -6.541  -4.494  0.00  0.00    -0.042 C 
ATOM     34  C   UNL     1       5.206  -6.008  -3.885  0.00  0.00    -0.001 A 
ATOM     35  C   UNL     1       5.482  -5.641  -2.491  0.00  0.00    +0.010 A 
ATOM     36  C   UNL     1       6.688  -5.114  -2.178  0.00  0.00    +0.001 A 
ATOM     37  C   UNL     1       7.677  -4.910  -3.150  0.00  0.00    +0.002 A 
ATOM     38  C   UNL     1       7.497  -5.221  -4.450  0.00  0.00    +0.026 A 
ATOM     39  C   UNL     1       6.267  -5.782  -4.892  0.00  0.00    +0.043 A 
ATOM     40  N   UNL     1       5.856  -6.162  -6.077  0.00  0.00    -0.380 N 
ATOM     41  C   UNL     1       4.488  -6.677  -5.955  0.00  0.00    +0.144 C 
ATOM     42  H   UNL     1       6.372  -6.114  -6.897  0.00  0.00    +0.160 HD
ENDBRANCH  32  33
ENDBRANCH   9  32
TORSDOF 7
