REMARK  Name = ZINC44781477
REMARK  7 active torsions:
REMARK  status: ('A' for Active; 'I' for Inactive)
REMARK    1  A    between atoms: C_1  and  C_2
REMARK    2  A    between atoms: C_6  and  C_18
REMARK    3  A    between atoms: C_10  and  C_12
REMARK    4  A    between atoms: C_12  and  C_13
REMARK    5  A    between atoms: C_12  and  C_14
REMARK    6  A    between atoms: C_12  and  C_15
REMARK    7  A    between atoms: C_15  and  N_17
REMARK                            x       y       z     vdW  Elec       q    Type
REMARK                         _______ _______ _______ _____ _____    ______ ____
ROOT
ATOM      1  C   UNL     1      -1.028   1.158   1.254  0.00  0.00    +0.028 C 
ATOM      2  C   UNL     1      -0.791  -0.346   1.102  0.00  0.00    +0.073 C 
ATOM      3  C   UNL     1      -2.051  -1.109   1.525  0.00  0.00    +0.023 C 
ATOM      4  C   UNL     1      -2.297  -0.890   3.019  0.00  0.00    +0.016 C 
ATOM      5  C   UNL     1      -1.111  -1.434   3.819  0.00  0.00    +0.092 C 
ATOM      6  C   UNL     1       0.159  -0.675   3.422  0.00  0.00    +0.120 C 
ATOM      7  N   UNL     1       0.326  -0.759   1.962  0.00  0.00    -0.297 N 
ATOM      8  C   UNL     1       1.478  -1.207   1.424  0.00  0.00    +0.228 C 
ATOM      9  O   UNL     1       1.575  -1.337   0.222  0.00  0.00    -0.275 OA
ENDROOT
BRANCH   5  10
ATOM     10  C   UNL     1      -1.370  -1.248   5.292  0.00  0.00    +0.215 C 
ATOM     11  O   UNL     1      -0.613  -0.577   5.960  0.00  0.00    -0.276 OA
ATOM     12  N   UNL     1      -2.443  -1.827   5.866  0.00  0.00    -0.329 N 
ATOM     13  H   UNL     1      -3.049  -2.364   5.332  0.00  0.00    +0.145 HD
ATOM     14  H   UNL     1      -2.609  -1.707   6.814  0.00  0.00    +0.145 HD
ENDBRANCH   5  10
BRANCH   8  15
ATOM     15  C   UNL     1       2.644  -1.546   2.316  0.00  0.00    +0.086 C 
ATOM     16  C   UNL     1       2.308  -2.785   3.147  0.00  0.00    +0.027 C 
ATOM     17  C   UNL     1       3.878  -1.828   1.456  0.00  0.00    +0.027 C 
BRANCH  15  18
ATOM     18  C   UNL     1       2.928  -0.386   3.235  0.00  0.00    +0.061 C 
ATOM     19  S   UNL     1       2.300   1.052   2.925  0.00  0.00    -0.040 S 
BRANCH  18  20
ATOM     20  N   UNL     1       3.710  -0.560   4.319  0.00  0.00    -0.355 N 
ATOM     21  H   UNL     1       4.090  -1.432   4.507  0.00  0.00    +0.143 HD
ATOM     22  H   UNL     1       3.892   0.187   4.910  0.00  0.00    +0.143 HD
ENDBRANCH  18  20
ENDBRANCH  15  18
ENDBRANCH   8  15
TORSDOF 4
