REMARK  Name = ZINC12525940
REMARK  7 active torsions:
REMARK  status: ('A' for Active; 'I' for Inactive)
REMARK    1  A    between atoms: C_1  and  C_2
REMARK    2  A    between atoms: C_2  and  N_3
REMARK    3  A    between atoms: N_3  and  S_4
REMARK    4  A    between atoms: S_4  and  C_7
REMARK    5  A    between atoms: C_10  and  N_13
REMARK    6  A    between atoms: N_13  and  S_14
REMARK    7  A    between atoms: S_14  and  C_17
REMARK                            x       y       z     vdW  Elec       q    Type
REMARK                         _______ _______ _______ _____ _____    ______ ____
ROOT
ATOM      1  C   UNL     1      -1.428   2.945  -1.270  0.00  0.00    +0.105 A 
ATOM      2  C   UNL     1      -1.048   4.265  -1.436  0.00  0.00    +0.030 A 
ATOM      3  C   UNL     1      -1.167   4.869  -2.672  0.00  0.00    +0.026 A 
ATOM      4  C   UNL     1      -1.680   4.154  -3.747  0.00  0.00    +0.048 A 
ATOM      5  C   UNL     1      -2.066   2.831  -3.576  0.00  0.00    +0.026 A 
ATOM      6  C   UNL     1      -1.939   2.231  -2.338  0.00  0.00    +0.030 A 
ENDROOT
BRANCH   1   7
ATOM      7  S   UNL     1      -1.268   2.176   0.306  0.00  0.00    +0.058 S 
ATOM      8  O   UNL     1      -2.205   1.108   0.334  0.00  0.00    -0.153 OA
ATOM      9  O   UNL     1      -1.274   3.220   1.270  0.00  0.00    -0.153 OA
BRANCH   7  10
ATOM     10  N   UNL     1       0.237   1.487   0.364  0.00  0.00    -0.190 NA
ATOM     11  H   UNL     1       0.327   0.523   0.424  0.00  0.00    +0.148 HD
BRANCH  10  13
ATOM     12  C   UNL     1       2.652   1.516   0.750  0.00  0.00    +0.022 C 
ATOM     13  C   UNL     1       1.432   2.333   0.319  0.00  0.00    +0.102 C 
ENDBRANCH  10  13
ENDBRANCH   7  10
ENDBRANCH   1   7
BRANCH   4  14
ATOM     14  N   UNL     1      -1.807   4.764  -4.997  0.00  0.00    -0.216 N 
ATOM     15  H   UNL     1      -1.508   4.301  -5.795  0.00  0.00    +0.174 HD
BRANCH  14  16
ATOM     16  S   UNL     1      -2.467   6.278  -5.116  0.00  0.00    +0.073 S 
ATOM     17  O   UNL     1      -1.751   7.106  -4.210  0.00  0.00    -0.150 OA
ATOM     18  O   UNL     1      -2.562   6.572  -6.503  0.00  0.00    -0.150 OA
BRANCH  16  19
ATOM     19  C   UNL     1      -4.118   6.176  -4.509  0.00  0.00    +0.122 A 
ATOM     20  C   UNL     1      -4.482   6.877  -3.374  0.00  0.00    +0.030 A 
ATOM     21  C   UNL     1      -5.778   6.800  -2.900  0.00  0.00    +0.002 A 
ATOM     22  C   UNL     1      -6.709   6.015  -3.555  0.00  0.00    +0.001 A 
ATOM     23  C   UNL     1      -6.344   5.309  -4.686  0.00  0.00    +0.017 A 
ATOM     24  C   UNL     1      -5.048   5.390  -5.164  0.00  0.00    +0.044 A 
ATOM     25 BR   UNL     1      -4.549   4.424  -6.711  0.00  0.00    -0.048 Br
ENDBRANCH  16  19
ENDBRANCH  14  16
ENDBRANCH   4  14
TORSDOF 6
