REMARK  Name = ZINC42477407
REMARK  6 active torsions:
REMARK  status: ('A' for Active; 'I' for Inactive)
REMARK    1  A    between atoms: C_3  and  S_19
REMARK    2  A    between atoms: C_6  and  C_7
REMARK    3  A    between atoms: C_7  and  C_8
REMARK    4  A    between atoms: C_8  and  N_9
REMARK    5  A    between atoms: N_9  and  C_10
REMARK    6  A    between atoms: S_19  and  N_22
REMARK                            x       y       z     vdW  Elec       q    Type
REMARK                         _______ _______ _______ _____ _____    ______ ____
ROOT
ATOM      1  C   UNL     1      -1.293  -0.775   0.011  0.00  0.00    +0.050 C 
ENDROOT
BRANCH   1   7
ATOM      2  C   UNL     1      -0.017   1.378   0.010  0.00  0.00    +0.005 A 
ATOM      3  C   UNL     1       1.171   2.086   0.002  0.00  0.00    +0.029 A 
ATOM      4  C   UNL     1       2.377   1.411  -0.013  0.00  0.00    +0.105 A 
ATOM      5  C   UNL     1       2.396   0.029  -0.020  0.00  0.00    +0.029 A 
ATOM      6  C   UNL     1       1.208  -0.679  -0.012  0.00  0.00    +0.005 A 
ATOM      7  C   UNL     1       0.002  -0.004   0.002  0.00  0.00    -0.046 A 
BRANCH   4   8
ATOM      8  S   UNL     1       3.891   2.312  -0.024  0.00  0.00    +0.056 S 
ATOM      9  O   UNL     1       4.872   1.453  -0.588  0.00  0.00    -0.153 OA
ATOM     10  O   UNL     1       3.597   3.593  -0.566  0.00  0.00    -0.153 OA
BRANCH   8  11
ATOM     11  N   UNL     1       4.327   2.556   1.555  0.00  0.00    -0.204 NA
ATOM     12  H   UNL     1       3.768   2.215   2.271  0.00  0.00    +0.144 HD
ATOM     13  H   UNL     1       5.142   3.039   1.764  0.00  0.00    +0.144 HD
ENDBRANCH   8  11
ENDBRANCH   4   8
ENDBRANCH   1   7
BRANCH   1  14
ATOM     14  C   UNL     1      -1.745  -1.028  -1.429  0.00  0.00    +0.086 C 
BRANCH  14  15
ATOM     15  N   UNL     1      -3.007  -1.780  -1.420  0.00  0.00    -0.314 NA
ATOM     16  H   UNL     1      -2.913  -2.639  -0.900  0.00  0.00    +0.122 HD
BRANCH  15  17
ATOM     17  C   UNL     1      -3.473  -2.042  -2.789  0.00  0.00    +0.040 C 
ATOM     18  C   UNL     1      -4.276  -0.842  -3.296  0.00  0.00    -0.060 C 
ATOM     19  N   UNL     1      -5.642  -1.255  -3.624  0.00  0.00    +0.381 N 
ATOM     20  C   UNL     1      -6.325  -1.769  -2.434  0.00  0.00    -0.078 C 
ATOM     21  C   UNL     1      -5.591  -3.000  -1.899  0.00  0.00    -0.014 C 
ATOM     22  C   UNL     1      -4.375  -3.284  -2.796  0.00  0.00    +0.001 C 
ATOM     23  C   UNL     1      -4.875  -3.510  -4.229  0.00  0.00    -0.014 C 
ATOM     24  C   UNL     1      -5.635  -2.261  -4.689  0.00  0.00    -0.078 C 
ATOM     25  H   UNL     1      -6.150  -0.447  -3.951  0.00  0.00    -0.082 HD
ENDBRANCH  15  17
ENDBRANCH  14  15
ENDBRANCH   1  14
TORSDOF 6
