REMARK  Name = ZINC05750991
REMARK  6 active torsions:
REMARK  status: ('A' for Active; 'I' for Inactive)
REMARK    1  A    between atoms: C_1  and  C_2
REMARK    2  A    between atoms: C_2  and  C_3
REMARK    3  A    between atoms: C_3  and  C_17
REMARK    4  A    between atoms: N_4  and  N_5
REMARK    5  A    between atoms: C_6  and  C_8
REMARK    6  A    between atoms: C_10  and  N_15
REMARK                            x       y       z     vdW  Elec       q    Type
REMARK                         _______ _______ _______ _____ _____    ______ ____
ROOT
ATOM      1  N   UNL     1       2.320   1.483  -0.012  0.00  0.00    -0.201 N 
ATOM      2  C   UNL     1       3.477   2.173  -0.019  0.00  0.00    +0.281 C 
ATOM      3  O   UNL     1       3.461   3.389  -0.013  0.00  0.00    -0.267 OA
ATOM      4  H   UNL     1       2.333   0.513  -0.018  0.00  0.00    +0.178 HD
ENDROOT
BRANCH   2   5
ATOM      5  C   UNL     1       4.769   1.450  -0.036  0.00  0.00    +0.125 A 
ATOM      6  C   UNL     1       5.961   2.170  -0.049  0.00  0.00    +0.091 A 
ATOM      7  C   UNL     1       7.170   1.473  -0.059  0.00  0.00    +0.067 A 
ATOM      8  C   UNL     1       7.131   0.080  -0.066  0.00  0.00    +0.098 A 
ATOM      9  C   UNL     1       5.904  -0.564  -0.057  0.00  0.00    +0.128 A 
ATOM     10 CL   UNL     1       5.848  -2.299  -0.066  0.00  0.00    -0.062 Cl
ATOM     11 CL   UNL     1       8.604  -0.839  -0.085  0.00  0.00    -0.079 Cl
ATOM     12 CL   UNL     1       5.943   3.905  -0.046  0.00  0.00    -0.079 Cl
ATOM     13  N   UNL     1       4.710   0.081  -0.042  0.00  0.00    -0.339 N 
ATOM     14  H   UNL     1       3.817  -0.425  -0.037  0.00  0.00    +0.167 HD
BRANCH   7  15
ATOM     15  N   UNL     1       8.386   2.154  -0.067  0.00  0.00    -0.356 N 
ATOM     16  H   UNL     1       9.219   1.658  -0.077  0.00  0.00    +0.142 HD
ATOM     17  H   UNL     1       8.399   3.124  -0.061  0.00  0.00    +0.142 HD
ENDBRANCH   7  15
ENDBRANCH   2   5
BRANCH   1  19
ATOM     18  C   UNL     1      -0.018   1.503   0.010  0.00  0.00    +0.066 C 
ATOM     19  N   UNL     1       1.097   2.167   0.003  0.00  0.00    -0.184 NA
BRANCH  18  20
ATOM     20  C   UNL     1      -1.305   2.223   0.020  0.00  0.00    -0.002 A 
ATOM     21  C   UNL     1      -2.507   1.510   0.016  0.00  0.00    +0.012 A 
ATOM     22  C   UNL     1      -3.707   2.189   0.031  0.00  0.00    +0.039 A 
ATOM     23  C   UNL     1      -3.723   3.575   0.038  0.00  0.00    +0.123 A 
ATOM     24  C   UNL     1      -2.534   4.287   0.037  0.00  0.00    +0.039 A 
ATOM     25  C   UNL     1      -1.327   3.619   0.028  0.00  0.00    +0.012 A 
ATOM     26  F   UNL     1      -4.902   4.234   0.047  0.00  0.00    -0.205 F 
ENDBRANCH  18  20
BRANCH  18  28
ATOM     27  C   UNL     1       0.023  -0.522   1.442  0.00  0.00    +0.010 C 
ATOM     28  C   UNL     1       0.002  -0.004   0.002  0.00  0.00    +0.054 C 
ENDBRANCH  18  28
ENDBRANCH   1  19
TORSDOF 5
