REMARK  Name = ZINC62235148
REMARK  5 active torsions:
REMARK  status: ('A' for Active; 'I' for Inactive)
REMARK    1  A    between atoms: C_1  and  C_2
REMARK    2  A    between atoms: C_2  and  N_3
REMARK    3  A    between atoms: N_3  and  C_4
REMARK    4  A    between atoms: C_4  and  C_6
REMARK    5  A    between atoms: C_4  and  C_19
REMARK                            x       y       z     vdW  Elec       q    Type
REMARK                         _______ _______ _______ _____ _____    ______ ____
ROOT
ATOM      1  C   UNL     1      -0.744  -2.321  -1.347  0.00  0.00    -0.045 A 
ATOM      2  C   UNL     1      -1.658  -1.384  -1.788  0.00  0.00    +0.031 A 
ATOM      3  C   UNL     1      -2.996  -1.728  -1.910  0.00  0.00    +0.067 A 
ATOM      4  C   UNL     1      -3.414  -3.021  -1.585  0.00  0.00    +0.068 A 
ATOM      5  C   UNL     1      -2.490  -3.955  -1.143  0.00  0.00    +0.043 A 
ATOM      6  C   UNL     1      -1.157  -3.604  -1.031  0.00  0.00    +0.022 A 
ATOM      7 BR   UNL     1       0.105  -4.880  -0.436  0.00  0.00    -0.050 Br
ATOM      8  N   UNL     1      -4.788  -3.066  -1.805  0.00  0.00    -0.306 N 
ATOM      9  H   UNL     1      -5.360  -3.837  -1.666  0.00  0.00    +0.170 HD
ATOM     10  C   UNL     1      -5.188  -1.857  -2.242  0.00  0.00    +0.325 A 
ATOM     11  O   UNL     1      -6.333  -1.558  -2.527  0.00  0.00    -0.247 OA
ATOM     12  N   UNL     1      -4.130  -1.028  -2.316  0.00  0.00    -0.306 N 
ATOM     13  H   UNL     1      -4.153  -0.102  -2.603  0.00  0.00    +0.170 HD
ENDROOT
BRANCH   1  14
ATOM     14  C   UNL     1       0.710  -1.947  -1.215  0.00  0.00    -0.034 C 
BRANCH  14  15
ATOM     15  C   UNL     1       1.400  -2.095  -2.572  0.00  0.00    +0.005 C 
ATOM     16  C   UNL     1       1.318  -3.555  -3.031  0.00  0.00    +0.007 C 
ATOM     17  C   UNL     1       2.079  -3.707  -4.351  0.00  0.00    +0.028 C 
ATOM     18  C   UNL     1       3.523  -3.239  -4.156  0.00  0.00    +0.160 C 
ATOM     19  O   UNL     1       3.527  -1.885  -3.699  0.00  0.00    -0.380 OA
ATOM     20  C   UNL     1       2.870  -1.689  -2.445  0.00  0.00    +0.162 C 
ENDBRANCH  14  15
BRANCH  14  21
ATOM     21  N   UNL     1       0.817  -0.554  -0.761  0.00  0.00    +0.384 N 
ATOM     22  H   UNL     1       0.303   0.045  -1.389  0.00  0.00    -0.085 HD
ATOM     23  H   UNL     1       1.788  -0.277  -0.751  0.00  0.00    -0.085 HD
BRANCH  21  25
ATOM     24  C   UNL     1       0.373   1.015   1.067  0.00  0.00    -0.017 C 
ATOM     25  C   UNL     1       0.261  -0.436   0.594  0.00  0.00    -0.085 C 
ENDBRANCH  21  25
ENDBRANCH  14  21
ENDBRANCH   1  14
TORSDOF 4
