REMARK  Name = ZINC37194651
REMARK  4 active torsions:
REMARK  status: ('A' for Active; 'I' for Inactive)
REMARK    1  A    between atoms: N_9  and  C_12
REMARK    2  A    between atoms: C_12  and  S_13
REMARK    3  A    between atoms: S_13  and  C_14
REMARK    4  A    between atoms: C_19  and  N_20
REMARK                            x       y       z     vdW  Elec       q    Type
REMARK                         _______ _______ _______ _____ _____    ______ ____
ROOT
ATOM      1  C   UNL     1       3.646  -3.459  -0.050  0.00  0.00    +0.191 C 
ENDROOT
BRANCH   1  10
ATOM      2  C   UNL     1       0.422   1.700  -0.060  0.00  0.00    +0.001 A 
ATOM      3  C   UNL     1       1.669   2.295  -0.004  0.00  0.00    +0.001 A 
ATOM      4  C   UNL     1       2.817   1.518   0.021  0.00  0.00    +0.014 A 
ATOM      5  C   UNL     1       2.713   0.137  -0.011  0.00  0.00    +0.049 A 
ATOM      6  C   UNL     1       1.441  -0.469  -0.067  0.00  0.00    +0.049 A 
ATOM      7  C   UNL     1       0.302   0.320  -0.091  0.00  0.00    +0.014 A 
ATOM      8  C   UNL     1       1.688  -1.926  -0.088  0.00  0.00    +0.255 C 
ATOM      9  O   UNL     1       0.835  -2.789  -0.135  0.00  0.00    -0.270 OA
ATOM     10  N   UNL     1       3.016  -2.137  -0.046  0.00  0.00    -0.224 N 
ATOM     11  C   UNL     1       3.689  -0.973   0.001  0.00  0.00    +0.255 C 
ATOM     12  O   UNL     1       4.897  -0.854   0.045  0.00  0.00    -0.270 OA
ENDBRANCH   1  10
BRANCH   1  13
ATOM     13  S   UNL     1       3.878  -4.013  -1.762  0.00  0.00    -0.104 S 
BRANCH  13  14
ATOM     14  C   UNL     1       4.671  -5.578  -1.600  0.00  0.00    +0.030 A 
ATOM     15  C   UNL     1       4.905  -6.112  -0.341  0.00  0.00    +0.019 A 
ATOM     16  C   UNL     1       5.528  -7.340  -0.216  0.00  0.00    +0.039 A 
ATOM     17  C   UNL     1       5.919  -8.040  -1.344  0.00  0.00    +0.125 A 
ATOM     18  C   UNL     1       5.689  -7.514  -2.604  0.00  0.00    +0.062 A 
ATOM     19  C   UNL     1       5.061  -6.286  -2.737  0.00  0.00    +0.041 A 
ATOM     20  F   UNL     1       6.527  -9.240  -1.215  0.00  0.00    -0.205 F 
BRANCH  19  21
ATOM     21  N   UNL     1       4.822  -5.754  -4.010  0.00  0.00    -0.357 N 
ATOM     22  H   UNL     1       4.386  -4.893  -4.102  0.00  0.00    +0.142 HD
ATOM     23  H   UNL     1       5.093  -6.247  -4.800  0.00  0.00    +0.142 HD
ENDBRANCH  19  21
ENDBRANCH  13  14
ENDBRANCH   1  13
TORSDOF 4
