REMARK  Name = ZINC07358513
REMARK  4 active torsions:
REMARK  status: ('A' for Active; 'I' for Inactive)
REMARK    1  A    between atoms: C_1  and  N_2
REMARK    2  A    between atoms: C_6  and  C_8
REMARK    3  A    between atoms: C_8  and  N_9
REMARK    4  A    between atoms: N_9  and  C_10
REMARK                            x       y       z     vdW  Elec       q    Type
REMARK                         _______ _______ _______ _____ _____    ______ ____
ROOT
ATOM      1  C   UNL     1       1.248   1.716  -0.001  0.00  0.00    +0.198 C 
ENDROOT
BRANCH   1   7
ATOM      2  C   UNL     1       7.097  -0.114  -0.066  0.00  0.00    +0.129 C 
ATOM      3  N   UNL     1       5.971   0.823  -0.051  0.00  0.00    -0.302 N 
ATOM      4  C   UNL     1       4.707   0.357  -0.041  0.00  0.00    +0.306 C 
ATOM      5  O   UNL     1       4.501  -0.841  -0.045  0.00  0.00    -0.252 OA
ATOM      6  N   UNL     1       3.671   1.218  -0.026  0.00  0.00    -0.239 N 
ATOM      7  C   UNL     1       2.406   0.752  -0.017  0.00  0.00    +0.237 C 
ATOM      8  O   UNL     1       2.201  -0.443  -0.021  0.00  0.00    -0.274 OA
ATOM      9  H   UNL     1       6.135   1.779  -0.047  0.00  0.00    +0.150 HD
ATOM     10  H   UNL     1       3.835   2.174  -0.023  0.00  0.00    +0.159 HD
ENDBRANCH   1   7
BRANCH   1  11
ATOM     11  N   UNL     1      -0.011   0.966   0.007  0.00  0.00    -0.335 N 
ATOM     12  H   UNL     1       0.002  -0.004   0.002  0.00  0.00    +0.147 HD
BRANCH  11  13
ATOM     13  C   UNL     1      -1.230   1.648   0.017  0.00  0.00    +0.028 A 
ATOM     14  C   UNL     1      -1.251   3.037   0.030  0.00  0.00    +0.024 A 
ATOM     15  C   UNL     1      -2.458   3.708   0.035  0.00  0.00    +0.017 A 
ATOM     16  C   UNL     1      -3.646   2.999   0.037  0.00  0.00    +0.018 A 
ATOM     17  C   UNL     1      -3.628   1.615   0.029  0.00  0.00    +0.017 A 
ATOM     18  C   UNL     1      -2.425   0.939   0.019  0.00  0.00    +0.024 A 
ATOM     19 BR   UNL     1      -5.296   3.922   0.050  0.00  0.00    -0.050 Br
ENDBRANCH  11  13
ENDBRANCH   1  11
TORSDOF 3
