REMARK  Name = ZINC00226857
REMARK  5 active torsions:
REMARK  status: ('A' for Active; 'I' for Inactive)
REMARK    1  A    between atoms: C_1  and  C_2
REMARK    2  A    between atoms: C_5  and  C_8
REMARK    3  A    between atoms: C_11  and  C_22
REMARK    4  A    between atoms: C_16  and  C_18
REMARK    5  A    between atoms: C_18  and  O_19
REMARK                            x       y       z     vdW  Elec       q    Type
REMARK                         _______ _______ _______ _____ _____    ______ ____
ROOT
ATOM      1  C   UNL     1       0.059  -4.275  -0.021  0.00  0.00    +0.104 C 
ATOM      2  C   UNL     1       1.488  -4.773   0.228  0.00  0.00    +0.063 C 
ATOM      3  C   UNL     1       1.528  -6.304   0.154  0.00  0.00    +0.215 C 
ATOM      4  N   UNL     1       0.462  -6.847   1.001  0.00  0.00    -0.237 N 
ATOM      5  C   UNL     1      -0.620  -6.126   1.414  0.00  0.00    +0.137 A 
ATOM      6  C   UNL     1      -1.390  -6.933   2.175  0.00  0.00    +0.105 A 
ATOM      7  C   UNL     1      -0.765  -8.186   2.232  0.00  0.00    +0.108 A 
ATOM      8  N   UNL     1       0.341  -8.132   1.528  0.00  0.00    -0.170 NA
ATOM      9 CL   UNL     1      -2.883  -6.497   2.946  0.00  0.00    -0.078 Cl
ATOM     10  N   UNL     1      -0.815  -4.788   1.052  0.00  0.00    -0.321 N 
ATOM     11  H   UNL     1      -1.482  -4.231   1.482  0.00  0.00    +0.148 HD
ENDROOT
BRANCH   1  16
ATOM     12  C   UNL     1      -0.018   1.503   0.010  0.00  0.00    +0.044 C 
ATOM     13  C   UNL     1       0.002  -0.004   0.002  0.00  0.00    -0.050 A 
ATOM     14  C   UNL     1       0.006  -0.689  -1.199  0.00  0.00    +0.004 A 
ATOM     15  C   UNL     1       0.025  -2.071  -1.206  0.00  0.00    +0.006 A 
ATOM     16  C   UNL     1       0.040  -2.768  -0.013  0.00  0.00    -0.027 A 
ATOM     17  C   UNL     1       0.037  -2.084   1.188  0.00  0.00    +0.006 A 
ATOM     18  C   UNL     1       0.023  -0.702   1.195  0.00  0.00    +0.004 A 
ENDBRANCH   1  16
BRANCH   3  19
ATOM     19  C   UNL     1       2.885  -6.805   0.649  0.00  0.00    +0.412 C 
ATOM     20  F   UNL     1       3.078  -6.398   1.974  0.00  0.00    -0.168 F 
ATOM     21  F   UNL     1       2.920  -8.202   0.581  0.00  0.00    -0.168 F 
ATOM     22  F   UNL     1       3.900  -6.274  -0.154  0.00  0.00    -0.168 F 
ENDBRANCH   3  19
BRANCH   7  23
ATOM     23  C   UNL     1      -1.278  -9.393   2.974  0.00  0.00    +0.214 C 
BRANCH  23  24
ATOM     24  O   UNL     1      -2.119 -10.161   2.111  0.00  0.00    -0.389 OA
ATOM     25  H   UNL     1      -2.485 -10.955   2.524  0.00  0.00    +0.210 HD
ENDBRANCH  23  24
ENDBRANCH   7  23
TORSDOF 4
