REMARK  Name = ZINC52842953
REMARK  2 active torsions:
REMARK  status: ('A' for Active; 'I' for Inactive)
REMARK    1  A    between atoms: C_6  and  N_7
REMARK    2  A    between atoms: N_10  and  C_11
REMARK                            x       y       z     vdW  Elec       q    Type
REMARK                         _______ _______ _______ _____ _____    ______ ____
ROOT
ATOM      1  C   UNL     1      -0.017   1.389   0.010  0.00  0.00    +0.025 A 
ATOM      2  C   UNL     1       1.162   2.102   0.002  0.00  0.00    +0.030 A 
ATOM      3  C   UNL     1       2.377   1.432  -0.013  0.00  0.00    +0.074 A 
ATOM      4  C   UNL     1       2.405   0.027  -0.021  0.00  0.00    +0.091 A 
ATOM      5  C   UNL     1       1.204  -0.687  -0.013  0.00  0.00    +0.052 A 
ATOM      6  C   UNL     1       0.002  -0.004   0.002  0.00  0.00    +0.027 A 
ATOM      7  N   UNL     1       3.712  -0.344  -0.035  0.00  0.00    -0.235 NA
ATOM      8  C   UNL     1       4.468   0.715  -0.037  0.00  0.00    +0.205 A 
ATOM      9  N   UNL     1       3.700   1.839  -0.024  0.00  0.00    -0.296 N 
ENDROOT
BRANCH   9  10
ATOM     10  C   UNL     1       4.163   3.164  -0.021  0.00  0.00    +0.086 A 
ATOM     11  C   UNL     1       4.855   3.660  -1.116  0.00  0.00    +0.032 A 
ATOM     12  C   UNL     1       5.311   4.965  -1.113  0.00  0.00    +0.043 A 
ATOM     13  C   UNL     1       5.077   5.779  -0.018  0.00  0.00    +0.161 A 
ATOM     14  C   UNL     1       4.386   5.287   1.079  0.00  0.00    +0.195 A 
ATOM     15  C   UNL     1       3.923   3.982   1.077  0.00  0.00    +0.185 A 
ATOM     16  F   UNL     1       3.244   3.503   2.142  0.00  0.00    -0.200 F 
ATOM     17  F   UNL     1       4.160   6.083   2.147  0.00  0.00    -0.199 F 
ATOM     18  F   UNL     1       5.524   7.054  -0.018  0.00  0.00    -0.202 F 
ENDBRANCH   9  10
BRANCH   6  19
ATOM     19  N   UNL     1      -1.202  -0.716   0.010  0.00  0.00    -0.358 N 
ATOM     20  H   UNL     1      -2.047  -0.240   0.021  0.00  0.00    +0.142 HD
ATOM     21  H   UNL     1      -1.192  -1.686   0.005  0.00  0.00    +0.142 HD
ENDBRANCH   6  19
TORSDOF 2
