REMARK  Name = ZINC44265704
REMARK  5 active torsions:
REMARK  status: ('A' for Active; 'I' for Inactive)
REMARK    1  A    between atoms: C_1  and  C_2
REMARK    2  A    between atoms: C_5  and  N_9
REMARK    3  A    between atoms: N_9  and  N_10
REMARK    4  A    between atoms: C_11  and  C_13
REMARK    5  A    between atoms: C_14  and  C_19
REMARK                            x       y       z     vdW  Elec       q    Type
REMARK                         _______ _______ _______ _____ _____    ______ ____
ROOT
ATOM      1  N   UNL     1       0.073  -4.876   1.187  0.00  0.00    -0.230 N 
ATOM      2  C   UNL     1       0.091  -6.224   1.179  0.00  0.00    +0.296 C 
ATOM      3  O   UNL     1       0.094  -6.826   0.121  0.00  0.00    -0.265 OA
ATOM      4  H   UNL     1       0.071  -4.396   2.030  0.00  0.00    +0.173 HD
ENDROOT
BRANCH   2   5
ATOM      5  C   UNL     1       0.107  -6.964   2.443  0.00  0.00    +0.195 A 
ATOM      6  C   UNL     1       0.131  -8.323   2.577  0.00  0.00    +0.001 A 
ATOM      7  C   UNL     1       0.140  -8.593   3.954  0.00  0.00    +0.061 A 
ATOM      8  C   UNL     1       0.121  -7.401   4.593  0.00  0.00    +0.171 A 
ATOM      9  O   UNL     1       0.107  -6.422   3.679  0.00  0.00    -0.443 OA
ATOM     10 BR   UNL     1       0.121  -7.158   6.469  0.00  0.00    -0.008 Br
ATOM     11  C   UNL     1       0.146  -9.337   1.462  0.00  0.00    +0.048 C 
ENDBRANCH   2   5
BRANCH   1  12
ATOM     12  N   UNL     1       0.058  -4.168  -0.022  0.00  0.00    -0.264 N 
ATOM     13  H   UNL     1       0.060  -4.648  -0.865  0.00  0.00    +0.170 HD
BRANCH  12  18
ATOM     14  C   UNL     1      -0.018   1.503   0.010  0.00  0.00    +0.045 C 
ATOM     15  C   UNL     1       0.002  -0.004   0.002  0.00  0.00    -0.032 A 
ATOM     16  C   UNL     1       0.006  -0.688  -1.200  0.00  0.00    +0.006 A 
ATOM     17  C   UNL     1       0.024  -2.068  -1.212  0.00  0.00    +0.025 A 
ATOM     18  C   UNL     1       0.040  -2.772  -0.013  0.00  0.00    +0.046 A 
ATOM     19  C   UNL     1       0.036  -2.083   1.193  0.00  0.00    +0.044 A 
ATOM     20  C   UNL     1       0.023  -0.701   1.197  0.00  0.00    +0.046 A 
ATOM     21 CL   UNL     1       0.026   0.161   2.704  0.00  0.00    -0.083 Cl
ENDBRANCH  12  18
ENDBRANCH   1  12
TORSDOF 3
