REMARK  Name = ZINC27936520
REMARK  9 active torsions:
REMARK  status: ('A' for Active; 'I' for Inactive)
REMARK    1  A    between atoms: C_1  and  C_2
REMARK    2  A    between atoms: C_4  and  C_24
REMARK    3  A    between atoms: N_6  and  C_7
REMARK    4  A    between atoms: C_7  and  C_9
REMARK    5  A    between atoms: C_7  and  C_10
REMARK    6  A    between atoms: N_12  and  C_13
REMARK    7  A    between atoms: C_13  and  C_14
REMARK    8  A    between atoms: C_17  and  S_20
REMARK    9  A    between atoms: S_20  and  N_23
REMARK                            x       y       z     vdW  Elec       q    Type
REMARK                         _______ _______ _______ _____ _____    ______ ____
ROOT
ATOM      1  C   UNL     1       1.141   5.397   1.647  0.00  0.00    +0.238 C 
ATOM      2  O   UNL     1       1.122   6.190   0.729  0.00  0.00    -0.273 OA
ATOM      3  N   UNL     1       1.157   4.074   1.394  0.00  0.00    -0.309 N 
ATOM      4  H   UNL     1       1.174   3.355   2.226  0.00  0.00    +0.149 HD
ENDROOT
BRANCH   1   5
ATOM      5  C   UNL     1       1.148   5.892   3.070  0.00  0.00    +0.190 C 
ATOM      6  C   UNL     1       2.410   5.396   3.777  0.00  0.00    +0.042 C 
BRANCH   5  12
ATOM      7  C   UNL     1      -1.053   7.654   4.362  0.00  0.00    +0.066 C 
ATOM      8  C   UNL     1       0.177   8.136   3.636  0.00  0.00    +0.051 A 
ATOM      9  C   UNL     1       0.526   9.427   3.428  0.00  0.00    +0.070 A 
ATOM     10  C   UNL     1       1.731   9.437   2.717  0.00  0.00    +0.179 A 
ATOM     11  N   UNL     1       2.095   8.197   2.512  0.00  0.00    -0.165 NA
ATOM     12  N   UNL     1       1.128   7.357   3.078  0.00  0.00    -0.255 N 
ATOM     13 BR   UNL     1      -0.444  10.947   3.997  0.00  0.00    -0.046 Br
BRANCH  10  14
ATOM     14  C   UNL     1       2.482  10.665   2.270  0.00  0.00    +0.437 C 
ATOM     15  F   UNL     1       3.385  11.048   3.268  0.00  0.00    -0.164 F 
ATOM     16  F   UNL     1       3.183  10.380   1.093  0.00  0.00    -0.164 F 
ATOM     17  F   UNL     1       1.578  11.706   2.035  0.00  0.00    -0.164 F 
ENDBRANCH  10  14
ENDBRANCH   5  12
ENDBRANCH   1   5
BRANCH   3  18
ATOM     18  C   UNL     1       1.151   3.592   0.010  0.00  0.00    +0.139 C 
BRANCH  18  19
ATOM     19  C   UNL     1       1.171   2.086   0.002  0.00  0.00    -0.030 A 
ATOM     20  C   UNL     1      -0.017   1.378   0.010  0.00  0.00    +0.007 A 
ATOM     21  C   UNL     1       0.002  -0.004   0.002  0.00  0.00    +0.029 A 
ATOM     22  C   UNL     1       1.208  -0.679  -0.013  0.00  0.00    +0.105 A 
ATOM     23  C   UNL     1       2.396   0.029  -0.021  0.00  0.00    +0.029 A 
ATOM     24  C   UNL     1       2.377   1.411  -0.015  0.00  0.00    +0.007 A 
BRANCH  22  25
ATOM     25  S   UNL     1       1.232  -2.441  -0.022  0.00  0.00    +0.056 S 
ATOM     26  O   UNL     1       2.489  -2.832   0.515  0.00  0.00    -0.153 OA
ATOM     27  O   UNL     1      -0.002  -2.866   0.539  0.00  0.00    -0.153 OA
BRANCH  25  28
ATOM     28  N   UNL     1       1.223  -2.923  -1.606  0.00  0.00    -0.204 NA
ATOM     29  H   UNL     1       1.238  -4.022  -1.655  0.00  0.00    +0.144 HD
ATOM     30  H   UNL     1       2.111  -2.521  -2.116  0.00  0.00    +0.144 HD
ENDBRANCH  25  28
ENDBRANCH  22  25
ENDBRANCH  18  19
ENDBRANCH   3  18
TORSDOF 7
