REMARK  Name = ZINC12730998
REMARK  7 active torsions:
REMARK  status: ('A' for Active; 'I' for Inactive)
REMARK    1  A    between atoms: C_1  and  C_2
REMARK    2  A    between atoms: C_2  and  N_49
REMARK    3  A    between atoms: C_3  and  C_4
REMARK    4  A    between atoms: C_3  and  N_49
REMARK    5  A    between atoms: C_13  and  S_15
REMARK    6  A    between atoms: S_15  and  N_18
REMARK    7  A    between atoms: C_19  and  N_49
REMARK                            x       y       z     vdW  Elec       q    Type
REMARK                         _______ _______ _______ _____ _____    ______ ____
ROOT
ATOM      1  C   UNL     1      -1.211   6.556  -4.878  0.00  0.00    +0.203 C 
ATOM      2  O   UNL     1      -0.793   7.457  -4.181  0.00  0.00    -0.277 OA
ATOM      3  N   UNL     1      -1.489   5.355  -4.334  0.00  0.00    -0.272 N 
ATOM      4  C   UNL     1      -1.997   4.196  -5.071  0.00  0.00    +0.118 C 
ATOM      5  C   UNL     1      -2.150   3.085  -4.020  0.00  0.00    +0.056 C 
ATOM      6  C   UNL     1      -1.701   3.722  -2.724  0.00  0.00    -0.023 A 
ATOM      7  C   UNL     1      -1.334   5.033  -2.982  0.00  0.00    +0.040 A 
ATOM      8  C   UNL     1      -0.880   5.829  -1.929  0.00  0.00    +0.026 A 
ATOM      9  C   UNL     1      -0.807   5.316  -0.651  0.00  0.00    +0.030 A 
ATOM     10  C   UNL     1      -1.170   4.005  -0.405  0.00  0.00    +0.105 A 
ATOM     11  C   UNL     1      -1.620   3.210  -1.444  0.00  0.00    +0.034 A 
ENDROOT
BRANCH  10  12
ATOM     12  S   UNL     1      -1.068   3.351   1.228  0.00  0.00    +0.056 S 
ATOM     13  O   UNL     1      -1.987   2.269   1.290  0.00  0.00    -0.153 OA
ATOM     14  O   UNL     1      -1.134   4.460   2.114  0.00  0.00    -0.153 OA
BRANCH  12  15
ATOM     15  N   UNL     1       0.445   2.698   1.399  0.00  0.00    -0.204 NA
ATOM     16  H   UNL     1       0.545   1.755   1.603  0.00  0.00    +0.144 HD
ATOM     17  H   UNL     1       1.230   3.258   1.292  0.00  0.00    +0.144 HD
ENDBRANCH  12  15
ENDBRANCH  10  12
BRANCH   1  18
ATOM     18  C   UNL     1      -1.419   6.781  -6.354  0.00  0.00    +0.020 C 
BRANCH  18  19
ATOM     19  N   UNL     1      -1.020   8.165  -6.687  0.00  0.00    +0.388 N 
ATOM     20  H   UNL     1      -0.076   8.336  -6.322  0.00  0.00    -0.081 HD
BRANCH  19  21
ATOM     21  C   UNL     1      -1.009   8.348  -8.153  0.00  0.00    -0.045 C 
ATOM     22  C   UNL     1       0.069   7.440  -8.767  0.00  0.00    +0.009 C 
ATOM     23  C   UNL     1       0.338   7.856 -10.233  0.00  0.00    +0.164 C 
ATOM     24  S   UNL     1      -0.073   9.649 -10.226  0.00  0.00    -0.033 S 
ATOM     25  O   UNL     1      -1.173   9.875 -11.097  0.00  0.00    -0.174 OA
ATOM     26  O   UNL     1       1.122  10.398 -10.398  0.00  0.00    -0.174 OA
ATOM     27  C   UNL     1      -0.644   9.824  -8.483  0.00  0.00    +0.151 C 
ENDBRANCH  19  21
BRANCH  19  29
ATOM     28  C   UNL     1      -3.379   8.897  -6.581  0.00  0.00    -0.017 C 
ATOM     29  C   UNL     1      -1.957   9.124  -6.064  0.00  0.00    -0.081 C 
ENDBRANCH  19  29
ENDBRANCH  18  19
ENDBRANCH   1  18
TORSDOF 6
