REMARK  Name = ZINC37365535
REMARK  2 active torsions:
REMARK  status: ('A' for Active; 'I' for Inactive)
REMARK    1  A    between atoms: C_8  and  N_19
REMARK    2  A    between atoms: N_9  and  C_12
REMARK                            x       y       z     vdW  Elec       q    Type
REMARK                         _______ _______ _______ _____ _____    ______ ____
ROOT
ATOM      1  C   UNL     1      -0.172   1.182  -0.384  0.00  0.00    +0.001 A 
ATOM      2  C   UNL     1       0.917   1.865  -0.914  0.00  0.00    +0.001 A 
ATOM      3  C   UNL     1       2.150   1.278  -0.975  0.00  0.00    +0.014 A 
ATOM      4  C   UNL     1       2.318  -0.024  -0.499  0.00  0.00    +0.047 A 
ATOM      5  C   UNL     1       1.210  -0.720   0.041  0.00  0.00    -0.010 A 
ATOM      6  C   UNL     1      -0.040  -0.092   0.090  0.00  0.00    +0.009 A 
ATOM      7  C   UNL     1       1.400  -2.039   0.518  0.00  0.00    +0.050 A 
ATOM      8  C   UNL     1       2.625  -2.612   0.454  0.00  0.00    +0.104 A 
ATOM      9  N   UNL     1       3.712  -1.958  -0.064  0.00  0.00    -0.265 N 
ATOM     10  C   UNL     1       3.617  -0.699  -0.541  0.00  0.00    +0.265 A 
ATOM     11  O   UNL     1       4.595  -0.135  -0.998  0.00  0.00    -0.267 OA
ENDROOT
BRANCH   9  12
ATOM     12  C   UNL     1       4.951  -2.611  -0.100  0.00  0.00    +0.051 A 
ATOM     13  C   UNL     1       5.311  -3.358  -1.214  0.00  0.00    +0.027 A 
ATOM     14  C   UNL     1       6.534  -4.000  -1.247  0.00  0.00    +0.016 A 
ATOM     15  C   UNL     1       7.398  -3.901  -0.171  0.00  0.00    +0.014 A 
ATOM     16  C   UNL     1       7.041  -3.158   0.940  0.00  0.00    +0.016 A 
ATOM     17  C   UNL     1       5.823  -2.508   0.976  0.00  0.00    +0.027 A 
ATOM     18  I   UNL     1       9.250  -4.878  -0.225  0.00  0.00    -0.044 I 
ENDBRANCH   9  12
BRANCH   8  19
ATOM     19  N   UNL     1       2.785  -3.901   0.928  0.00  0.00    -0.344 N 
ATOM     20  H   UNL     1       2.049  -4.348   1.374  0.00  0.00    +0.144 HD
ATOM     21  H   UNL     1       3.633  -4.358   0.814  0.00  0.00    +0.144 HD
ENDBRANCH   8  19
TORSDOF 2
