REMARK  Name = ZINC48732998
REMARK  10 active torsions:
REMARK  status: ('A' for Active; 'I' for Inactive)
REMARK    1  A    between atoms: C_1  and  N_2
REMARK    2  A    between atoms: N_2  and  C_3
REMARK    3  A    between atoms: N_2  and  C_4
REMARK    4  A    between atoms: C_4  and  C_6
REMARK    5  A    between atoms: C_4  and  C_23
REMARK    6  A    between atoms: C_6  and  N_7
REMARK    7  A    between atoms: C_8  and  C_10
REMARK    8  A    between atoms: N_12  and  C_13
REMARK    9  A    between atoms: C_16  and  S_19
REMARK   10  A    between atoms: S_19  and  C_22
REMARK                            x       y       z     vdW  Elec       q    Type
REMARK                         _______ _______ _______ _____ _____    ______ ____
ROOT
ATOM      1  N   UNL     1      -1.679   1.294  -1.418  0.00  0.00    -0.309 N 
ATOM      2  C   UNL     1      -2.063   1.919  -2.549  0.00  0.00    +0.299 C 
ATOM      3  O   UNL     1      -2.638   1.299  -3.419  0.00  0.00    -0.265 OA
ATOM      4  H   UNL     1      -1.219   1.789  -0.723  0.00  0.00    +0.149 HD
ENDROOT
BRANCH   2   5
ATOM      5  C   UNL     1      -1.780   3.374  -2.731  0.00  0.00    +0.303 C 
ATOM      6  O   UNL     1      -1.204   3.994  -1.860  0.00  0.00    -0.265 OA
ATOM      7  N   UNL     1      -2.163   3.999  -3.862  0.00  0.00    -0.278 N 
ATOM      8  H   UNL     1      -2.689   3.524  -4.524  0.00  0.00    +0.155 HD
BRANCH   7   9
ATOM      9  C   UNL     1      -1.804   5.331  -4.080  0.00  0.00    +0.034 A 
ATOM     10  C   UNL     1      -2.672   6.186  -4.748  0.00  0.00    +0.025 A 
ATOM     11  C   UNL     1      -2.314   7.503  -4.962  0.00  0.00    +0.029 A 
ATOM     12  C   UNL     1      -1.093   7.970  -4.512  0.00  0.00    +0.088 A 
ATOM     13  C   UNL     1      -0.226   7.122  -3.847  0.00  0.00    +0.029 A 
ATOM     14  C   UNL     1      -0.581   5.806  -3.624  0.00  0.00    +0.025 A 
BRANCH  12  15
ATOM     15  S   UNL     1      -0.640   9.651  -4.787  0.00  0.00    -0.006 S 
ATOM     16  O   UNL     1       0.781   9.647  -4.794  0.00  0.00    -0.170 OA
ATOM     17  O   UNL     1      -1.369  10.038  -5.943  0.00  0.00    -0.170 OA
ATOM     18  C   UNL     1      -1.254  10.543  -3.332  0.00  0.00    +0.200 C 
ENDBRANCH  12  15
ENDBRANCH   7   9
ENDBRANCH   2   5
BRANCH   1  19
ATOM     19  C   UNL     1      -1.957  -0.134  -1.240  0.00  0.00    +0.097 C 
BRANCH  19  20
ATOM     20  C   UNL     1      -1.314  -0.620   0.061  0.00  0.00    +0.016 C 
BRANCH  20  21
ATOM     21  C   UNL     1       0.185  -0.502  -0.045  0.00  0.00    +0.093 A 
ATOM     22  C   UNL     1       1.035  -1.505  -0.328  0.00  0.00    +0.043 A 
ATOM     23  C   UNL     1       2.336  -0.952  -0.326  0.00  0.00    +0.041 A 
ATOM     24  C   UNL     1       2.204   0.356  -0.043  0.00  0.00    +0.195 A 
ATOM     25  O   UNL     1       0.898   0.625   0.121  0.00  0.00    -0.469 OA
ENDBRANCH  20  21
BRANCH  20  27
ATOM     26  C   UNL     1      -3.237   0.004   1.351  0.00  0.00    -0.096 C 
ATOM     27  N   UNL     1      -1.792   0.203   1.180  0.00  0.00    +0.384 N 
ATOM     28  C   UNL     1      -1.094  -0.193   2.411  0.00  0.00    -0.096 C 
ATOM     29  H   UNL     1      -1.607   1.175   0.987  0.00  0.00    -0.082 HD
ENDBRANCH  20  27
ENDBRANCH  19  20
ENDBRANCH   1  19
TORSDOF 7
