REMARK  Name = ZINC40140280
REMARK  6 active torsions:
REMARK  status: ('A' for Active; 'I' for Inactive)
REMARK    1  A    between atoms: C_1  and  C_2
REMARK    2  A    between atoms: C_5  and  O_9
REMARK    3  A    between atoms: O_9  and  C_10
REMARK    4  A    between atoms: C_10  and  C_12
REMARK    5  A    between atoms: C_10  and  C_13
REMARK    6  A    between atoms: N_15  and  C_16
REMARK                            x       y       z     vdW  Elec       q    Type
REMARK                         _______ _______ _______ _____ _____    ______ ____
ROOT
ATOM      1  C   UNL     1      -0.703  -6.145  -1.119  0.00  0.00    +0.258 C 
ATOM      2  O   UNL     1      -1.004  -6.562  -0.020  0.00  0.00    -0.271 OA
ATOM      3  N   UNL     1      -1.071  -6.827  -2.222  0.00  0.00    -0.282 N 
ATOM      4  H   UNL     1      -0.769  -6.534  -3.096  0.00  0.00    +0.155 HD
ENDROOT
BRANCH   3   5
ATOM      5  C   UNL     1      -1.891  -7.957  -2.106  0.00  0.00    +0.036 A 
ATOM      6  C   UNL     1      -1.733  -9.021  -2.987  0.00  0.00    +0.025 A 
ATOM      7  C   UNL     1      -2.537 -10.138  -2.878  0.00  0.00    +0.029 A 
ATOM      8  C   UNL     1      -3.506 -10.199  -1.887  0.00  0.00    +0.067 A 
ATOM      9  C   UNL     1      -3.666  -9.132  -1.001  0.00  0.00    +0.069 A 
ATOM     10  C   UNL     1      -2.853  -8.015  -1.109  0.00  0.00    +0.051 A 
ATOM     11  N   UNL     1      -4.699  -9.481  -0.134  0.00  0.00    -0.306 N 
ATOM     12  H   UNL     1      -5.038  -8.935   0.593  0.00  0.00    +0.170 HD
ATOM     13  C   UNL     1      -5.146 -10.704  -0.475  0.00  0.00    +0.325 A 
ATOM     14  O   UNL     1      -6.046 -11.302   0.084  0.00  0.00    -0.247 OA
ATOM     15  N   UNL     1      -4.447 -11.164  -1.530  0.00  0.00    -0.306 N 
ATOM     16  H   UNL     1      -4.576 -12.021  -1.966  0.00  0.00    +0.170 HD
ENDBRANCH   3   5
BRANCH   1  17
ATOM     17  C   UNL     1       0.083  -4.866  -1.251  0.00  0.00    +0.256 C 
ATOM     18  C   UNL     1       1.404  -5.151  -1.968  0.00  0.00    +0.062 C 
BRANCH  17  19
ATOM     19  O   UNL     1       0.351  -4.336   0.049  0.00  0.00    -0.479 OA
BRANCH  19  24
ATOM     20  C   UNL     1       1.230   1.217   0.412  0.00  0.00    +0.044 C 
ATOM     21  C   UNL     1       0.995  -0.269   0.316  0.00  0.00    -0.049 A 
ATOM     22  C   UNL     1       0.847  -0.865  -0.923  0.00  0.00    +0.007 A 
ATOM     23  C   UNL     1       0.632  -2.226  -1.015  0.00  0.00    +0.047 A 
ATOM     24  C   UNL     1       0.563  -2.996   0.137  0.00  0.00    +0.136 A 
ATOM     25  C   UNL     1       0.712  -2.396   1.379  0.00  0.00    +0.060 A 
ATOM     26  C   UNL     1       0.933  -1.034   1.465  0.00  0.00    +0.022 A 
ATOM     27 BR   UNL     1       0.619  -3.441   2.952  0.00  0.00    -0.047 Br
ENDBRANCH  19  24
ENDBRANCH  17  19
ENDBRANCH   1  17
TORSDOF 4
