REMARK  Name = ZINC39676539
REMARK  10 active torsions:
REMARK  status: ('A' for Active; 'I' for Inactive)
REMARK    1  A    between atoms: C_1  and  C_2
REMARK    2  A    between atoms: C_5  and  C_8
REMARK    3  A    between atoms: C_12  and  C_21
REMARK    4  A    between atoms: N_23  and  C_24
REMARK    5  A    between atoms: C_24  and  C_25
REMARK    6  A    between atoms: C_24  and  C_33
REMARK    7  A    between atoms: C_28  and  O_31
REMARK    8  A    between atoms: O_31  and  C_32
REMARK    9  A    between atoms: C_36  and  O_39
REMARK   10  A    between atoms: O_39  and  C_40
REMARK                            x       y       z     vdW  Elec       q    Type
REMARK                         _______ _______ _______ _____ _____    ______ ____
ROOT
ATOM      1  C   UNL     1       0.054  -4.266  -0.028  0.00  0.00    +0.247 C 
ATOM      2  O   UNL     1       0.104  -3.051  -0.026  0.00  0.00    -0.270 OA
ATOM      3  N   UNL     1      -0.031  -4.938   1.137  0.00  0.00    -0.296 N 
ATOM      4  C   UNL     1      -0.155  -4.377   2.503  0.00  0.00    +0.121 C 
ATOM      5  C   UNL     1      -1.149  -5.316   3.222  0.00  0.00    +0.100 C 
ATOM      6  C   UNL     1      -1.056  -6.647   2.456  0.00  0.00    -0.004 C 
ATOM      7  C   UNL     1      -0.029  -6.407   1.341  0.00  0.00    +0.115 C 
ATOM      8  C   UNL     1      -0.579  -7.759   3.385  0.00  0.00    -0.010 C 
ATOM      9  C   UNL     1      -0.550  -9.083   2.617  0.00  0.00    -0.082 C 
ATOM     10  N   UNL     1      -1.893  -9.385   2.109  0.00  0.00    +0.379 N 
ATOM     11  C   UNL     1      -2.307  -8.359   1.144  0.00  0.00    -0.082 C 
ATOM     12  C   UNL     1      -2.410  -7.004   1.851  0.00  0.00    -0.010 C 
ATOM     13  H   UNL     1      -1.885 -10.287   1.655  0.00  0.00    -0.086 HD
ATOM     14  H   UNL     1      -2.546  -9.405   2.878  0.00  0.00    -0.086 HD
ENDROOT
BRANCH   1  19
ATOM     15  C   UNL     1       0.179  -7.145  -5.009  0.00  0.00    +0.044 C 
ATOM     16  C   UNL     1       0.146  -6.391  -3.705  0.00  0.00    -0.050 A 
ATOM     17  C   UNL     1       0.744  -6.933  -2.581  0.00  0.00    +0.004 A 
ATOM     18  C   UNL     1       0.717  -6.248  -1.384  0.00  0.00    +0.013 A 
ATOM     19  C   UNL     1       0.086  -5.005  -1.308  0.00  0.00    +0.037 A 
ATOM     20  C   UNL     1      -0.515  -4.464  -2.446  0.00  0.00    +0.013 A 
ATOM     21  C   UNL     1      -0.476  -5.157  -3.638  0.00  0.00    +0.004 A 
ENDBRANCH   1  19
BRANCH   5  22
ATOM     22  C   UNL     1      -2.548  -4.760   3.143  0.00  0.00    +0.219 C 
ATOM     23  O   UNL     1      -2.905  -4.155   2.154  0.00  0.00    -0.275 OA
ATOM     24  N   UNL     1      -3.401  -4.934   4.171  0.00  0.00    -0.304 N 
ATOM     25  H   UNL     1      -3.116  -5.418   4.962  0.00  0.00    +0.150 HD
BRANCH  24  26
ATOM     26  C   UNL     1      -4.761  -4.393   4.095  0.00  0.00    +0.134 C 
BRANCH  26  27
ATOM     27  C   UNL     1      -5.669  -5.189   4.996  0.00  0.00    -0.023 A 
ATOM     28  C   UNL     1      -5.222  -5.599   6.238  0.00  0.00    +0.009 A 
ATOM     29  C   UNL     1      -6.053  -6.329   7.066  0.00  0.00    +0.046 A 
ATOM     30  C   UNL     1      -7.337  -6.649   6.651  0.00  0.00    +0.120 A 
ATOM     31  C   UNL     1      -7.784  -6.235   5.405  0.00  0.00    +0.046 A 
ATOM     32  C   UNL     1      -6.951  -5.501   4.582  0.00  0.00    +0.009 A 
BRANCH  30  33
ATOM     33  O   UNL     1      -8.156  -7.367   7.464  0.00  0.00    -0.495 OA
ATOM     34  C   UNL     1      -9.465  -7.660   6.971  0.00  0.00    +0.277 C 
ENDBRANCH  30  33
ENDBRANCH  26  27
BRANCH  26  35
ATOM     35  C   UNL     1      -4.753  -2.952   4.534  0.00  0.00    -0.023 A 
ATOM     36  C   UNL     1      -3.970  -2.560   5.604  0.00  0.00    +0.009 A 
ATOM     37  C   UNL     1      -3.961  -1.240   6.009  0.00  0.00    +0.046 A 
ATOM     38  C   UNL     1      -4.740  -0.306   5.341  0.00  0.00    +0.120 A 
ATOM     39  C   UNL     1      -5.525  -0.701   4.268  0.00  0.00    +0.046 A 
ATOM     40  C   UNL     1      -5.526  -2.022   3.863  0.00  0.00    +0.009 A 
BRANCH  38  41
ATOM     41  O   UNL     1      -4.734   0.994   5.738  0.00  0.00    -0.495 OA
ATOM     42  C   UNL     1      -5.560   1.900   5.004  0.00  0.00    +0.277 C 
ENDBRANCH  38  41
ENDBRANCH  26  35
ENDBRANCH  24  26
ENDBRANCH   5  22
TORSDOF 7
