REMARK  Name = ZINC12402243
REMARK  7 active torsions:
REMARK  status: ('A' for Active; 'I' for Inactive)
REMARK    1  A    between atoms: C_1  and  C_2
REMARK    2  A    between atoms: C_2  and  C_36
REMARK    3  A    between atoms: N_16  and  C_19
REMARK    4  A    between atoms: C_20  and  C_34
REMARK    5  A    between atoms: C_21  and  N_33
REMARK    6  A    between atoms: N_22  and  C_23
REMARK    7  A    between atoms: C_26  and  C_29
REMARK                            x       y       z     vdW  Elec       q    Type
REMARK                         _______ _______ _______ _____ _____    ______ ____
ROOT
ATOM      1  C   UNL     1      -5.775   6.472  -1.670  0.00  0.00    +0.011 C 
ATOM      2  C   UNL     1      -5.641   5.381  -2.734  0.00  0.00    -0.023 C 
ATOM      3  C   UNL     1      -5.763   4.004  -2.077  0.00  0.00    +0.058 C 
ATOM      4  C   UNL     1      -4.653   3.822  -1.071  0.00  0.00    +0.026 C 
ATOM      5  C   UNL     1      -3.450   4.409  -1.251  0.00  0.00    +0.037 C 
ATOM      6  C   UNL     1      -3.200   5.223  -2.370  0.00  0.00    +0.163 C 
ATOM      7  O   UNL     1      -2.104   5.729  -2.506  0.00  0.00    -0.292 OA
ATOM      8  C   UNL     1      -4.265   5.479  -3.401  0.00  0.00    +0.086 C 
ATOM      9  C   UNL     1      -2.338   4.208  -0.255  0.00  0.00    +0.141 C 
ATOM     10  C   UNL     1      -1.293   3.291  -0.812  0.00  0.00    -0.001 A 
ATOM     11  C   UNL     1      -1.355   1.972  -1.207  0.00  0.00    +0.007 A 
ATOM     12  C   UNL     1      -0.180   1.401  -1.685  0.00  0.00    +0.000 A 
ATOM     13  C   UNL     1       0.989   2.129  -1.771  0.00  0.00    +0.002 A 
ATOM     14  C   UNL     1       1.057   3.457  -1.381  0.00  0.00    +0.024 A 
ATOM     15  C   UNL     1      -0.114   4.040  -0.893  0.00  0.00    +0.041 A 
ATOM     16  N   UNL     1      -0.331   5.329  -0.439  0.00  0.00    -0.273 N 
ATOM     17  C   UNL     1      -1.606   5.518  -0.044  0.00  0.00    +0.240 C 
ATOM     18  O   UNL     1      -2.078   6.545   0.398  0.00  0.00    -0.274 OA
ATOM     19  C   UNL     1       0.704   6.365  -0.394  0.00  0.00    +0.138 C 
ATOM     20  C   UNL     1      -2.857   3.696   1.055  0.00  0.00    +0.089 C 
ATOM     21  C   UNL     1      -4.094   3.140   1.147  0.00  0.00    +0.108 C 
ATOM     22  N   UNL     1      -4.893   3.043   0.030  0.00  0.00    -0.260 N 
ATOM     23  C   UNL     1      -6.736   5.552  -3.788  0.00  0.00    +0.011 C 
ENDROOT
BRANCH  22  24
ATOM     24  C   UNL     1      -5.961   2.140   0.020  0.00  0.00    +0.040 A 
ATOM     25  C   UNL     1      -5.787   0.861  -0.494  0.00  0.00    +0.024 A 
ATOM     26  C   UNL     1      -6.842  -0.030  -0.499  0.00  0.00    +0.014 A 
ATOM     27  C   UNL     1      -8.075   0.353  -0.002  0.00  0.00    +0.055 A 
ATOM     28  C   UNL     1      -8.253   1.627   0.505  0.00  0.00    +0.014 A 
ATOM     29  C   UNL     1      -7.200   2.521   0.518  0.00  0.00    +0.024 A 
BRANCH  27  30
ATOM     30  C   UNL     1      -9.226  -0.619  -0.015  0.00  0.00    +0.417 C 
ATOM     31  F   UNL     1      -9.931  -0.491  -1.217  0.00  0.00    -0.166 F 
ATOM     32  F   UNL     1      -8.735  -1.924   0.101  0.00  0.00    -0.166 F 
ATOM     33  F   UNL     1     -10.080  -0.345   1.058  0.00  0.00    -0.166 F 
ENDBRANCH  27  30
ENDBRANCH  22  24
BRANCH  21  34
ATOM     34  N   UNL     1      -4.548   2.672   2.357  0.00  0.00    -0.345 N 
ATOM     35  H   UNL     1      -3.955   2.659   3.125  0.00  0.00    +0.144 HD
ATOM     36  H   UNL     1      -5.460   2.356   2.443  0.00  0.00    +0.144 HD
ENDBRANCH  21  34
BRANCH  20  37
ATOM     37  C   UNL     1      -2.039   3.795   2.226  0.00  0.00    +0.100 C 
ATOM     38  N   UNL     1      -1.390   3.873   3.155  0.00  0.00    -0.191 NA
ENDBRANCH  20  37
TORSDOF 4
