REMARK  Name = ZINC00386496
REMARK  3 active torsions:
REMARK  status: ('A' for Active; 'I' for Inactive)
REMARK    1  A    between atoms: C_7  and  C_11
REMARK    2  A    between atoms: C_11  and  C_12
REMARK    3  A    between atoms: N_16  and  C_20
REMARK                            x       y       z     vdW  Elec       q    Type
REMARK                         _______ _______ _______ _____ _____    ______ ____
ROOT
ATOM      1  C   UNL     1      -1.235   2.108  -0.010  0.00  0.00    +0.163 C 
ATOM      2  C   UNL     1      -0.015   1.210  -0.041  0.00  0.00    +0.246 C 
ATOM      3  O   UNL     1       0.002  -0.002  -0.098  0.00  0.00    -0.273 OA
ATOM      4  N   UNL     1       1.048   2.037   0.003  0.00  0.00    -0.220 N 
ATOM      5  C   UNL     1       0.673   3.320   0.062  0.00  0.00    +0.144 C 
ATOM      6  S   UNL     1       1.772   4.631   0.128  0.00  0.00    -0.018 S 
ATOM      7  N   UNL     1      -0.664   3.465   0.062  0.00  0.00    -0.314 N 
ATOM      8  H   UNL     1      -1.157   4.299   0.099  0.00  0.00    +0.149 HD
ENDROOT
BRANCH   4   9
ATOM      9  C   UNL     1       2.383   1.606  -0.011  0.00  0.00    +0.043 A 
ATOM     10  C   UNL     1       2.900   0.909   1.073  0.00  0.00    +0.027 A 
ATOM     11  C   UNL     1       4.213   0.482   1.056  0.00  0.00    +0.040 A 
ATOM     12  C   UNL     1       5.017   0.756  -0.037  0.00  0.00    +0.124 A 
ATOM     13  C   UNL     1       4.505   1.456  -1.117  0.00  0.00    +0.040 A 
ATOM     14  C   UNL     1       3.191   1.881  -1.106  0.00  0.00    +0.027 A 
ATOM     15  F   UNL     1       6.303   0.342  -0.050  0.00  0.00    -0.205 F 
ENDBRANCH   4   9
BRANCH   1  16
ATOM     16  C   UNL     1      -2.062   1.937  -1.285  0.00  0.00    +0.069 C 
BRANCH  16  23
ATOM     17  C   UNL     1      -3.087   6.425  -2.170  0.00  0.00    +0.001 A 
ATOM     18  C   UNL     1      -4.416   6.736  -1.918  0.00  0.00    +0.002 A 
ATOM     19  C   UNL     1      -5.287   5.774  -1.456  0.00  0.00    +0.026 A 
ATOM     20  C   UNL     1      -4.833   4.477  -1.240  0.00  0.00    +0.047 A 
ATOM     21  C   UNL     1      -3.484   4.168  -1.491  0.00  0.00    +0.003 A 
ATOM     22  C   UNL     1      -2.619   5.157  -1.965  0.00  0.00    +0.010 A 
ATOM     23  C   UNL     1      -3.329   2.746  -1.175  0.00  0.00    -0.020 A 
ATOM     24  C   UNL     1      -4.527   2.303  -0.763  0.00  0.00    +0.087 A 
ATOM     25  N   UNL     1      -5.438   3.323  -0.795  0.00  0.00    -0.360 N 
ATOM     26  H   UNL     1      -6.371   3.245  -0.542  0.00  0.00    +0.165 HD
ENDBRANCH  16  23
ENDBRANCH   1  16
TORSDOF 3
