REMARK  Name = ZINC20745768
REMARK  6 active torsions:
REMARK  status: ('A' for Active; 'I' for Inactive)
REMARK    1  A    between atoms: C_1  and  C_2
REMARK    2  A    between atoms: C_2  and  C_3
REMARK    3  A    between atoms: C_2  and  C_4
REMARK    4  A    between atoms: C_4  and  N_5
REMARK    5  A    between atoms: C_16  and  O_30
REMARK    6  A    between atoms: N_22  and  C_23
REMARK                            x       y       z     vdW  Elec       q    Type
REMARK                         _______ _______ _______ _____ _____    ______ ____
ROOT
ATOM      1  N   UNL     1      -2.105  -0.148  -1.230  0.00  0.00    -0.270 N 
ATOM      2  C   UNL     1      -2.811   1.031  -1.395  0.00  0.00    +0.041 A 
ATOM      3  C   UNL     1      -3.036   2.063  -0.483  0.00  0.00    +0.024 A 
ATOM      4  C   UNL     1      -3.788   3.142  -0.920  0.00  0.00    +0.002 A 
ATOM      5  C   UNL     1      -4.298   3.207  -2.201  0.00  0.00    +0.000 A 
ATOM      6  C   UNL     1      -4.081   2.185  -3.119  0.00  0.00    +0.007 A 
ATOM      7  C   UNL     1      -3.334   1.108  -2.692  0.00  0.00    -0.006 A 
ATOM      8  C   UNL     1      -2.908  -0.144  -3.388  0.00  0.00    +0.112 C 
ATOM      9  C   UNL     1      -2.105  -0.899  -2.353  0.00  0.00    +0.235 C 
ATOM     10  O   UNL     1      -1.564  -1.974  -2.502  0.00  0.00    -0.274 OA
ATOM     11  C   UNL     1      -4.114  -0.971  -3.834  0.00  0.00    +0.121 C 
ATOM     12  C   UNL     1      -4.672  -0.471  -5.135  0.00  0.00    +0.191 C 
ATOM     13  N   UNL     1      -3.947   0.068  -6.069  0.00  0.00    -0.197 NA
ATOM     14  C   UNL     1      -2.611   0.246  -5.863  0.00  0.00    +0.164 A 
ATOM     15  C   UNL     1      -2.057   0.156  -4.590  0.00  0.00    +0.036 A 
ATOM     16  C   UNL     1      -0.699   0.384  -4.702  0.00  0.00    +0.142 A 
ATOM     17  N   UNL     1      -0.418   0.615  -5.965  0.00  0.00    -0.173 NA
ATOM     18  N   UNL     1      -1.603   0.543  -6.714  0.00  0.00    -0.214 N 
ENDROOT
BRANCH  18  19
ATOM     19  C   UNL     1      -1.721   0.743  -8.096  0.00  0.00    +0.069 A 
ATOM     20  C   UNL     1      -2.644   0.008  -8.829  0.00  0.00    +0.028 A 
ATOM     21  C   UNL     1      -2.758   0.206 -10.191  0.00  0.00    +0.003 A 
ATOM     22  C   UNL     1      -1.954   1.135 -10.825  0.00  0.00    +0.020 A 
ATOM     23  C   UNL     1      -1.033   1.869 -10.098  0.00  0.00    +0.043 A 
ATOM     24  C   UNL     1      -0.919   1.679  -8.734  0.00  0.00    +0.047 A 
ATOM     25 CL   UNL     1      -0.026   3.034 -10.899  0.00  0.00    -0.083 Cl
ENDBRANCH  18  19
BRANCH  12  26
ATOM     26  O   UNL     1      -5.999  -0.588  -5.347  0.00  0.00    -0.495 OA
ATOM     27  H   UNL     1      -6.293  -0.248  -6.203  0.00  0.00    +0.293 HD
ENDBRANCH  12  26
BRANCH   1  28
ATOM     28  C   UNL     1      -1.433  -0.534   0.013  0.00  0.00    +0.116 C 
BRANCH  28  30
ATOM     29  C   UNL     1      -0.019   1.526   0.010  0.00  0.00    +0.009 C 
ATOM     30  C   UNL     1       0.002  -0.004   0.002  0.00  0.00    +0.001 C 
ATOM     31  C   UNL     1       0.742  -0.511   1.242  0.00  0.00    +0.009 C 
ENDBRANCH  28  30
ENDBRANCH   1  28
TORSDOF 4
