REMARK  Name = ZINC23128345
REMARK  8 active torsions:
REMARK  status: ('A' for Active; 'I' for Inactive)
REMARK    1  A    between atoms: C_1  and  C_2
REMARK    2  A    between atoms: C_4  and  C_18
REMARK    3  A    between atoms: C_5  and  C_17
REMARK    4  A    between atoms: N_6  and  C_7
REMARK    5  A    between atoms: C_10  and  C_13
REMARK    6  A    between atoms: C_13  and  C_14
REMARK    7  A    between atoms: C_13  and  C_15
REMARK    8  A    between atoms: C_13  and  C_16
REMARK                            x       y       z     vdW  Elec       q    Type
REMARK                         _______ _______ _______ _____ _____    ______ ____
ROOT
ATOM      1  C   UNL     1      -0.512   1.491  -0.054  0.00  0.00    +0.064 C 
ATOM      2  C   UNL     1      -0.276   0.003  -0.048  0.00  0.00    +0.022 A 
ATOM      3  C   UNL     1      -0.314  -0.797  -1.127  0.00  0.00    +0.031 A 
ATOM      4  C   UNL     1      -0.027  -2.156  -0.653  0.00  0.00    -0.003 A 
ATOM      5  C   UNL     1       0.164  -2.052   0.710  0.00  0.00    +0.028 A 
ATOM      6  N   UNL     1       0.017  -0.748   1.056  0.00  0.00    -0.317 N 
ATOM      7  C   UNL     1       0.486  -3.187   1.648  0.00  0.00    +0.064 C 
ENDROOT
BRANCH   4   8
ATOM      8  C   UNL     1       0.041  -3.378  -1.464  0.00  0.00    +0.030 C 
ATOM      9  C   UNL     1       0.532  -3.326  -2.729  0.00  0.00    +0.078 C 
ATOM     10  C   UNL     1       1.191  -2.212  -3.431  0.00  0.00    +0.256 C 
ATOM     11  O   UNL     1       1.370  -1.137  -2.888  0.00  0.00    -0.269 OA
ATOM     12  N   UNL     1       1.579  -2.430  -4.676  0.00  0.00    -0.261 N 
ATOM     13  C   UNL     1       1.366  -3.656  -5.272  0.00  0.00    +0.158 C 
ATOM     14  N   UNL     1       1.682  -4.038  -6.480  0.00  0.00    -0.279 NA
ATOM     15  S   UNL     1       0.559  -4.596  -3.986  0.00  0.00    -0.049 S 
ATOM     16  H   UNL     1       2.017  -1.722  -5.174  0.00  0.00    +0.157 HD
ATOM     17  H   UNL     1       1.473  -4.938  -6.775  0.00  0.00    +0.189 HD
ENDBRANCH   4   8
BRANCH   6  18
ATOM     18  C   UNL     1       0.143  -0.244   2.358  0.00  0.00    +0.047 A 
ATOM     19  C   UNL     1       1.371  -0.288   3.005  0.00  0.00    +0.026 A 
ATOM     20  C   UNL     1       1.493   0.209   4.287  0.00  0.00    +0.006 A 
ATOM     21  C   UNL     1       0.393   0.751   4.927  0.00  0.00    -0.042 A 
ATOM     22  C   UNL     1      -0.831   0.796   4.286  0.00  0.00    +0.006 A 
ATOM     23  C   UNL     1      -0.958   0.305   3.001  0.00  0.00    +0.026 A 
BRANCH  21  24
ATOM     24  C   UNL     1       0.529   1.292   6.327  0.00  0.00    -0.013 C 
ATOM     25  C   UNL     1       1.559   2.423   6.339  0.00  0.00    +0.015 C 
ATOM     26  C   UNL     1      -0.823   1.829   6.800  0.00  0.00    +0.015 C 
ATOM     27  C   UNL     1       0.990   0.174   7.264  0.00  0.00    +0.015 C 
ENDBRANCH  21  24
ENDBRANCH   6  18
TORSDOF 3
