REMARK  Name = ZINC37822497
REMARK  5 active torsions:
REMARK  status: ('A' for Active; 'I' for Inactive)
REMARK    1  A    between atoms: C_6  and  C_7
REMARK    2  A    between atoms: C_14  and  C_16
REMARK    3  A    between atoms: C_16  and  N_17
REMARK    4  A    between atoms: C_18  and  C_20
REMARK    5  A    between atoms: C_20  and  N_21
REMARK                            x       y       z     vdW  Elec       q    Type
REMARK                         _______ _______ _______ _____ _____    ______ ____
ROOT
ATOM      1  C   UNL     1      -1.293  -0.775   0.011  0.00  0.00    +0.166 C 
ATOM      2  C   UNL     1      -1.653  -1.155   1.452  0.00  0.00    +0.144 C 
ATOM      3  N   UNL     1      -2.812  -2.061   1.417  0.00  0.00    -0.295 N 
ATOM      4  C   UNL     1      -2.751  -3.228   0.523  0.00  0.00    +0.136 C 
ATOM      5  C   UNL     1      -2.337  -2.747  -0.873  0.00  0.00    +0.179 C 
ATOM      6  O   UNL     1      -1.145  -1.965  -0.768  0.00  0.00    -0.369 OA
ATOM      7  C   UNL     1      -3.897  -1.829   2.182  0.00  0.00    +0.233 C 
ATOM      8  O   UNL     1      -3.928  -0.861   2.912  0.00  0.00    -0.274 OA
ENDROOT
BRANCH   1  14
ATOM      9  C   UNL     1      -0.017   1.378   0.010  0.00  0.00    +0.007 A 
ATOM     10  C   UNL     1       1.171   2.086   0.002  0.00  0.00    +0.020 A 
ATOM     11  C   UNL     1       2.378   1.410  -0.013  0.00  0.00    +0.041 A 
ATOM     12  C   UNL     1       2.396   0.027  -0.021  0.00  0.00    +0.020 A 
ATOM     13  C   UNL     1       1.208  -0.679  -0.013  0.00  0.00    +0.007 A 
ATOM     14  C   UNL     1       0.002  -0.004   0.002  0.00  0.00    -0.017 A 
ATOM     15 CL   UNL     1       3.870   2.298  -0.023  0.00  0.00    -0.084 Cl
ENDBRANCH   1  14
BRANCH   7  16
ATOM     16  C   UNL     1      -5.072  -2.771   2.128  0.00  0.00    +0.200 C 
BRANCH  16  17
ATOM     17  N   UNL     1      -6.115  -2.303   3.044  0.00  0.00    -0.308 N 
ATOM     18  C   UNL     1      -7.266  -2.994   3.164  0.00  0.00    +0.196 C 
ATOM     19  O   UNL     1      -7.438  -4.003   2.514  0.00  0.00    -0.278 OA
ATOM     20  H   UNL     1      -5.977  -1.496   3.564  0.00  0.00    +0.149 HD
BRANCH  18  21
ATOM     21  C   UNL     1      -8.339  -2.512   4.106  0.00  0.00    +0.011 C 
BRANCH  21  22
ATOM     22  N   UNL     1      -9.485  -3.431   4.054  0.00  0.00    +0.384 N 
ATOM     23  H   UNL     1      -9.850  -3.460   3.114  0.00  0.00    -0.089 HD
ATOM     24  H   UNL     1      -9.187  -4.356   4.328  0.00  0.00    -0.089 HD
ATOM     25  H   UNL     1     -10.203  -3.109   4.685  0.00  0.00    -0.089 HD
ENDBRANCH  21  22
ENDBRANCH  18  21
ENDBRANCH  16  17
ENDBRANCH   7  16
TORSDOF 5
