REMARK  Name = ZINC37917796
REMARK  6 active torsions:
REMARK  status: ('A' for Active; 'I' for Inactive)
REMARK    1  A    between atoms: C_1  and  C_2
REMARK    2  A    between atoms: C_2  and  C_3
REMARK    3  A    between atoms: C_2  and  N_4
REMARK    4  A    between atoms: C_8  and  C_10
REMARK    5  A    between atoms: C_10  and  N_11
REMARK    6  A    between atoms: C_15  and  C_18
REMARK                            x       y       z     vdW  Elec       q    Type
REMARK                         _______ _______ _______ _____ _____    ______ ____
ROOT
ATOM      1  N   UNL     1      -5.922  -1.811  -3.657  0.00  0.00    -0.294 NA
ATOM      2  C   UNL     1      -6.046  -0.461  -4.220  0.00  0.00    +0.085 C 
ATOM      3  C   UNL     1      -6.444  -0.557  -5.695  0.00  0.00    +0.016 C 
ATOM      4  C   UNL     1      -7.775  -1.304  -5.812  0.00  0.00    +0.004 C 
ATOM      5  C   UNL     1      -7.633  -2.689  -5.175  0.00  0.00    -0.011 C 
ATOM      6  C   UNL     1      -7.201  -2.531  -3.715  0.00  0.00    +0.086 C 
ENDROOT
BRANCH   5   7
ATOM      7  C   UNL     1      -8.975  -3.420  -5.235  0.00  0.00    -0.068 C 
ATOM      8  C   UNL     1      -8.831  -4.833  -4.633  0.00  0.00    -0.017 C 
ATOM      9  C   UNL     1      -9.724  -5.700  -5.560  0.00  0.00    -0.021 C 
ATOM     10  C   UNL     1      -9.493  -5.028  -6.936  0.00  0.00    -0.082 C 
ATOM     11  N   UNL     1      -9.397  -3.579  -6.638  0.00  0.00    +0.381 N 
ATOM     12  H   UNL     1     -10.297  -3.142  -6.774  0.00  0.00    -0.086 HD
ATOM     13  H   UNL     1      -8.717  -3.150  -7.248  0.00  0.00    -0.086 HD
ENDBRANCH   5   7
BRANCH   1  14
ATOM     14  C   UNL     1      -5.408  -1.762  -2.281  0.00  0.00    +0.181 C 
BRANCH  14  19
ATOM     15  N   UNL     1      -1.372  -0.511   0.012  0.00  0.00    -0.297 N 
ATOM     16  C   UNL     1      -2.051  -0.643  -1.145  0.00  0.00    +0.306 C 
ATOM     17  O   UNL     1      -1.522  -0.341  -2.197  0.00  0.00    -0.252 OA
ATOM     18  N   UNL     1      -3.315  -1.109  -1.135  0.00  0.00    -0.239 N 
ATOM     19  C   UNL     1      -3.994  -1.241  -2.292  0.00  0.00    +0.234 C 
ATOM     20  O   UNL     1      -3.467  -0.940  -3.341  0.00  0.00    -0.274 OA
ATOM     21  H   UNL     1      -1.794  -0.752   0.852  0.00  0.00    +0.151 HD
ATOM     22  H   UNL     1      -3.737  -1.350  -0.295  0.00  0.00    +0.159 HD
BRANCH  15  24
ATOM     23  C   UNL     1      -0.019   1.526   0.010  0.00  0.00    +0.027 C 
ATOM     24  C   UNL     1       0.002  -0.004   0.002  0.00  0.00    +0.068 C 
ATOM     25  C   UNL     1       0.742  -0.511   1.242  0.00  0.00    +0.027 C 
ENDBRANCH  15  24
ENDBRANCH  14  19
ENDBRANCH   1  14
TORSDOF 4
