REMARK  Name = ZINC35271166
REMARK  10 active torsions:
REMARK  status: ('A' for Active; 'I' for Inactive)
REMARK    1  A    between atoms: C_1  and  C_2
REMARK    2  A    between atoms: C_5  and  C_35
REMARK    3  A    between atoms: C_6  and  O_8
REMARK    4  A    between atoms: O_8  and  C_9
REMARK    5  A    between atoms: C_11  and  N_31
REMARK    6  A    between atoms: C_13  and  O_30
REMARK    7  A    between atoms: C_22  and  C_25
REMARK    8  A    between atoms: C_32  and  C_34
REMARK    9  A    between atoms: C_35  and  C_36
REMARK   10  A    between atoms: C_35  and  C_37
REMARK                            x       y       z     vdW  Elec       q    Type
REMARK                         _______ _______ _______ _____ _____    ______ ____
ROOT
ATOM      1  C   UNL     1       0.045  -2.006   3.562  0.00  0.00    +0.331 C 
ATOM      2  C   UNL     1      -0.068  -2.944   4.765  0.00  0.00    +0.173 C 
ATOM      3  C   UNL     1       1.173  -3.843   4.837  0.00  0.00    +0.172 C 
ATOM      4  C   UNL     1       2.413  -2.952   4.894  0.00  0.00    +0.183 C 
ATOM      5  C   UNL     1       2.430  -2.055   3.649  0.00  0.00    +0.179 C 
ATOM      6  O   UNL     1       1.257  -1.249   3.647  0.00  0.00    -0.332 OA
ATOM      7  C   UNL     1       3.695  -1.196   3.690  0.00  0.00    +0.197 C 
ATOM      8  O   UNL     1       4.828  -2.066   3.798  0.00  0.00    -0.342 OA
ATOM      9  C   UNL     1       4.798  -2.935   4.931  0.00  0.00    +0.319 C 
ATOM     10  O   UNL     1       3.608  -3.732   4.910  0.00  0.00    -0.336 OA
ENDROOT
BRANCH   9  11
ATOM     11  C   UNL     1       6.003  -3.840   4.899  0.00  0.00    +0.161 A 
ATOM     12  C   UNL     1       7.287  -3.441   4.925  0.00  0.00    +0.050 A 
ATOM     13  C   UNL     1       8.080  -4.610   4.879  0.00  0.00    +0.041 A 
ATOM     14  C   UNL     1       7.234  -5.654   4.828  0.00  0.00    +0.195 A 
ATOM     15  O   UNL     1       5.976  -5.181   4.846  0.00  0.00    -0.463 OA
ENDBRANCH   9  11
BRANCH   2  16
ATOM     16  N   UNL     1      -0.168  -2.153   5.994  0.00  0.00    -0.304 N 
ATOM     17  C   UNL     1      -1.367  -1.692   6.403  0.00  0.00    +0.210 C 
ATOM     18  O   UNL     1      -2.362  -1.933   5.755  0.00  0.00    -0.276 OA
ATOM     19  C   UNL     1      -1.469  -0.878   7.667  0.00  0.00    +0.109 C 
ATOM     20  H   UNL     1       0.629  -1.960   6.512  0.00  0.00    +0.149 HD
ENDBRANCH   2  16
BRANCH   3  21
ATOM     21  O   UNL     1       1.107  -4.658   6.009  0.00  0.00    -0.387 OA
ATOM     22  H   UNL     1       0.334  -5.238   6.042  0.00  0.00    +0.210 HD
ENDBRANCH   3  21
BRANCH   1  23
ATOM     23  O   UNL     1       0.050  -2.776   2.358  0.00  0.00    -0.461 OA
BRANCH  23  29
ATOM     24  C   UNL     1      -0.018   1.503   0.010  0.00  0.00    +0.044 C 
ATOM     25  C   UNL     1       0.002  -0.004   0.002  0.00  0.00    -0.047 A 
ATOM     26  C   UNL     1       0.006  -0.688  -1.200  0.00  0.00    +0.004 A 
ATOM     27  C   UNL     1       0.024  -2.071  -1.211  0.00  0.00    +0.008 A 
ATOM     28  C   UNL     1       0.039  -2.772  -0.020  0.00  0.00    -0.003 A 
ATOM     29  C   UNL     1       0.035  -2.088   1.186  0.00  0.00    +0.128 A 
ATOM     30  C   UNL     1       0.023  -0.700   1.195  0.00  0.00    +0.049 A 
BRANCH  28  31
ATOM     31  C   UNL     1       0.059  -4.279  -0.033  0.00  0.00    +0.016 C 
ATOM     32  C   UNL     1      -1.188  -4.799  -0.753  0.00  0.00    +0.012 C 
ATOM     33  C   UNL     1       1.311  -4.766  -0.764  0.00  0.00    +0.012 C 
ENDBRANCH  28  31
ENDBRANCH  23  29
ENDBRANCH   1  23
TORSDOF 6
