REMARK  Name = ZINC36899417
REMARK  1 active torsions:
REMARK  status: ('A' for Active; 'I' for Inactive)
REMARK    1  A    between atoms: N_8  and  C_12
REMARK                            x       y       z     vdW  Elec       q    Type
REMARK                         _______ _______ _______ _____ _____    ______ ____
ROOT
ATOM      1  C   UNL     1      -0.017   1.382   0.010  0.00  0.00    +0.004 A 
ATOM      2  C   UNL     1       1.160   2.098   0.002  0.00  0.00    +0.030 A 
ATOM      3  C   UNL     1       2.383   1.422  -0.013  0.00  0.00    +0.093 A 
ATOM      4  C   UNL     1       2.397   0.018  -0.021  0.00  0.00    +0.093 A 
ATOM      5  C   UNL     1       1.203  -0.687  -0.014  0.00  0.00    +0.067 A 
ATOM      6  C   UNL     1       0.002  -0.004   0.002  0.00  0.00    +0.022 A 
ATOM      7 CL   UNL     1       1.216  -2.423  -0.023  0.00  0.00    -0.081 Cl
ATOM      8  N   UNL     1       3.733  -0.354  -0.035  0.00  0.00    -0.279 N 
ATOM      9  C   UNL     1       4.473   0.796  -0.036  0.00  0.00    +0.199 A 
ATOM     10  N   UNL     1       3.678   1.836  -0.023  0.00  0.00    -0.214 NA
ATOM     11  N   UNL     1       5.851   0.852  -0.049  0.00  0.00    -0.329 N 
ATOM     12  H   UNL     1       6.370   0.032  -0.058  0.00  0.00    +0.145 HD
ATOM     13  H   UNL     1       6.302   1.711  -0.048  0.00  0.00    +0.145 HD
ENDROOT
BRANCH   8  14
ATOM     14  C   UNL     1       4.232  -1.665  -0.047  0.00  0.00    +0.050 A 
ATOM     15  C   UNL     1       4.010  -2.502   1.038  0.00  0.00    +0.029 A 
ATOM     16  C   UNL     1       4.502  -3.793   1.025  0.00  0.00    +0.040 A 
ATOM     17  C   UNL     1       5.216  -4.252  -0.070  0.00  0.00    +0.124 A 
ATOM     18  C   UNL     1       5.438  -3.418  -1.152  0.00  0.00    +0.040 A 
ATOM     19  C   UNL     1       4.944  -2.128  -1.145  0.00  0.00    +0.029 A 
ATOM     20  F   UNL     1       5.697  -5.514  -0.080  0.00  0.00    -0.205 F 
ENDBRANCH   8  14
TORSDOF 1
