REMARK  Name = ZINC06403208
REMARK  7 active torsions:
REMARK  status: ('A' for Active; 'I' for Inactive)
REMARK    1  A    between atoms: C_1  and  O_2
REMARK    2  A    between atoms: O_2  and  C_3
REMARK    3  A    between atoms: C_5  and  N_25
REMARK    4  A    between atoms: C_21  and  O_23
REMARK    5  A    between atoms: O_23  and  C_24
REMARK    6  A    between atoms: N_25  and  C_26
REMARK    7  A    between atoms: C_26  and  N_28
REMARK                            x       y       z     vdW  Elec       q    Type
REMARK                         _______ _______ _______ _____ _____    ______ ____
ROOT
ATOM      1  C   UNL     1       0.432   4.122   1.134  0.00  0.00    +0.197 C 
ATOM      2  C   UNL     1       1.256   3.647  -0.067  0.00  0.00    +0.149 C 
ATOM      3  C   UNL     1       1.381   2.117   0.000  0.00  0.00    +0.228 C 
ATOM      4  C   UNL     1      -0.018   1.516   0.010  0.00  0.00    +0.201 C 
ATOM      5  C   UNL     1       0.002  -0.004   0.002  0.00  0.00    +0.264 C 
ATOM      6  O   UNL     1       0.582  -0.515   1.203  0.00  0.00    -0.486 OA
ATOM      7  C   UNL     1       1.945  -0.598   1.218  0.00  0.00    +0.162 A 
ATOM      8  C   UNL     1       2.570  -1.832   1.229  0.00  0.00    +0.049 A 
ATOM      9  C   UNL     1       3.952  -1.901   1.244  0.00  0.00    +0.004 A 
ATOM     10  C   UNL     1       4.706  -0.742   1.250  0.00  0.00    +0.004 A 
ATOM     11  C   UNL     1       4.083   0.494   1.238  0.00  0.00    +0.049 A 
ATOM     12  C   UNL     1       2.700   0.566   1.221  0.00  0.00    +0.163 A 
ATOM     13  O   UNL     1       2.073   1.775   1.206  0.00  0.00    -0.481 OA
ATOM     14  O   UNL     1      -0.747   2.008   1.135  0.00  0.00    -0.338 OA
ATOM     15  C   UNL     1      -0.931   3.426   1.125  0.00  0.00    +0.281 C 
ENDROOT
BRANCH   1  17
ATOM     16  C   UNL     1       0.869   4.708   3.417  0.00  0.00    +0.194 C 
ATOM     17  O   UNL     1       1.123   3.800   2.343  0.00  0.00    -0.373 OA
ENDBRANCH   1  17
BRANCH  15  18
ATOM     18  O   UNL     1      -1.649   3.803  -0.052  0.00  0.00    -0.352 OA
ATOM     19  C   UNL     1      -3.018   3.393  -0.054  0.00  0.00    +0.197 C 
ENDBRANCH  15  18
BRANCH   2  20
ATOM     20  N   UNL     1       0.581   4.031  -1.309  0.00  0.00    -0.318 N 
ATOM     21  H   UNL     1      -0.095   3.323  -1.810  0.00  0.00    +0.148 HD
BRANCH  20  22
ATOM     22  C   UNL     1       0.789   5.253  -1.838  0.00  0.00    +0.128 C 
ATOM     23  S   UNL     1       1.841   6.356  -1.059  0.00  0.00    -0.019 S 
BRANCH  22  24
ATOM     24  N   UNL     1       0.169   5.607  -2.981  0.00  0.00    -0.341 N 
ATOM     25  H   UNL     1       0.338   6.604  -3.413  0.00  0.00    +0.144 HD
ATOM     26  H   UNL     1      -0.508   4.898  -3.482  0.00  0.00    +0.144 HD
ENDBRANCH  22  24
ENDBRANCH  20  22
ENDBRANCH   2  20
TORSDOF 5
