REMARK  Name = ZINC38936138
REMARK  6 active torsions:
REMARK  status: ('A' for Active; 'I' for Inactive)
REMARK    1  A    between atoms: C_1  and  C_2
REMARK    2  A    between atoms: C_6  and  S_9
REMARK    3  A    between atoms: S_9  and  C_10
REMARK    4  A    between atoms: C_10  and  C_11
REMARK    5  A    between atoms: N_13  and  N_14
REMARK    6  A    between atoms: C_15  and  C_16
REMARK                            x       y       z     vdW  Elec       q    Type
REMARK                         _______ _______ _______ _____ _____    ______ ____
ROOT
ATOM      1  C   UNL     1      -0.663  -5.016   1.947  0.00  0.00    +0.242 C 
ATOM      2  O   UNL     1       0.182  -5.828   2.259  0.00  0.00    -0.273 OA
ATOM      3  N   UNL     1      -1.967  -5.290   2.149  0.00  0.00    -0.206 N 
ATOM      4  H   UNL     1      -2.643  -4.641   1.899  0.00  0.00    +0.177 HD
ENDROOT
BRANCH   3   5
ATOM      5  N   UNL     1      -2.346  -6.512   2.720  0.00  0.00    -0.188 NA
ATOM      6  C   UNL     1      -3.613  -6.778   2.916  0.00  0.00    +0.136 C 
BRANCH   6   7
ATOM      7  C   UNL     1      -3.992  -8.001   3.488  0.00  0.00    +0.000 C 
ATOM      8  C   UNL     1      -5.286  -8.439   3.757  0.00  0.00    +0.004 A 
ATOM      9  C   UNL     1      -6.554  -7.847   3.562  0.00  0.00    +0.010 A 
ATOM     10  C   UNL     1      -7.674  -8.521   3.928  0.00  0.00    +0.001 A 
ATOM     11  C   UNL     1      -7.609  -9.795   4.498  0.00  0.00    +0.002 A 
ATOM     12  C   UNL     1      -6.429 -10.424   4.714  0.00  0.00    +0.026 A 
ATOM     13  C   UNL     1      -5.213  -9.783   4.357  0.00  0.00    +0.043 A 
ATOM     14  N   UNL     1      -3.960 -10.172   4.462  0.00  0.00    -0.380 N 
ATOM     15  C   UNL     1      -3.081  -9.123   3.934  0.00  0.00    +0.150 C 
ATOM     16  H   UNL     1      -3.664 -11.020   4.828  0.00  0.00    +0.160 HD
ENDBRANCH   6   7
ENDBRANCH   3   5
BRANCH   1  17
ATOM     17  C   UNL     1      -0.255  -3.702   1.333  0.00  0.00    +0.169 C 
BRANCH  17  18
ATOM     18  S   UNL     1       1.552  -3.635   1.192  0.00  0.00    -0.121 S 
BRANCH  18  23
ATOM     19  C   UNL     1      -0.019   1.526   0.010  0.00  0.00    +0.037 C 
ATOM     20  C   UNL     1       0.002  -0.004   0.002  0.00  0.00    +0.126 C 
ATOM     21  N   UNL     1       0.783  -0.534  -1.160  0.00  0.00    -0.242 NA
ATOM     22  N   UNL     1       1.220  -1.898  -0.887  0.00  0.00    -0.233 NA
ATOM     23  C   UNL     1       1.875  -2.013   0.446  0.00  0.00    +0.186 C 
ATOM     24  S   UNL     1       1.026  -0.672   1.385  0.00  0.00    -0.110 S 
ATOM     25  H   UNL     1       1.569   0.063  -1.369  0.00  0.00    +0.142 HD
ATOM     26  H   UNL     1       1.826  -2.237  -1.618  0.00  0.00    +0.143 HD
ENDBRANCH  18  23
ENDBRANCH  17  18
ENDBRANCH   1  17
TORSDOF 5
