REMARK  Name = ZINC26720965
REMARK  5 active torsions:
REMARK  status: ('A' for Active; 'I' for Inactive)
REMARK    1  A    between atoms: C_1  and  C_2
REMARK    2  A    between atoms: C_2  and  C_3
REMARK    3  A    between atoms: C_2  and  C_4
REMARK    4  A    between atoms: C_7  and  C_13
REMARK    5  A    between atoms: C_9  and  N_10
REMARK                            x       y       z     vdW  Elec       q    Type
REMARK                         _______ _______ _______ _____ _____    ______ ____
ROOT
ATOM      1  C   UNL     1       0.589  -3.801  -0.101  0.00  0.00    +0.218 C 
ATOM      2  N   UNL     1       1.490  -4.915  -0.445  0.00  0.00    -0.337 N 
ATOM      3  C   UNL     1       2.840  -4.786  -0.256  0.00  0.00    +0.159 C 
ATOM      4  N   UNL     1       3.440  -3.611  -0.334  0.00  0.00    -0.259 N 
ATOM      5  C   UNL     1       2.676  -2.511  -0.532  0.00  0.00    +0.205 A 
ATOM      6  N   UNL     1       1.298  -2.564  -0.446  0.00  0.00    -0.287 N 
ATOM      7  C   UNL     1       0.813  -1.308  -0.722  0.00  0.00    +0.072 A 
ATOM      8  C   UNL     1      -0.456  -0.752  -0.796  0.00  0.00    +0.028 A 
ATOM      9  C   UNL     1      -0.608   0.584  -1.101  0.00  0.00    +0.002 A 
ATOM     10  C   UNL     1       0.502   1.383  -1.335  0.00  0.00    +0.002 A 
ATOM     11  C   UNL     1       1.770   0.851  -1.267  0.00  0.00    +0.030 A 
ATOM     12  C   UNL     1       1.942  -0.502  -0.960  0.00  0.00    +0.091 A 
ATOM     13  N   UNL     1       3.043  -1.290  -0.829  0.00  0.00    -0.214 NA
ATOM     14  N   UNL     1       3.586  -5.900   0.019  0.00  0.00    -0.332 N 
ATOM     15  H   UNL     1       4.672  -5.811   0.172  0.00  0.00    +0.145 HD
ATOM     16  H   UNL     1       4.533  -3.543  -0.237  0.00  0.00    +0.158 HD
ATOM     17  H   UNL     1       3.100  -6.885   0.086  0.00  0.00    +0.145 HD
ATOM     18  H   UNL     1       1.079  -5.850  -0.853  0.00  0.00    +0.164 HD
ENDROOT
BRANCH   1  22
ATOM     19  C   UNL     1      -0.288  -3.865   4.079  0.00  0.00    -0.015 A 
ATOM     20  C   UNL     1       0.976  -4.203   3.633  0.00  0.00    +0.006 A 
ATOM     21  C   UNL     1       1.260  -4.182   2.280  0.00  0.00    +0.008 A 
ATOM     22  C   UNL     1       0.279  -3.824   1.374  0.00  0.00    -0.002 A 
ATOM     23  C   UNL     1      -0.983  -3.481   1.820  0.00  0.00    +0.040 A 
ATOM     24  C   UNL     1      -1.268  -3.507   3.173  0.00  0.00    +0.130 A 
BRANCH  19  26
ATOM     25  C   UNL     1      -0.525  -5.328   6.067  0.00  0.00    +0.012 C 
ATOM     26  C   UNL     1      -0.598  -3.889   5.554  0.00  0.00    +0.015 C 
ATOM     27  C   UNL     1       0.422  -3.028   6.303  0.00  0.00    +0.012 C 
ENDBRANCH  19  26
BRANCH  24  28
ATOM     28  N   UNL     1      -2.622  -3.146   3.651  0.00  0.00    +0.057 N 
ATOM     29  O   UNL     1      -3.131  -3.770   4.564  0.00  0.00    -0.126 OA
ATOM     30  O   UNL     1      -3.226  -2.226   3.130  0.00  0.00    -0.126 OA
ENDBRANCH  24  28
ENDBRANCH   1  22
TORSDOF 3
