REMARK  Name = ZINC01440813
REMARK  9 active torsions:
REMARK  status: ('A' for Active; 'I' for Inactive)
REMARK    1  A    between atoms: C_1  and  C_2
REMARK    2  A    between atoms: C_2  and  C_3
REMARK    3  A    between atoms: C_2  and  O_4
REMARK    4  A    between atoms: O_4  and  C_5
REMARK    5  A    between atoms: C_8  and  C_11
REMARK    6  A    between atoms: C_18  and  C_20
REMARK    7  A    between atoms: C_20  and  O_21
REMARK    8  A    between atoms: C_23  and  N_27
REMARK    9  A    between atoms: C_24  and  C_25
REMARK                            x       y       z     vdW  Elec       q    Type
REMARK                         _______ _______ _______ _____ _____    ______ ____
ROOT
ATOM      1  C   UNL     1      -2.307  -0.985   5.900  0.00  0.00    +0.134 C 
ATOM      2  C   UNL     1      -2.179  -2.392   6.423  0.00  0.00    +0.164 A 
ATOM      3  C   UNL     1      -1.374  -2.665   7.471  0.00  0.00    +0.215 A 
ATOM      4  C   UNL     1      -1.276  -4.007   7.937  0.00  0.00    +0.228 A 
ATOM      5  O   UNL     1      -0.558  -4.290   8.884  0.00  0.00    -0.284 OA
ATOM      6  C   UNL     1      -2.033  -5.004   7.275  0.00  0.00    +0.098 A 
ATOM      7  C   UNL     1      -2.814  -4.645   6.236  0.00  0.00    +0.134 A 
ATOM      8  O   UNL     1      -2.880  -3.374   5.830  0.00  0.00    -0.457 OA
ATOM      9  O   UNL     1      -0.657  -1.694   8.088  0.00  0.00    -0.434 OA
ATOM     10  C   UNL     1      -1.010  -0.405   7.943  0.00  0.00    +0.199 C 
ATOM     11  C   UNL     1      -1.797  -0.005   6.918  0.00  0.00    +0.101 C 
ENDROOT
BRANCH   1  15
ATOM     12  C   UNL     1      -0.031  -0.600   2.303  0.00  0.00    +0.121 A 
ATOM     13  C   UNL     1      -1.400  -0.376   2.286  0.00  0.00    +0.046 A 
ATOM     14  C   UNL     1      -2.133  -0.502   3.450  0.00  0.00    +0.008 A 
ATOM     15  C   UNL     1      -1.504  -0.849   4.631  0.00  0.00    -0.031 A 
ATOM     16  C   UNL     1      -0.140  -1.072   4.651  0.00  0.00    +0.008 A 
ATOM     17  C   UNL     1       0.598  -0.954   3.489  0.00  0.00    +0.046 A 
BRANCH  12  18
ATOM     18  O   UNL     1       0.693  -0.477   1.160  0.00  0.00    -0.489 OA
BRANCH  18  20
ATOM     19  C   UNL     1      -0.292   1.273  -0.184  0.00  0.00    +0.051 C 
ATOM     20  C   UNL     1      -0.034  -0.229  -0.045  0.00  0.00    +0.167 C 
ATOM     21  C   UNL     1       0.781  -0.720  -1.243  0.00  0.00    +0.051 C 
ENDBRANCH  18  20
ENDBRANCH  12  18
ENDBRANCH   1  15
BRANCH  10  22
ATOM     22  N   UNL     1      -0.564   0.521   8.853  0.00  0.00    -0.328 N 
ATOM     23  H   UNL     1       0.000   0.243   9.591  0.00  0.00    +0.145 HD
ATOM     24  H   UNL     1      -0.814   1.454   8.758  0.00  0.00    +0.145 HD
ENDBRANCH  10  22
BRANCH  11  25
ATOM     25  C   UNL     1      -2.148   1.379   6.804  0.00  0.00    +0.101 C 
ATOM     26  N   UNL     1      -2.426   2.477   6.713  0.00  0.00    -0.191 NA
ENDBRANCH  11  25
BRANCH   7  27
ATOM     27  C   UNL     1      -3.625  -5.695   5.520  0.00  0.00    +0.230 C 
BRANCH  27  28
ATOM     28  O   UNL     1      -3.395  -6.969   6.125  0.00  0.00    -0.387 OA
ATOM     29  H   UNL     1      -3.886  -7.694   5.714  0.00  0.00    +0.210 HD
ENDBRANCH  27  28
ENDBRANCH   7  27
TORSDOF 7
