REMARK  Name = ZINC35306751
REMARK  4 active torsions:
REMARK  status: ('A' for Active; 'I' for Inactive)
REMARK    1  A    between atoms: C_3  and  N_11
REMARK    2  A    between atoms: C_4  and  C_8
REMARK    3  A    between atoms: N_11  and  S_12
REMARK    4  A    between atoms: S_12  and  C_15
REMARK                            x       y       z     vdW  Elec       q    Type
REMARK                         _______ _______ _______ _____ _____    ______ ____
ROOT
ATOM      1  N   UNL     1       3.568   2.154  -0.021  0.00  0.00    -0.097 NA
ENDROOT
BRANCH   1   4
ATOM      2  C   UNL     1      -0.017   1.381   0.010  0.00  0.00    +0.005 A 
ATOM      3  C   UNL     1       1.163   2.098   0.002  0.00  0.00    +0.028 A 
ATOM      4  C   UNL     1       2.382   1.434  -0.013  0.00  0.00    +0.091 A 
ATOM      5  C   UNL     1       2.409   0.028  -0.021  0.00  0.00    +0.123 A 
ATOM      6  C   UNL     1       1.203  -0.685  -0.013  0.00  0.00    +0.139 A 
ATOM      7  C   UNL     1       0.002  -0.004   0.002  0.00  0.00    +0.039 A 
ATOM      8  F   UNL     1       1.215  -2.036  -0.021  0.00  0.00    -0.205 F 
BRANCH   5   9
ATOM      9  C   UNL     1       3.692  -0.688  -0.037  0.00  0.00    +0.391 C 
ATOM     10  O   UNL     1       4.742  -0.060  -0.044  0.00  0.00    -0.240 OA
ATOM     11  O   UNL     1       3.710  -1.911  -0.044  0.00  0.00    -0.240 OA
ENDBRANCH   5   9
ENDBRANCH   1   4
BRANCH   1  12
ATOM     12  S   UNL     1       3.532   3.810  -0.012  0.00  0.00    +0.092 S 
ATOM     13  O   UNL     1       2.960   4.210  -1.250  0.00  0.00    -0.148 OA
ATOM     14  O   UNL     1       2.984   4.197   1.240  0.00  0.00    -0.148 OA
BRANCH  12  15
ATOM     15  C   UNL     1       5.203   4.368  -0.026  0.00  0.00    +0.110 A 
ATOM     16  C   UNL     1       5.872   4.575   1.166  0.00  0.00    +0.030 A 
ATOM     17  C   UNL     1       7.183   5.012   1.156  0.00  0.00    +0.017 A 
ATOM     18  C   UNL     1       7.826   5.243  -0.047  0.00  0.00    +0.018 A 
ATOM     19  C   UNL     1       7.156   5.035  -1.239  0.00  0.00    +0.017 A 
ATOM     20  C   UNL     1       5.847   4.593  -1.228  0.00  0.00    +0.030 A 
ATOM     21 BR   UNL     1       9.619   5.841  -0.061  0.00  0.00    -0.050 Br
ENDBRANCH  12  15
ENDBRANCH   1  12
TORSDOF 4
