REMARK  Name = ZINC60213867
REMARK  9 active torsions:
REMARK  status: ('A' for Active; 'I' for Inactive)
REMARK    1  A    between atoms: C_1  and  C_2
REMARK    2  A    between atoms: N_4  and  C_5
REMARK    3  A    between atoms: C_10  and  N_11
REMARK    4  A    between atoms: C_12  and  C_14
REMARK    5  A    between atoms: C_21  and  O_23
REMARK    6  A    between atoms: O_23  and  C_24
REMARK    7  A    between atoms: C_24  and  C_25
REMARK    8  A    between atoms: C_24  and  C_26
REMARK    9  A    between atoms: C_24  and  C_27
REMARK                            x       y       z     vdW  Elec       q    Type
REMARK                         _______ _______ _______ _____ _____    ______ ____
ROOT
ATOM      1  N   UNL     1       0.152  -2.221  -3.593  0.00  0.00    -0.284 N 
ATOM      2  C   UNL     1       0.134  -2.931  -4.738  0.00  0.00    +0.222 C 
ATOM      3  O   UNL     1       0.242  -4.138  -4.705  0.00  0.00    -0.275 OA
ATOM      4  H   UNL     1       0.147  -1.251  -3.623  0.00  0.00    +0.155 HD
ENDROOT
BRANCH   2   5
ATOM      5  C   UNL     1      -0.020  -2.224  -6.060  0.00  0.00    +0.093 C 
ATOM      6  C   UNL     1      -0.008  -3.252  -7.194  0.00  0.00    +0.016 C 
ATOM      7  C   UNL     1      -0.197  -2.538  -8.534  0.00  0.00    +0.020 C 
ATOM      8  C   UNL     1       0.961  -1.561  -8.756  0.00  0.00    +0.111 C 
ATOM      9  N   UNL     1       1.047  -0.659  -7.599  0.00  0.00    -0.267 N 
ATOM     10  C   UNL     1       1.140  -1.242  -6.254  0.00  0.00    +0.123 C 
ATOM     11  C   UNL     1       1.040   0.678  -7.769  0.00  0.00    +0.403 C 
ATOM     12  O   UNL     1       1.112   1.413  -6.804  0.00  0.00    -0.226 OA
BRANCH  11  13
ATOM     13  O   UNL     1       0.955   1.199  -9.007  0.00  0.00    -0.445 OA
BRANCH  13  14
ATOM     14  C   UNL     1       0.953   2.624  -9.113  0.00  0.00    +0.107 C 
ATOM     15  C   UNL     1       2.250   3.181  -8.521  0.00  0.00    +0.055 C 
ATOM     16  C   UNL     1       0.850   3.026 -10.585  0.00  0.00    +0.055 C 
ATOM     17  C   UNL     1      -0.242   3.191  -8.345  0.00  0.00    +0.055 C 
ENDBRANCH  13  14
ENDBRANCH  11  13
ENDBRANCH   2   5
BRANCH   1  23
ATOM     18  C   UNL     1       0.709  -2.248  -1.236  0.00  0.00    +0.055 A 
ATOM     19  C   UNL     1       0.728  -2.907  -0.016  0.00  0.00    +0.026 A 
ATOM     20  C   UNL     1       0.227  -4.191   0.084  0.00  0.00    +0.022 A 
ATOM     21  C   UNL     1      -0.294  -4.824  -1.031  0.00  0.00    +0.043 A 
ATOM     22  C   UNL     1      -0.317  -4.174  -2.252  0.00  0.00    +0.045 A 
ATOM     23  C   UNL     1       0.179  -2.883  -2.359  0.00  0.00    +0.056 A 
ATOM     24 CL   UNL     1      -0.920  -6.438  -0.898  0.00  0.00    -0.083 Cl
BRANCH  18  28
ATOM     25  C   UNL     1       1.913   1.203  -0.333  0.00  0.00    +0.109 C 
ATOM     26  C   UNL     1       1.255  -0.150  -0.252  0.00  0.00    +0.214 C 
ATOM     27  O   UNL     1       0.761  -0.523   0.791  0.00  0.00    -0.276 OA
ATOM     28  N   UNL     1       1.216  -0.946  -1.339  0.00  0.00    -0.284 N 
ATOM     29  H   UNL     1       1.538  -0.618  -2.193  0.00  0.00    +0.155 HD
ENDBRANCH  18  28
ENDBRANCH   1  23
TORSDOF 5
