REMARK  Name = ZINC57381151
REMARK  5 active torsions:
REMARK  status: ('A' for Active; 'I' for Inactive)
REMARK    1  A    between atoms: C_10  and  N_12
REMARK    2  A    between atoms: N_12  and  C_13
REMARK    3  A    between atoms: C_13  and  C_14
REMARK    4  A    between atoms: N_16  and  C_17
REMARK    5  A    between atoms: C_18  and  C_26
REMARK                            x       y       z     vdW  Elec       q    Type
REMARK                         _______ _______ _______ _____ _____    ______ ____
ROOT
ATOM      1  C   UNL     1       6.389   1.701   1.104  0.00  0.00    +0.231 C 
ATOM      2  O   UNL     1       6.497   1.281   2.237  0.00  0.00    -0.274 OA
ATOM      3  N   UNL     1       7.176   2.711   0.682  0.00  0.00    -0.278 N 
ATOM      4  H   UNL     1       7.089   3.046  -0.224  0.00  0.00    +0.155 HD
ENDROOT
BRANCH   3   5
ATOM      5  C   UNL     1       8.108   3.270   1.542  0.00  0.00    +0.084 A 
ATOM      6  C   UNL     1       8.989   4.308   1.285  0.00  0.00    +0.068 A 
ATOM      7  C   UNL     1       9.873   4.712   2.365  0.00  0.00    -0.023 A 
ATOM      8  C   UNL     1       9.714   4.003   3.503  0.00  0.00    -0.004 A 
ATOM      9  S   UNL     1       8.424   2.849   3.137  0.00  0.00    -0.077 S 
ATOM     10  C   UNL     1      10.471   4.175   4.784  0.00  0.00    +0.043 C 
ATOM     11  C   UNL     1      11.717   5.027   4.497  0.00  0.00    +0.005 C 
ATOM     12  C   UNL     1      11.300   6.254   3.681  0.00  0.00    +0.005 C 
ATOM     13  C   UNL     1      10.901   5.829   2.267  0.00  0.00    +0.037 C 
BRANCH   6  14
ATOM     14  C   UNL     1       9.028   4.972  -0.022  0.00  0.00    +0.244 C 
ATOM     15  O   UNL     1       8.323   5.941  -0.233  0.00  0.00    -0.270 OA
ATOM     16  N   UNL     1       9.844   4.508  -0.989  0.00  0.00    -0.325 N 
ATOM     17  H   UNL     1      10.406   3.736  -0.820  0.00  0.00    +0.145 HD
ATOM     18  H   UNL     1       9.870   4.947  -1.854  0.00  0.00    +0.145 HD
ENDBRANCH   6  14
ENDBRANCH   3   5
BRANCH   1  19
ATOM     19  C   UNL     1       5.375   1.093   0.169  0.00  0.00    +0.178 C 
BRANCH  19  20
ATOM     20  N   UNL     1       4.651   0.020   0.863  0.00  0.00    -0.301 NA
ATOM     21  H   UNL     1       4.152   0.379   1.663  0.00  0.00    +0.123 HD
BRANCH  20  31
ATOM     22  C   UNL     1       0.510  -2.280   2.245  0.00  0.00    +0.000 A 
ATOM     23  C   UNL     1       1.003  -1.014   2.502  0.00  0.00    +0.000 A 
ATOM     24  C   UNL     1       2.047  -0.520   1.749  0.00  0.00    +0.005 A 
ATOM     25  C   UNL     1       2.609  -1.284   0.734  0.00  0.00    -0.027 A 
ATOM     26  C   UNL     1       2.121  -2.546   0.480  0.00  0.00    -0.043 A 
ATOM     27  C   UNL     1       1.067  -3.041   1.238  0.00  0.00    +0.004 A 
ATOM     28  C   UNL     1       2.692  -3.435  -0.593  0.00  0.00    +0.035 C 
ATOM     29  C   UNL     1       3.513  -2.618  -1.588  0.00  0.00    +0.006 C 
ATOM     30  C   UNL     1       4.515  -1.764  -0.801  0.00  0.00    +0.024 C 
ATOM     31  C   UNL     1       3.741  -0.679  -0.054  0.00  0.00    +0.085 C 
ENDBRANCH  20  31
ENDBRANCH  19  20
ENDBRANCH   1  19
TORSDOF 5
