REMARK  Name = ZINC39606554
REMARK  10 active torsions:
REMARK  status: ('A' for Active; 'I' for Inactive)
REMARK    1  A    between atoms: C_1  and  C_2
REMARK    2  A    between atoms: C_2  and  C_3
REMARK    3  A    between atoms: C_3  and  C_5
REMARK    4  A    between atoms: C_3  and  C_6
REMARK    5  A    between atoms: C_6  and  N_7
REMARK    6  A    between atoms: C_8  and  C_10
REMARK    7  A    between atoms: C_21  and  C_23
REMARK    8  A    between atoms: C_29  and  O_31
REMARK    9  A    between atoms: O_31  and  C_32
REMARK   10  A    between atoms: C_32  and  C_33
REMARK                            x       y       z     vdW  Elec       q    Type
REMARK                         _______ _______ _______ _____ _____    ______ ____
ROOT
ATOM      1  C   UNL     1       1.840  -4.281  -4.174  0.00  0.00    +0.100 C 
ATOM      2  C   UNL     1       0.959  -3.840  -5.364  0.00  0.00    +0.121 C 
ATOM      3  N   UNL     1       1.013  -4.979  -6.312  0.00  0.00    -0.300 N 
ATOM      4  C   UNL     1       0.965  -6.181  -5.446  0.00  0.00    +0.115 C 
ATOM      5  C   UNL     1       1.840  -5.818  -4.230  0.00  0.00    -0.004 C 
ATOM      6  C   UNL     1       1.235  -6.394  -2.954  0.00  0.00    -0.010 C 
ATOM      7  C   UNL     1       1.300  -7.923  -3.009  0.00  0.00    -0.082 C 
ATOM      8  N   UNL     1       2.697  -8.351  -3.148  0.00  0.00    +0.379 N 
ATOM      9  C   UNL     1       3.243  -7.870  -4.423  0.00  0.00    -0.082 C 
ATOM     10  C   UNL     1       3.260  -6.339  -4.428  0.00  0.00    -0.010 C 
ATOM     11  C   UNL     1       1.090  -4.931  -7.656  0.00  0.00    +0.219 C 
ATOM     12  O   UNL     1       1.126  -5.959  -8.298  0.00  0.00    -0.275 OA
ATOM     13  H   UNL     1       3.240  -7.973  -2.386  0.00  0.00    -0.086 HD
ATOM     14  H   UNL     1       2.743  -9.358  -3.122  0.00  0.00    -0.086 HD
ENDROOT
BRANCH  11  15
ATOM     15  C   UNL     1       1.131  -3.600  -8.362  0.00  0.00    +0.078 C 
ATOM     16  C   UNL     1      -0.139  -2.811  -8.035  0.00  0.00    +0.032 C 
ATOM     17  C   UNL     1      -0.078  -1.445  -8.726  0.00  0.00    +0.112 C 
ATOM     18  N   UNL     1       0.150  -1.651 -10.163  0.00  0.00    -0.267 N 
ATOM     19  C   UNL     1       1.293  -2.473 -10.585  0.00  0.00    +0.112 C 
ATOM     20  C   UNL     1       1.217  -3.827  -9.873  0.00  0.00    +0.032 C 
ATOM     21  C   UNL     1      -0.673  -1.099 -11.075  0.00  0.00    +0.403 C 
ATOM     22  O   UNL     1      -1.615  -0.422 -10.713  0.00  0.00    -0.226 OA
BRANCH  21  23
ATOM     23  O   UNL     1      -0.452  -1.296 -12.389  0.00  0.00    -0.445 OA
BRANCH  23  24
ATOM     24  C   UNL     1      -1.364  -0.681 -13.300  0.00  0.00    +0.269 C 
BRANCH  24  25
ATOM     25  C   UNL     1      -0.961  -1.010 -14.714  0.00  0.00    -0.010 A 
ATOM     26  C   UNL     1      -0.081  -0.187 -15.392  0.00  0.00    +0.007 A 
ATOM     27  C   UNL     1       0.289  -0.490 -16.689  0.00  0.00    +0.000 A 
ATOM     28  C   UNL     1      -0.221  -1.615 -17.308  0.00  0.00    +0.000 A 
ATOM     29  C   UNL     1      -1.100  -2.439 -16.630  0.00  0.00    +0.000 A 
ATOM     30  C   UNL     1      -1.466  -2.139 -15.332  0.00  0.00    +0.007 A 
ENDBRANCH  24  25
ENDBRANCH  23  24
ENDBRANCH  21  23
ENDBRANCH  11  15
BRANCH   1  32
ATOM     31  N   UNL     1       2.042  -3.550  -1.819  0.00  0.00    -0.315 N 
ATOM     32  C   UNL     1       1.243  -3.804  -2.875  0.00  0.00    +0.218 C 
ATOM     33  O   UNL     1       0.044  -3.650  -2.779  0.00  0.00    -0.275 OA
ATOM     34  H   UNL     1       3.001  -3.673  -1.896  0.00  0.00    +0.149 HD
BRANCH  31  35
ATOM     35  C   UNL     1       1.461  -3.086  -0.557  0.00  0.00    +0.107 C 
BRANCH  35  36
ATOM     36  C   UNL     1       2.576  -2.873   0.469  0.00  0.00    +0.003 C 
ATOM     37  C   UNL     1       3.233  -4.216   0.795  0.00  0.00    +0.009 C 
BRANCH  36  39
ATOM     38  C   UNL     1       3.116  -1.943   2.725  0.00  0.00    +0.004 C 
ATOM     39  C   UNL     1       1.987  -2.272   1.746  0.00  0.00    +0.001 C 
ENDBRANCH  36  39
ENDBRANCH  35  36
ENDBRANCH  31  35
ENDBRANCH   1  32
TORSDOF 8
