REMARK  Name = ZINC49450366
REMARK  4 active torsions:
REMARK  status: ('A' for Active; 'I' for Inactive)
REMARK    1  A    between atoms: C_1  and  C_2
REMARK    2  A    between atoms: C_2  and  N_9
REMARK    3  A    between atoms: C_10  and  C_12
REMARK    4  A    between atoms: C_13  and  O_20
REMARK                            x       y       z     vdW  Elec       q    Type
REMARK                         _______ _______ _______ _____ _____    ______ ____
ROOT
ATOM      1  N   UNL     1       0.731  -0.456  -1.186  0.00  0.00    -0.304 N 
ATOM      2  C   UNL     1       0.300  -0.105  -2.414  0.00  0.00    +0.251 C 
ATOM      3  O   UNL     1      -0.693   0.586  -2.536  0.00  0.00    -0.270 OA
ATOM      4  H   UNL     1       1.523  -1.007  -1.089  0.00  0.00    +0.150 HD
ENDROOT
BRANCH   1   6
ATOM      5  C   UNL     1      -0.019   1.526   0.010  0.00  0.00    +0.033 C 
ATOM      6  C   UNL     1       0.002  -0.004   0.002  0.00  0.00    +0.053 C 
ATOM      7  C   UNL     1      -1.436  -0.513  -0.087  0.00  0.00    +0.049 C 
ATOM      8  C   UNL     1      -1.556  -1.909   0.586  0.00  0.00    +0.168 C 
ATOM      9  S   UNL     1      -0.454  -1.644   2.043  0.00  0.00    -0.029 S 
ATOM     10  O   UNL     1       0.203  -2.864   2.360  0.00  0.00    -0.174 OA
ATOM     11  O   UNL     1      -1.173  -0.950   3.053  0.00  0.00    -0.174 OA
ATOM     12  C   UNL     1       0.751  -0.495   1.257  0.00  0.00    +0.191 C 
ENDBRANCH   1   6
BRANCH   2  13
ATOM     13  C   UNL     1       1.033  -0.559  -3.608  0.00  0.00    +0.113 A 
ATOM     14  C   UNL     1       0.691  -1.771  -4.227  0.00  0.00    +0.134 A 
ATOM     15  C   UNL     1       1.386  -2.190  -5.350  0.00  0.00    +0.084 A 
ATOM     16  C   UNL     1       2.414  -1.415  -5.859  0.00  0.00    +0.130 A 
ATOM     17  C   UNL     1       2.756  -0.216  -5.252  0.00  0.00    +0.077 A 
ATOM     18  C   UNL     1       2.070   0.219  -4.136  0.00  0.00    +0.142 A 
ATOM     19  F   UNL     1       2.403   1.390  -3.551  0.00  0.00    -0.204 F 
ATOM     20  F   UNL     1       3.088  -1.830  -6.955  0.00  0.00    -0.205 F 
BRANCH  14  21
ATOM     21  O   UNL     1      -0.316  -2.531  -3.727  0.00  0.00    -0.506 OA
ATOM     22  H   UNL     1      -1.185  -2.325  -4.098  0.00  0.00    +0.292 HD
ENDBRANCH  14  21
ENDBRANCH   2  13
TORSDOF 3
