REMARK  Name = ZINC63214312
REMARK  4 active torsions:
REMARK  status: ('A' for Active; 'I' for Inactive)
REMARK    1  A    between atoms: C_3  and  N_11
REMARK    2  A    between atoms: C_6  and  N_7
REMARK    3  A    between atoms: N_11  and  C_12
REMARK    4  A    between atoms: C_19  and  N_21
REMARK                            x       y       z     vdW  Elec       q    Type
REMARK                         _______ _______ _______ _____ _____    ______ ____
ROOT
ATOM      1  N   UNL     1       3.582   2.124  -0.021  0.00  0.00    -0.342 N 
ATOM      2  H   UNL     1       4.428   1.649  -0.032  0.00  0.00    +0.146 HD
ENDROOT
BRANCH   1   5
ATOM      3  C   UNL     1      -0.017   1.378   0.010  0.00  0.00    +0.034 A 
ATOM      4  C   UNL     1       1.169   2.087   0.002  0.00  0.00    +0.026 A 
ATOM      5  C   UNL     1       2.381   1.410  -0.013  0.00  0.00    +0.042 A 
ATOM      6  C   UNL     1       2.397   0.020  -0.021  0.00  0.00    +0.041 A 
ATOM      7  C   UNL     1       1.207  -0.682  -0.013  0.00  0.00    +0.049 A 
ATOM      8  C   UNL     1       0.002  -0.004   0.002  0.00  0.00    +0.127 A 
ATOM      9 BR   UNL     1       4.044  -0.908  -0.042  0.00  0.00    -0.048 Br
BRANCH   8  10
ATOM     10  N   UNL     1      -1.270  -0.760   0.010  0.00  0.00    +0.056 N 
ATOM     11  O   UNL     1      -2.325  -0.168   0.023  0.00  0.00    -0.126 OA
ATOM     12  O   UNL     1      -1.256  -1.969   0.003  0.00  0.00    -0.126 OA
ENDBRANCH   8  10
ENDBRANCH   1   5
BRANCH   1  13
ATOM     13  C   UNL     1       3.564   3.589  -0.014  0.00  0.00    +0.056 C 
ATOM     14  C   UNL     1       3.404   4.076   1.439  0.00  0.00    +0.020 C 
ATOM     15  C   UNL     1       3.787   5.521   1.607  0.00  0.00    +0.002 C 
ATOM     16  C   UNL     1       5.263   5.588   2.049  0.00  0.00    +0.000 C 
ATOM     17  C   UNL     1       6.185   5.426   0.934  0.00  0.00    -0.002 C 
ATOM     18  C   UNL     1       6.039   4.053   0.246  0.00  0.00    -0.014 C 
ATOM     19  C   UNL     1       4.855   4.105  -0.676  0.00  0.00    -0.055 C 
BRANCH  19  20
ATOM     20  N   UNL     1       5.143   3.285  -1.861  0.00  0.00    +0.381 N 
ATOM     21  H   UNL     1       4.374   3.352  -2.511  0.00  0.00    -0.090 HD
ATOM     22  H   UNL     1       5.987   3.616  -2.302  0.00  0.00    -0.090 HD
ATOM     23  H   UNL     1       5.263   2.323  -1.582  0.00  0.00    -0.090 HD
ENDBRANCH  19  20
ENDBRANCH   1  13
TORSDOF 4
