REMARK  Name = ZINC48524152
REMARK  9 active torsions:
REMARK  status: ('A' for Active; 'I' for Inactive)
REMARK    1  A    between atoms: C_1  and  C_2
REMARK    2  A    between atoms: C_9  and  N_26
REMARK    3  A    between atoms: C_10  and  C_24
REMARK    4  A    between atoms: C_11  and  C_13
REMARK    5  A    between atoms: C_16  and  O_19
REMARK    6  A    between atoms: O_19  and  C_20
REMARK    7  A    between atoms: C_20  and  C_21
REMARK    8  A    between atoms: C_20  and  C_22
REMARK    9  A    between atoms: C_20  and  C_23
REMARK                            x       y       z     vdW  Elec       q    Type
REMARK                         _______ _______ _______ _____ _____    ______ ____
ROOT
ATOM      1  C   UNL     1       0.494   3.296  -0.423  0.00  0.00    +0.068 C 
ATOM      2  C   UNL     1       0.902   1.850  -0.315  0.00  0.00    +0.068 A 
ATOM      3  C   UNL     1       1.029   0.957  -1.371  0.00  0.00    +0.049 A 
ATOM      4  C   UNL     1       1.418  -0.250  -0.860  0.00  0.00    +0.222 A 
ATOM      5  N   UNL     1       1.527  -0.112   0.471  0.00  0.00    -0.246 N 
ATOM      6  H   UNL     1       1.786  -0.805   1.098  0.00  0.00    +0.192 HD
ATOM      7  N   UNL     1       1.205   1.216   0.793  0.00  0.00    -0.176 NA
ATOM      8  O   UNL     1       1.633  -1.339  -1.639  0.00  0.00    -0.423 OA
ATOM      9  C   UNL     1       1.723  -1.147  -2.971  0.00  0.00    +0.200 C 
ATOM     10  C   UNL     1       1.358  -0.003  -3.592  0.00  0.00    +0.098 C 
ATOM     11  C   UNL     1       0.803   1.183  -2.843  0.00  0.00    +0.101 C 
ENDROOT
BRANCH  11  12
ATOM     12  C   UNL     1      -0.674   1.310  -3.117  0.00  0.00    -0.034 A 
ATOM     13  C   UNL     1      -1.527   0.269  -2.801  0.00  0.00    +0.008 A 
ATOM     14  C   UNL     1      -2.881   0.384  -3.052  0.00  0.00    +0.046 A 
ATOM     15  C   UNL     1      -3.384   1.545  -3.619  0.00  0.00    +0.121 A 
ATOM     16  C   UNL     1      -2.526   2.589  -3.935  0.00  0.00    +0.046 A 
ATOM     17  C   UNL     1      -1.174   2.471  -3.678  0.00  0.00    +0.008 A 
BRANCH  15  18
ATOM     18  O   UNL     1      -4.715   1.660  -3.867  0.00  0.00    -0.487 OA
BRANCH  18  19
ATOM     19  C   UNL     1      -5.177   2.919  -4.362  0.00  0.00    +0.102 C 
ATOM     20  C   UNL     1      -4.542   3.194  -5.727  0.00  0.00    +0.055 C 
ATOM     21  C   UNL     1      -6.699   2.883  -4.506  0.00  0.00    +0.055 C 
ATOM     22  C   UNL     1      -4.783   4.027  -3.384  0.00  0.00    +0.055 C 
ENDBRANCH  18  19
ENDBRANCH  15  18
ENDBRANCH  11  12
BRANCH   9  23
ATOM     23  N   UNL     1       2.214  -2.172  -3.740  0.00  0.00    -0.328 N 
ATOM     24  H   UNL     1       2.484  -3.005  -3.323  0.00  0.00    +0.145 HD
ATOM     25  H   UNL     1       2.291  -2.063  -4.701  0.00  0.00    +0.145 HD
ENDBRANCH   9  23
BRANCH  10  26
ATOM     26  C   UNL     1       1.505   0.086  -5.014  0.00  0.00    +0.101 C 
ATOM     27  N   UNL     1       1.621   0.157  -6.142  0.00  0.00    -0.191 NA
ENDBRANCH  10  26
TORSDOF 5
