REMARK  Name = ZINC61708893
REMARK  6 active torsions:
REMARK  status: ('A' for Active; 'I' for Inactive)
REMARK    1  A    between atoms: C_1  and  C_2
REMARK    2  A    between atoms: C_4  and  N_19
REMARK    3  A    between atoms: C_5  and  S_9
REMARK    4  A    between atoms: C_7  and  C_8
REMARK    5  A    between atoms: S_9  and  N_12
REMARK    6  A    between atoms: C_15  and  O_18
REMARK                            x       y       z     vdW  Elec       q    Type
REMARK                         _______ _______ _______ _____ _____    ______ ____
ROOT
ATOM      1  C   UNL     1      -0.141   1.546   0.160  0.00  0.00    +0.044 C 
ATOM      2  C   UNL     1      -0.117   0.041   0.085  0.00  0.00    -0.046 A 
ATOM      3  C   UNL     1       0.085  -0.586  -1.129  0.00  0.00    +0.028 A 
ATOM      4  C   UNL     1       0.107  -1.973  -1.197  0.00  0.00    +0.051 A 
ATOM      5  C   UNL     1      -0.074  -2.725  -0.043  0.00  0.00    +0.126 A 
ATOM      6  C   UNL     1      -0.276  -2.092   1.168  0.00  0.00    +0.034 A 
ATOM      7  C   UNL     1      -0.292  -0.710   1.233  0.00  0.00    -0.046 A 
ATOM      8  C   UNL     1      -0.506  -0.022   2.557  0.00  0.00    +0.044 C 
ENDROOT
BRANCH   5   9
ATOM      9  S   UNL     1      -0.048  -4.485  -0.124  0.00  0.00    +0.063 S 
ATOM     10  O   UNL     1       1.095  -4.839  -0.891  0.00  0.00    -0.153 OA
ATOM     11  O   UNL     1      -0.251  -4.956   1.202  0.00  0.00    -0.153 OA
BRANCH   9  12
ATOM     12  N   UNL     1      -1.371  -4.955  -1.001  0.00  0.00    -0.174 NA
ATOM     13  C   UNL     1      -2.737  -5.120  -0.473  0.00  0.00    +0.112 C 
ATOM     14  C   UNL     1      -3.662  -4.946  -1.704  0.00  0.00    +0.050 C 
ATOM     15  C   UNL     1      -2.829  -5.633  -2.819  0.00  0.00    +0.131 C 
ATOM     16  C   UNL     1      -1.379  -5.270  -2.437  0.00  0.00    +0.140 C 
BRANCH  15  17
ATOM     17  O   UNL     1      -3.164  -5.099  -4.102  0.00  0.00    -0.390 OA
ATOM     18  H   UNL     1      -4.088  -5.231  -4.354  0.00  0.00    +0.210 HD
ENDBRANCH  15  17
ENDBRANCH   9  12
ENDBRANCH   5   9
BRANCH   4  19
ATOM     19  N   UNL     1       0.311  -2.610  -2.423  0.00  0.00    -0.356 N 
ATOM     20  H   UNL     1       0.331  -2.091  -3.242  0.00  0.00    +0.142 HD
ATOM     21  H   UNL     1       0.432  -3.572  -2.455  0.00  0.00    +0.142 HD
ENDBRANCH   4  19
TORSDOF 4
