REMARK  Name = ZINC09238547
REMARK  3 active torsions:
REMARK  status: ('A' for Active; 'I' for Inactive)
REMARK    1  A    between atoms: C_4  and  C_7
REMARK    2  A    between atoms: C_13  and  C_26
REMARK    3  A    between atoms: C_15  and  C_18
REMARK                            x       y       z     vdW  Elec       q    Type
REMARK                         _______ _______ _______ _____ _____    ______ ____
ROOT
ATOM      1  C   UNL     1       5.560   2.355   0.177  0.00  0.00    +0.182 A 
ATOM      2  N   UNL     1       5.745   2.765   1.412  0.00  0.00    -0.127 NA
ATOM      3  N   UNL     1       4.632   2.731   2.059  0.00  0.00    -0.121 NA
ATOM      4  C   UNL     1       3.681   2.296   1.277  0.00  0.00    +0.210 A 
ATOM      5  N   UNL     1       4.227   2.048   0.050  0.00  0.00    -0.221 N 
ATOM      6  N   UNL     1       3.583   1.599  -1.058  0.00  0.00    -0.272 N 
ATOM      7  C   UNL     1       2.329   0.901  -0.767  0.00  0.00    +0.140 C 
ATOM      8  C   UNL     1       1.359   1.829  -0.025  0.00  0.00    +0.166 C 
ATOM      9  S   UNL     1       1.979   2.043   1.671  0.00  0.00    -0.069 S 
ATOM     10  H   UNL     1       3.435   2.347  -1.718  0.00  0.00    +0.167 HD
ENDROOT
BRANCH   8  11
ATOM     11  C   UNL     1      -0.014   1.209   0.009  0.00  0.00    +0.231 C 
ATOM     12  O   UNL     1      -0.135   0.002   0.021  0.00  0.00    -0.274 OA
ATOM     13  N   UNL     1      -1.109   1.995   0.019  0.00  0.00    -0.301 N 
ATOM     14  C   UNL     1      -2.451   1.409   0.138  0.00  0.00    +0.108 C 
ATOM     15  C   UNL     1      -3.176   2.084   1.312  0.00  0.00    +0.019 C 
ATOM     16  C   UNL     1      -3.169   3.600   1.104  0.00  0.00    +0.003 C 
ATOM     17  C   UNL     1      -1.725   4.107   1.075  0.00  0.00    +0.019 C 
ATOM     18  C   UNL     1      -0.983   3.454  -0.096  0.00  0.00    +0.108 C 
ENDBRANCH   8  11
BRANCH   7  19
ATOM     19  C   UNL     1       1.700   0.454  -2.061  0.00  0.00    -0.024 A 
ATOM     20  C   UNL     1       1.707   1.294  -3.159  0.00  0.00    +0.008 A 
ATOM     21  C   UNL     1       1.136   0.883  -4.348  0.00  0.00    +0.038 A 
ATOM     22  C   UNL     1       0.546  -0.366  -4.437  0.00  0.00    +0.123 A 
ATOM     23  C   UNL     1       0.535  -1.205  -3.335  0.00  0.00    +0.038 A 
ATOM     24  C   UNL     1       1.112  -0.794  -2.149  0.00  0.00    +0.008 A 
ATOM     25  F   UNL     1      -0.017  -0.767  -5.597  0.00  0.00    -0.205 F 
ENDBRANCH   7  19
BRANCH   1  29
ATOM     26  C   UNL     1       8.524   2.038  -2.849  0.00  0.00    +0.000 A 
ATOM     27  C   UNL     1       8.785   2.768  -1.703  0.00  0.00    +0.001 A 
ATOM     28  C   UNL     1       7.827   2.875  -0.716  0.00  0.00    +0.011 A 
ATOM     29  C   UNL     1       6.592   2.245  -0.876  0.00  0.00    +0.021 A 
ATOM     30  C   UNL     1       6.337   1.507  -2.033  0.00  0.00    +0.011 A 
ATOM     31  C   UNL     1       7.302   1.412  -3.014  0.00  0.00    +0.001 A 
ENDBRANCH   1  29
TORSDOF 3
