REMARK  Name = ZINC41108062
REMARK  4 active torsions:
REMARK  status: ('A' for Active; 'I' for Inactive)
REMARK    1  A    between atoms: C_1  and  C_2
REMARK    2  A    between atoms: C_7  and  C_8
REMARK    3  A    between atoms: C_14  and  C_15
REMARK    4  A    between atoms: N_19  and  C_20
REMARK                            x       y       z     vdW  Elec       q    Type
REMARK                         _______ _______ _______ _____ _____    ______ ____
ROOT
ATOM      1  C   UNL     1       2.767   0.255   2.231  0.00  0.00    +0.130 C 
ATOM      2  N   UNL     1       2.084   1.340   2.505  0.00  0.00    -0.164 NA
ATOM      3  N   UNL     1       1.786   1.681   3.807  0.00  0.00    -0.152 N 
ATOM      4  C   UNL     1       0.983   2.769   4.211  0.00  0.00    +0.153 C 
ATOM      5  N   UNL     1       0.093   3.332   3.434  0.00  0.00    -0.283 NA
ATOM      6  C   UNL     1       1.247   3.212   5.606  0.00  0.00    +0.082 C 
ATOM      7  C   UNL     1       1.136   4.541   5.983  0.00  0.00    +0.042 C 
ATOM      8  C   UNL     1       1.635   2.158   6.571  0.00  0.00    +0.273 C 
ATOM      9  O   UNL     1       1.437   2.299   7.768  0.00  0.00    -0.268 OA
ATOM     10  N   UNL     1       2.215   1.040   6.091  0.00  0.00    -0.152 NA
ATOM     11  C   UNL     1       2.296   0.867   4.796  0.00  0.00    +0.181 C 
ATOM     12  S   UNL     1       3.076  -0.420   3.857  0.00  0.00    -0.033 S 
ATOM     13  H   UNL     1      -0.041   3.004   2.532  0.00  0.00    +0.188 HD
ENDROOT
BRANCH   1  20
ATOM     14  C   UNL     1       2.044   1.688  -0.176  0.00  0.00    +0.044 C 
ATOM     15  C   UNL     1       2.830   0.404  -0.255  0.00  0.00    -0.041 A 
ATOM     16  C   UNL     1       3.216  -0.096  -1.482  0.00  0.00    +0.004 A 
ATOM     17  C   UNL     1       3.937  -1.274  -1.557  0.00  0.00    +0.000 A 
ATOM     18  C   UNL     1       4.274  -1.959  -0.403  0.00  0.00    +0.001 A 
ATOM     19  C   UNL     1       3.894  -1.470   0.829  0.00  0.00    +0.011 A 
ATOM     20  C   UNL     1       3.172  -0.279   0.911  0.00  0.00    +0.012 A 
ENDBRANCH   1  20
BRANCH   7  21
ATOM     21  C   UNL     1       1.478   4.932   7.291  0.00  0.00    +0.047 A 
ATOM     22  C   UNL     1       2.576   5.697   7.660  0.00  0.00    +0.027 A 
ATOM     23  C   UNL     1       2.526   5.843   9.046  0.00  0.00    +0.020 A 
ATOM     24  C   UNL     1       1.429   5.185   9.499  0.00  0.00    +0.092 A 
ATOM     25  N   UNL     1       0.778   4.632   8.443  0.00  0.00    -0.316 N 
BRANCH  25  26
ATOM     26  C   UNL     1      -0.401   3.880   8.512  0.00  0.00    +0.047 A 
ATOM     27  C   UNL     1      -1.466   4.177   7.671  0.00  0.00    +0.027 A 
ATOM     28  C   UNL     1      -2.628   3.434   7.741  0.00  0.00    +0.022 A 
ATOM     29  C   UNL     1      -2.732   2.394   8.648  0.00  0.00    +0.041 A 
ATOM     30  C   UNL     1      -1.673   2.096   9.488  0.00  0.00    +0.022 A 
ATOM     31  C   UNL     1      -0.506   2.832   9.417  0.00  0.00    +0.027 A 
ATOM     32 CL   UNL     1      -4.194   1.463   8.734  0.00  0.00    -0.084 Cl
ENDBRANCH  25  26
ENDBRANCH   7  21
TORSDOF 3
