REMARK  Name = ZINC39596487
REMARK  12 active torsions:
REMARK  status: ('A' for Active; 'I' for Inactive)
REMARK    1  A    between atoms: C_1  and  C_2
REMARK    2  A    between atoms: C_2  and  C_4
REMARK    3  A    between atoms: C_2  and  O_33
REMARK    4  A    between atoms: C_4  and  N_5
REMARK    5  A    between atoms: C_6  and  C_8
REMARK    6  A    between atoms: C_19  and  C_21
REMARK    7  A    between atoms: C_21  and  C_23
REMARK    8  A    between atoms: C_21  and  O_26
REMARK    9  A    between atoms: C_23  and  C_24
REMARK   10  A    between atoms: C_23  and  C_25
REMARK   11  A    between atoms: O_26  and  C_27
REMARK   12  A    between atoms: O_33  and  C_34
REMARK                            x       y       z     vdW  Elec       q    Type
REMARK                         _______ _______ _______ _____ _____    ______ ____
ROOT
ATOM      1  C   UNL     1      -0.287  -2.016   2.058  0.00  0.00    +0.100 C 
ATOM      2  C   UNL     1       0.870  -2.264   1.066  0.00  0.00    +0.121 C 
ATOM      3  N   UNL     1       1.924  -2.920   1.876  0.00  0.00    -0.297 N 
ATOM      4  C   UNL     1       1.182  -3.841   2.769  0.00  0.00    +0.115 C 
ATOM      5  C   UNL     1      -0.082  -3.055   3.173  0.00  0.00    -0.004 C 
ATOM      6  C   UNL     1      -1.284  -3.992   3.251  0.00  0.00    -0.010 C 
ATOM      7  C   UNL     1      -1.082  -4.979   4.404  0.00  0.00    -0.082 C 
ATOM      8  N   UNL     1      -0.930  -4.240   5.663  0.00  0.00    +0.379 N 
ATOM      9  C   UNL     1       0.281  -3.411   5.614  0.00  0.00    -0.082 C 
ATOM     10  C   UNL     1       0.137  -2.358   4.512  0.00  0.00    -0.010 C 
ATOM     11  C   UNL     1       3.256  -2.723   1.814  0.00  0.00    +0.257 C 
ATOM     12  O   UNL     1       4.000  -3.398   2.493  0.00  0.00    -0.272 OA
ATOM     13  H   UNL     1      -1.735  -3.648   5.803  0.00  0.00    -0.086 HD
ATOM     14  H   UNL     1      -0.859  -4.893   6.428  0.00  0.00    -0.086 HD
ENDROOT
BRANCH   1  16
ATOM     15  N   UNL     1      -1.316  -0.018   3.091  0.00  0.00    -0.312 N 
ATOM     16  C   UNL     1      -0.206  -0.620   2.621  0.00  0.00    +0.218 C 
ATOM     17  O   UNL     1       0.858  -0.039   2.651  0.00  0.00    -0.275 OA
ATOM     18  H   UNL     1      -2.167  -0.482   3.068  0.00  0.00    +0.149 HD
BRANCH  15  19
ATOM     19  C   UNL     1      -1.238   1.339   3.639  0.00  0.00    +0.148 C 
BRANCH  19  21
ATOM     20  C   UNL     1      -2.545   3.202   4.671  0.00  0.00    +0.053 C 
ATOM     21  C   UNL     1      -2.627   1.785   4.099  0.00  0.00    +0.187 C 
BRANCH  21  22
ATOM     22  O   UNL     1      -3.525   1.771   2.988  0.00  0.00    -0.488 OA
BRANCH  22  23
ATOM     23  C   UNL     1      -4.850   1.651   3.266  0.00  0.00    +0.121 A 
ATOM     24  C   UNL     1      -5.765   1.505   2.235  0.00  0.00    +0.048 A 
ATOM     25  C   UNL     1      -7.112   1.383   2.519  0.00  0.00    +0.042 A 
ATOM     26  C   UNL     1      -7.548   1.408   3.833  0.00  0.00    +0.124 A 
ATOM     27  C   UNL     1      -6.635   1.554   4.864  0.00  0.00    +0.042 A 
ATOM     28  C   UNL     1      -5.287   1.669   4.582  0.00  0.00    +0.048 A 
ATOM     29  F   UNL     1      -8.865   1.289   4.109  0.00  0.00    -0.205 F 
ENDBRANCH  22  23
ENDBRANCH  21  22
ENDBRANCH  19  21
ENDBRANCH  15  19
ENDBRANCH   1  16
BRANCH  11  30
ATOM     30  C   UNL     1       3.820  -1.665   0.900  0.00  0.00    +0.261 C 
BRANCH  30  31
ATOM     31  C   UNL     1       4.039  -2.258  -0.493  0.00  0.00    +0.033 C 
ATOM     32  C   UNL     1       2.695  -2.700  -1.076  0.00  0.00    +0.011 C 
ATOM     33  C   UNL     1       4.668  -1.202  -1.404  0.00  0.00    +0.011 C 
ENDBRANCH  30  31
BRANCH  30  34
ATOM     34  O   UNL     1       5.067  -1.201   1.422  0.00  0.00    -0.479 OA
BRANCH  34  35
ATOM     35  C   UNL     1       5.370   0.108   1.222  0.00  0.00    +0.122 A 
ATOM     36  C   UNL     1       4.470   0.939   0.571  0.00  0.00    +0.045 A 
ATOM     37  C   UNL     1       4.780   2.269   0.369  0.00  0.00    +0.004 A 
ATOM     38  C   UNL     1       5.987   2.774   0.815  0.00  0.00    +0.000 A 
ATOM     39  C   UNL     1       6.887   1.949   1.464  0.00  0.00    +0.004 A 
ATOM     40  C   UNL     1       6.579   0.618   1.674  0.00  0.00    +0.045 A 
ENDBRANCH  34  35
ENDBRANCH  30  34
ENDBRANCH  11  30
TORSDOF 9
