REMARK  Name = ZINC63920224
REMARK  7 active torsions:
REMARK  status: ('A' for Active; 'I' for Inactive)
REMARK    1  A    between atoms: C_7  and  C_10
REMARK    2  A    between atoms: C_10  and  C_11
REMARK    3  A    between atoms: C_11  and  C_13
REMARK    4  A    between atoms: C_11  and  N_26
REMARK    5  A    between atoms: N_15  and  C_16
REMARK    6  A    between atoms: C_16  and  C_17
REMARK    7  A    between atoms: C_27  and  C_29
REMARK                            x       y       z     vdW  Elec       q    Type
REMARK                         _______ _______ _______ _____ _____    ______ ____
ROOT
ATOM      1  C   UNL     1       0.457  -3.653  -1.462  0.00  0.00    +0.163 C 
ENDROOT
BRANCH   1   2
ATOM      2  C   UNL     1      -0.385  -4.904  -1.452  0.00  0.00    +0.234 C 
ATOM      3  O   UNL     1      -1.459  -4.916  -2.016  0.00  0.00    -0.274 OA
ATOM      4  N   UNL     1       0.057  -6.008  -0.819  0.00  0.00    -0.307 N 
ATOM      5  H   UNL     1       0.915  -5.998  -0.368  0.00  0.00    +0.149 HD
BRANCH   4   6
ATOM      6  C   UNL     1      -0.761  -7.224  -0.810  0.00  0.00    +0.181 C 
BRANCH   6   7
ATOM      7  C   UNL     1      -0.047  -8.304  -0.040  0.00  0.00    +0.155 A 
ATOM      8  N   UNL     1       0.794  -9.178  -0.532  0.00  0.00    -0.132 NA
ATOM      9  N   UNL     1       1.222  -9.957   0.398  0.00  0.00    -0.129 NA
ATOM     10  C   UNL     1       0.668  -9.617   1.550  0.00  0.00    +0.161 A 
ATOM     11  N   UNL     1      -0.153  -8.546   1.295  0.00  0.00    -0.285 N 
ATOM     12  C   UNL     1      -0.864  -7.965   2.303  0.00  0.00    +0.094 A 
ATOM     13  C   UNL     1      -0.769  -8.431   3.566  0.00  0.00    +0.018 A 
ATOM     14  C   UNL     1       0.065  -9.523   3.859  0.00  0.00    +0.005 A 
ATOM     15  C   UNL     1       0.774 -10.118   2.862  0.00  0.00    +0.048 A 
ENDBRANCH   6   7
ENDBRANCH   4   6
ENDBRANCH   1   2
BRANCH   1  16
ATOM     16  N   UNL     1      -0.238  -2.603  -2.210  0.00  0.00    -0.300 N 
ATOM     17  C   UNL     1       0.465  -1.608  -2.785  0.00  0.00    +0.246 C 
ATOM     18  O   UNL     1       1.677  -1.582  -2.683  0.00  0.00    -0.270 OA
ATOM     19  H   UNL     1      -1.204  -2.624  -2.292  0.00  0.00    +0.150 HD
BRANCH  17  20
ATOM     20  C   UNL     1      -0.235  -0.548  -3.540  0.00  0.00    +0.055 A 
ATOM     21  C   UNL     1      -1.627  -0.572  -3.655  0.00  0.00    +0.014 A 
ATOM     22  C   UNL     1      -2.275   0.421  -4.360  0.00  0.00    +0.001 A 
ATOM     23  C   UNL     1      -1.549   1.438  -4.955  0.00  0.00    +0.001 A 
ATOM     24  C   UNL     1      -0.171   1.469  -4.847  0.00  0.00    +0.021 A 
ATOM     25  C   UNL     1       0.491   0.485  -4.138  0.00  0.00    +0.053 A 
ATOM     26 CL   UNL     1       2.220   0.528  -3.996  0.00  0.00    -0.083 Cl
ENDBRANCH  17  20
ENDBRANCH   1  16
BRANCH   1  27
ATOM     27  C   UNL     1       0.691  -3.186  -0.024  0.00  0.00    +0.065 C 
BRANCH  27  34
ATOM     28  C   UNL     1      -0.016   1.348   0.009  0.00  0.00    +0.001 A 
ATOM     29  C   UNL     1       1.166   2.101   0.002  0.00  0.00    +0.002 A 
ATOM     30  C   UNL     1       2.391   1.535  -0.013  0.00  0.00    +0.026 A 
ATOM     31  C   UNL     1       2.529   0.120  -0.022  0.00  0.00    +0.043 A 
ATOM     32  N   UNL     1       3.587  -0.654  -0.037  0.00  0.00    -0.380 N 
ATOM     33  C   UNL     1       3.143  -2.053  -0.041  0.00  0.00    +0.144 C 
ATOM     34  C   UNL     1       1.631  -2.008  -0.025  0.00  0.00    -0.039 C 
ATOM     35  C   UNL     1       1.295  -0.698  -0.014  0.00  0.00    -0.001 A 
ATOM     36  C   UNL     1       0.002  -0.004   0.002  0.00  0.00    +0.010 A 
ATOM     37  H   UNL     1       4.509  -0.353  -0.045  0.00  0.00    +0.160 HD
ENDBRANCH  27  34
ENDBRANCH   1  27
TORSDOF 7
