REMARK  Name = ZINC47400384
REMARK  5 active torsions:
REMARK  status: ('A' for Active; 'I' for Inactive)
REMARK    1  A    between atoms: C_1  and  C_2
REMARK    2  A    between atoms: C_4  and  C_8
REMARK    3  A    between atoms: C_6  and  C_7
REMARK    4  A    between atoms: C_14  and  C_17
REMARK    5  A    between atoms: C_17  and  N_18
REMARK                            x       y       z     vdW  Elec       q    Type
REMARK                         _______ _______ _______ _____ _____    ______ ____
ROOT
ATOM      1  C   UNL     1       0.034  -3.085  -2.144  0.00  0.00    +0.253 C 
ATOM      2  O   UNL     1      -0.097  -2.745  -3.305  0.00  0.00    -0.269 OA
ATOM      3  N   UNL     1       0.155  -4.391  -1.833  0.00  0.00    -0.297 N 
ATOM      4  C   UNL     1       0.163  -4.829  -0.431  0.00  0.00    +0.108 C 
ATOM      5  C   UNL     1      -0.909  -5.908  -0.246  0.00  0.00    +0.019 C 
ATOM      6  C   UNL     1      -0.676  -7.033  -1.257  0.00  0.00    +0.008 C 
ATOM      7  C   UNL     1      -0.792  -6.475  -2.678  0.00  0.00    +0.024 C 
ATOM      8  C   UNL     1       0.275  -5.404  -2.891  0.00  0.00    +0.113 C 
ENDROOT
BRANCH   1  12
ATOM      9  C   UNL     1      -0.742   1.365   0.155  0.00  0.00    +0.044 C 
ATOM     10  C   UNL     1      -0.255  -0.058   0.058  0.00  0.00    -0.040 A 
ATOM     11  C   UNL     1      -0.425  -0.775  -1.101  0.00  0.00    +0.024 A 
ATOM     12  C   UNL     1       0.059  -2.074  -1.083  0.00  0.00    +0.075 A 
ATOM     13  S   UNL     1       0.722  -2.194   0.568  0.00  0.00    -0.089 S 
ATOM     14  C   UNL     1       0.362  -0.646   1.113  0.00  0.00    -0.010 A 
ATOM     15  C   UNL     1       0.657  -0.048   2.464  0.00  0.00    +0.052 C 
ENDBRANCH   1  12
BRANCH   7  16
ATOM     16  C   UNL     1      -0.592  -7.607  -3.688  0.00  0.00    +0.110 C 
BRANCH  16  17
ATOM     17  N   UNL     1      -0.821  -7.098  -5.043  0.00  0.00    -0.299 N 
ATOM     18  C   UNL     1      -0.700  -7.923  -6.102  0.00  0.00    +0.297 C 
ATOM     19  O   UNL     1      -0.401  -9.089  -5.933  0.00  0.00    -0.253 OA
ATOM     20  N   UNL     1      -0.911  -7.455  -7.348  0.00  0.00    -0.313 N 
ATOM     21  H   UNL     1      -1.060  -6.168  -5.177  0.00  0.00    +0.150 HD
ATOM     22  H   UNL     1      -1.150  -6.525  -7.483  0.00  0.00    +0.146 HD
ATOM     23  H   UNL     1      -0.824  -8.049  -8.110  0.00  0.00    +0.146 HD
ENDBRANCH  16  17
ENDBRANCH   7  16
TORSDOF 3
