REMARK  Name = ZINC37055132
REMARK  5 active torsions:
REMARK  status: ('A' for Active; 'I' for Inactive)
REMARK    1  A    between atoms: C_1  and  C_2
REMARK    2  A    between atoms: C_5  and  N_19
REMARK    3  A    between atoms: C_6  and  C_18
REMARK    4  A    between atoms: C_7  and  S_8
REMARK    5  A    between atoms: S_8  and  N_11
REMARK                            x       y       z     vdW  Elec       q    Type
REMARK                         _______ _______ _______ _____ _____    ______ ____
ROOT
ATOM      1  C   UNL     1      -0.228   0.970  -0.011  0.00  0.00    +0.046 C 
ATOM      2  C   UNL     1      -0.090  -0.520   0.166  0.00  0.00    -0.024 A 
ATOM      3  C   UNL     1      -0.317  -1.366  -0.904  0.00  0.00    +0.007 A 
ATOM      4  C   UNL     1      -0.192  -2.732  -0.745  0.00  0.00    +0.023 A 
ATOM      5  C   UNL     1       0.164  -3.256   0.491  0.00  0.00    +0.029 A 
ATOM      6  C   UNL     1       0.392  -2.404   1.564  0.00  0.00    -0.003 A 
ATOM      7  C   UNL     1       0.270  -1.038   1.397  0.00  0.00    +0.113 A 
ATOM      8  C   UNL     1       0.777  -2.968   2.907  0.00  0.00    +0.048 C 
ENDROOT
BRANCH   7   9
ATOM      9  S   UNL     1       0.565   0.045   2.755  0.00  0.00    +0.062 S 
ATOM     10  O   UNL     1       1.292  -0.703   3.720  0.00  0.00    -0.153 OA
ATOM     11  O   UNL     1       1.056   1.260   2.206  0.00  0.00    -0.153 OA
BRANCH   9  12
ATOM     12  N   UNL     1      -0.905   0.392   3.434  0.00  0.00    -0.166 NA
ATOM     13  C   UNL     1      -1.641   1.617   3.081  0.00  0.00    +0.128 C 
ATOM     14  C   UNL     1      -2.975   1.208   2.452  0.00  0.00    +0.121 C 
ATOM     15  N   UNL     1      -3.625   0.174   3.246  0.00  0.00    -0.313 N 
ATOM     16  C   UNL     1      -2.993  -0.635   4.098  0.00  0.00    +0.229 C 
ATOM     17  O   UNL     1      -3.630  -1.511   4.644  0.00  0.00    -0.274 OA
ATOM     18  C   UNL     1      -1.530  -0.514   4.409  0.00  0.00    +0.205 C 
ATOM     19  H   UNL     1      -4.584   0.067   3.149  0.00  0.00    +0.149 HD
ENDBRANCH   9  12
ENDBRANCH   7   9
BRANCH   5  20
ATOM     20  N   UNL     1       0.292  -4.637   0.656  0.00  0.00    -0.358 N 
ATOM     21  H   UNL     1       0.132  -5.232  -0.094  0.00  0.00    +0.142 HD
ATOM     22  H   UNL     1       0.540  -5.002   1.520  0.00  0.00    +0.142 HD
ENDBRANCH   5  20
TORSDOF 3
