REMARK  Name = ZINC62800126
REMARK  3 active torsions:
REMARK  status: ('A' for Active; 'I' for Inactive)
REMARK    1  A    between atoms: C_5  and  O_7
REMARK    2  A    between atoms: O_7  and  C_8
REMARK    3  A    between atoms: C_14  and  O_16
REMARK                            x       y       z     vdW  Elec       q    Type
REMARK                         _______ _______ _______ _____ _____    ______ ____
ROOT
ATOM      1  C   UNL     1      -0.043   1.313  -0.636  0.00  0.00    +0.004 A 
ATOM      2  C   UNL     1       1.127   2.039  -0.652  0.00  0.00    +0.012 A 
ATOM      3  C   UNL     1       2.359   1.396  -0.455  0.00  0.00    +0.024 A 
ATOM      4  C   UNL     1       2.385   0.019  -0.242  0.00  0.00    +0.005 A 
ATOM      5  C   UNL     1       1.200  -0.701  -0.227  0.00  0.00    +0.125 A 
ATOM      6  C   UNL     1      -0.012  -0.053  -0.425  0.00  0.00    +0.046 A 
ATOM      7  C   UNL     1       3.812  -0.439  -0.058  0.00  0.00    +0.047 C 
ATOM      8  C   UNL     1       4.687   0.817  -0.180  0.00  0.00    +0.084 C 
ATOM      9  C   UNL     1       3.723   1.951  -0.431  0.00  0.00    +0.164 C 
ATOM     10  O   UNL     1       4.020   3.116  -0.586  0.00  0.00    -0.292 OA
ENDROOT
BRANCH   5  11
ATOM     11  O   UNL     1       1.224  -2.043  -0.021  0.00  0.00    -0.486 OA
BRANCH  11  12
ATOM     12  C   UNL     1      -0.037  -2.705   0.100  0.00  0.00    +0.202 C 
ATOM     13  C   UNL     1      -0.569  -3.045  -1.294  0.00  0.00    +0.047 C 
ATOM     14  C   UNL     1      -1.919  -3.753  -1.165  0.00  0.00    +0.004 C 
ATOM     15  C   UNL     1      -1.745  -5.041  -0.356  0.00  0.00    +0.003 C 
ATOM     16  C   UNL     1      -1.212  -4.700   1.037  0.00  0.00    +0.035 C 
ATOM     17  C   UNL     1       0.138  -3.992   0.908  0.00  0.00    +0.155 C 
BRANCH  17  18
ATOM     18  O   UNL     1       1.064  -4.851   0.241  0.00  0.00    -0.388 OA
ATOM     19  H   UNL     1       1.224  -5.689   0.698  0.00  0.00    +0.210 HD
ENDBRANCH  17  18
ENDBRANCH  11  12
ENDBRANCH   5  11
TORSDOF 3
