REMARK  Name = ZINC42064091
REMARK  3 active torsions:
REMARK  status: ('A' for Active; 'I' for Inactive)
REMARK    1  A    between atoms: C_1  and  N_2
REMARK    2  A    between atoms: C_9  and  N_13
REMARK    3  A    between atoms: N_13  and  C_14
REMARK                            x       y       z     vdW  Elec       q    Type
REMARK                         _______ _______ _______ _____ _____    ______ ____
ROOT
ATOM      1  C   UNL     1      -0.018   1.461   0.010  0.00  0.00    +0.138 C 
ATOM      2  N   UNL     1       0.002  -0.004   0.002  0.00  0.00    -0.273 N 
ATOM      3  C   UNL     1      -1.146  -0.797   0.003  0.00  0.00    +0.041 A 
ATOM      4  C   UNL     1      -2.495  -0.448   0.012  0.00  0.00    +0.024 A 
ATOM      5  C   UNL     1      -3.464  -1.429   0.011  0.00  0.00    +0.002 A 
ATOM      6  C   UNL     1      -3.107  -2.765   0.002  0.00  0.00    +0.000 A 
ATOM      7  C   UNL     1      -1.769  -3.120  -0.007  0.00  0.00    +0.007 A 
ATOM      8  C   UNL     1      -0.800  -2.143  -0.007  0.00  0.00    -0.000 A 
ATOM      9  C   UNL     1       0.711  -2.193  -0.015  0.00  0.00    +0.174 C 
ATOM     10  C   UNL     1       1.128  -0.738  -0.013  0.00  0.00    +0.241 C 
ATOM     11  O   UNL     1       2.264  -0.314  -0.022  0.00  0.00    -0.273 OA
ENDROOT
BRANCH   9  12
ATOM     12  N   UNL     1       1.209  -2.880   1.185  0.00  0.00    -0.291 NA
ATOM     13  H   UNL     1       1.224  -2.257   1.978  0.00  0.00    +0.124 HD
BRANCH  12  14
ATOM     14  C   UNL     1       2.538  -3.459   0.946  0.00  0.00    +0.141 C 
ATOM     15  C   UNL     1       3.280  -3.609   2.276  0.00  0.00    +0.028 C 
ATOM     16  C   UNL     1       2.315  -3.959   3.394  0.00  0.00    +0.003 C 
ATOM     17  C   UNL     1       1.684  -5.332   3.252  0.00  0.00    +0.019 C 
ATOM     18  C   UNL     1       0.754  -5.382   2.038  0.00  0.00    +0.104 C 
ATOM     19  N   UNL     1       1.550  -5.721   0.848  0.00  0.00    -0.314 N 
ATOM     20  C   UNL     1       2.390  -4.828   0.316  0.00  0.00    +0.230 C 
ATOM     21  O   UNL     1       3.039  -5.114  -0.668  0.00  0.00    -0.274 OA
ATOM     22  H   UNL     1       1.464  -6.599   0.445  0.00  0.00    +0.149 HD
ENDBRANCH  12  14
ENDBRANCH   9  12
TORSDOF 2
