REMARK  Name = ZINC49725905
REMARK  8 active torsions:
REMARK  status: ('A' for Active; 'I' for Inactive)
REMARK    1  A    between atoms: C_1  and  C_2
REMARK    2  A    between atoms: C_2  and  C_4
REMARK    3  A    between atoms: C_2  and  N_9
REMARK    4  A    between atoms: N_9  and  C_10
REMARK    5  A    between atoms: N_9  and  C_11
REMARK    6  A    between atoms: C_11  and  C_12
REMARK    7  A    between atoms: N_14  and  C_15
REMARK    8  A    between atoms: C_19  and  N_21
REMARK                            x       y       z     vdW  Elec       q    Type
REMARK                         _______ _______ _______ _____ _____    ______ ____
ROOT
ATOM      1  C   UNL     1       2.735  -0.353  -2.512  0.00  0.00    +0.201 C 
ATOM      2  O   UNL     1       2.125  -0.995  -3.342  0.00  0.00    -0.278 OA
ATOM      3  N   UNL     1       4.012   0.010  -2.747  0.00  0.00    -0.287 N 
ATOM      4  H   UNL     1       4.478   0.579  -2.114  0.00  0.00    +0.155 HD
ENDROOT
BRANCH   3   5
ATOM      5  C   UNL     1       4.665  -0.433  -3.903  0.00  0.00    +0.035 A 
ATOM      6  C   UNL     1       6.021  -0.732  -3.864  0.00  0.00    +0.025 A 
ATOM      7  C   UNL     1       6.667  -1.169  -5.004  0.00  0.00    +0.023 A 
ATOM      8  C   UNL     1       5.966  -1.312  -6.187  0.00  0.00    +0.062 A 
ATOM      9  C   UNL     1       4.609  -1.014  -6.232  0.00  0.00    +0.045 A 
ATOM     10  C   UNL     1       3.957  -0.580  -5.087  0.00  0.00    +0.047 A 
ATOM     11 CL   UNL     1       6.782  -1.861  -7.617  0.00  0.00    -0.082 Cl
BRANCH   9  12
ATOM     12  N   UNL     1       3.901  -1.157  -7.428  0.00  0.00    -0.357 N 
ATOM     13  H   UNL     1       4.356  -1.465  -8.228  0.00  0.00    +0.142 HD
ATOM     14  H   UNL     1       2.954  -0.950  -7.459  0.00  0.00    +0.142 HD
ENDBRANCH   9  12
ENDBRANCH   3   5
BRANCH   1  15
ATOM     15  C   UNL     1       2.066   0.037  -1.220  0.00  0.00    +0.019 C 
BRANCH  15  16
ATOM     16  N   UNL     1       0.689  -0.475  -1.207  0.00  0.00    +0.388 N 
ATOM     17  C   UNL     1       0.713  -1.944  -1.205  0.00  0.00    -0.095 C 
ATOM     18  H   UNL     1       0.201  -0.148  -2.028  0.00  0.00    -0.081 HD
BRANCH  16  20
ATOM     19  C   UNL     1      -0.026   1.535  -0.005  0.00  0.00    -0.008 C 
ATOM     20  C   UNL     1      -0.001   0.005  -0.003  0.00  0.00    -0.034 C 
BRANCH  20  21
ATOM     21  C   UNL     1      -1.414  -0.520   0.010  0.00  0.00    -0.024 A 
ATOM     22  C   UNL     1      -2.144  -0.982   1.054  0.00  0.00    +0.009 A 
ATOM     23  C   UNL     1      -3.436  -1.418   0.829  0.00  0.00    +0.008 A 
ATOM     24  C   UNL     1      -3.935  -1.371  -0.430  0.00  0.00    +0.045 A 
ATOM     25  S   UNL     1      -2.563  -0.688  -1.346  0.00  0.00    -0.103 S 
ENDBRANCH  20  21
ENDBRANCH  16  20
ENDBRANCH  15  16
ENDBRANCH   1  15
TORSDOF 6
