REMARK  Name = ZINC40560340
REMARK  6 active torsions:
REMARK  status: ('A' for Active; 'I' for Inactive)
REMARK    1  A    between atoms: C_1  and  C_2
REMARK    2  A    between atoms: C_2  and  C_3
REMARK    3  A    between atoms: C_3  and  CA_4
REMARK    4  A    between atoms: CA_4  and  C_6
REMARK    5  A    between atoms: CA_4  and  N_9
REMARK    6  A    between atoms: N_12  and  C_13
REMARK                            x       y       z     vdW  Elec       q    Type
REMARK                         _______ _______ _______ _____ _____    ______ ____
ROOT
ATOM      1  N   UNL     1       1.559  -2.518  -0.155  0.00  0.00    -0.286 N 
ATOM      2  C   UNL     1       1.332  -3.742   0.362  0.00  0.00    +0.305 C 
ATOM      3  O   UNL     1       0.459  -4.447  -0.105  0.00  0.00    -0.252 OA
ATOM      4  N   UNL     1       2.073  -4.184   1.397  0.00  0.00    -0.268 N 
ATOM      5  H   UNL     1       2.256  -1.955   0.218  0.00  0.00    +0.151 HD
ATOM      6  H   UNL     1       2.812  -3.649   1.728  0.00  0.00    +0.156 HD
ENDROOT
BRANCH   4   7
ATOM      7  C   UNL     1       1.776  -5.415   1.996  0.00  0.00    +0.053 A 
ATOM      8  C   UNL     1       1.304  -6.467   1.223  0.00  0.00    +0.026 A 
ATOM      9  C   UNL     1       1.013  -7.681   1.815  0.00  0.00    +0.017 A 
ATOM     10  C   UNL     1       1.191  -7.848   3.177  0.00  0.00    +0.019 A 
ATOM     11  C   UNL     1       1.661  -6.802   3.950  0.00  0.00    +0.037 A 
ATOM     12  C   UNL     1       1.960  -5.587   3.362  0.00  0.00    +0.063 A 
ATOM     13 CL   UNL     1       2.557  -4.276   4.331  0.00  0.00    -0.082 Cl
ATOM     14 BR   UNL     1       0.790  -9.511   3.984  0.00  0.00    -0.050 Br
ENDBRANCH   4   7
BRANCH   1  15
ATOM     15  CA  UNL     1       0.753  -2.038  -1.281  0.00  0.00    +0.187 C 
BRANCH  15  16
ATOM     16  C   UNL     1       1.348  -2.535  -2.573  0.00  0.00    +0.376 C 
ATOM     17  O   UNL     1       2.445  -3.069  -2.573  0.00  0.00    -0.244 OA
ATOM     18  OXT UNL     1       0.734  -2.404  -3.617  0.00  0.00    -0.244 OA
ENDBRANCH  15  16
BRANCH  15  19
ATOM     19  C   UNL     1       0.740  -0.507  -1.282  0.00  0.00    +0.034 C 
BRANCH  19  21
ATOM     20  C   UNL     1       0.010   1.527  -0.028  0.00  0.00    +0.004 C 
ATOM     21  C   UNL     1       0.024  -0.003  -0.027  0.00  0.00    -0.001 C 
ENDBRANCH  19  21
ENDBRANCH  15  19
ENDBRANCH   1  15
TORSDOF 5
