REMARK  Name = ZINC39140953
REMARK  9 active torsions:
REMARK  status: ('A' for Active; 'I' for Inactive)
REMARK    1  A    between atoms: C_1  and  O_2
REMARK    2  A    between atoms: O_2  and  C_3
REMARK    3  A    between atoms: C_5  and  C_10
REMARK    4  A    between atoms: C_8  and  O_9
REMARK    5  A    between atoms: C_11  and  C_12
REMARK    6  A    between atoms: C_11  and  C_14
REMARK    7  A    between atoms: C_17  and  C_20
REMARK    8  A    between atoms: C_20  and  S_21
REMARK    9  A    between atoms: S_21  and  C_22
REMARK                            x       y       z     vdW  Elec       q    Type
REMARK                         _______ _______ _______ _____ _____    ______ ____
ROOT
ATOM      1  C   UNL     1       3.134  -1.761  -5.288  0.00  0.00    +0.196 C 
ATOM      2  N   UNL     1       4.524  -2.254  -5.178  0.00  0.00    -0.234 NA
ATOM      3  C   UNL     1       5.000  -2.936  -6.276  0.00  0.00    +0.043 C 
ATOM      4  C   UNL     1       4.269  -3.139  -7.360  0.00  0.00    +0.064 C 
ATOM      5  S   UNL     1       2.708  -2.357  -6.976  0.00  0.00    -0.102 S 
ENDROOT
BRANCH   1   7
ATOM      6  C   UNL     1       2.390   0.343  -4.218  0.00  0.00    +0.025 C 
ATOM      7  C   UNL     1       3.080  -0.257  -5.210  0.00  0.00    +0.062 C 
BRANCH   6  10
ATOM      8  C   UNL     1       0.109  -0.878  -1.500  0.00  0.00    +0.162 A 
ATOM      9  C   UNL     1       0.615  -0.120  -2.539  0.00  0.00    +0.057 A 
ATOM     10  C   UNL     1       1.846  -0.459  -3.111  0.00  0.00    -0.020 A 
ATOM     11  C   UNL     1       2.558  -1.562  -2.629  0.00  0.00    +0.012 A 
ATOM     12  C   UNL     1       2.046  -2.312  -1.592  0.00  0.00    +0.050 A 
ATOM     13  C   UNL     1       0.827  -1.972  -1.021  0.00  0.00    +0.158 A 
BRANCH   8  15
ATOM     14  C   UNL     1      -1.768   0.582  -1.482  0.00  0.00    +0.277 C 
ATOM     15  O   UNL     1      -1.087  -0.552  -0.941  0.00  0.00    -0.491 OA
ENDBRANCH   8  15
BRANCH  13  16
ATOM     16  O   UNL     1       0.330  -2.712   0.004  0.00  0.00    -0.503 OA
ATOM     17  H   UNL     1      -0.227  -3.451  -0.278  0.00  0.00    +0.292 HD
ENDBRANCH  13  16
ENDBRANCH   6  10
BRANCH   7  18
ATOM     18  C   UNL     1       3.761   0.536  -6.190  0.00  0.00    +0.098 C 
ATOM     19  N   UNL     1       4.301   1.165  -6.966  0.00  0.00    -0.191 NA
ENDBRANCH   7  18
ENDBRANCH   1   7
BRANCH   3  20
ATOM     20  C   UNL     1       6.408  -3.471  -6.242  0.00  0.00    +0.130 C 
BRANCH  20  21
ATOM     21  S   UNL     1       7.580  -2.104  -6.461  0.00  0.00    -0.082 S 
BRANCH  21  22
ATOM     22  C   UNL     1       9.160  -2.882  -6.398  0.00  0.00    +0.168 A 
ATOM     23  N   UNL     1       9.361  -4.165  -6.229  0.00  0.00    -0.222 NA
ATOM     24  C   UNL     1      10.695  -4.423  -6.231  0.00  0.00    +0.090 A 
ATOM     25  C   UNL     1      11.447  -5.592  -6.093  0.00  0.00    +0.030 A 
ATOM     26  C   UNL     1      12.822  -5.530  -6.139  0.00  0.00    +0.002 A 
ATOM     27  C   UNL     1      13.466  -4.316  -6.322  0.00  0.00    +0.002 A 
ATOM     28  C   UNL     1      12.738  -3.152  -6.460  0.00  0.00    +0.028 A 
ATOM     29  C   UNL     1      11.353  -3.195  -6.416  0.00  0.00    +0.067 A 
ATOM     30  N   UNL     1      10.358  -2.237  -6.524  0.00  0.00    -0.333 N 
ATOM     31  H   UNL     1      10.488  -1.286  -6.662  0.00  0.00    +0.168 HD
ENDBRANCH  21  22
ENDBRANCH  20  21
ENDBRANCH   3  20
TORSDOF 8
