REMARK  Name = ZINC39350924
REMARK  10 active torsions:
REMARK  status: ('A' for Active; 'I' for Inactive)
REMARK    1  A    between atoms: C_1  and  C_2
REMARK    2  A    between atoms: C_5  and  O_28
REMARK    3  A    between atoms: C_6  and  C_8
REMARK    4  A    between atoms: C_8  and  C_10
REMARK    5  A    between atoms: C_8  and  C_20
REMARK    6  A    between atoms: C_12  and  O_18
REMARK    7  A    between atoms: C_13  and  O_17
REMARK    8  A    between atoms: O_18  and  C_19
REMARK    9  A    between atoms: C_21  and  C_27
REMARK   10  A    between atoms: C_24  and  O_26
REMARK                            x       y       z     vdW  Elec       q    Type
REMARK                         _______ _______ _______ _____ _____    ______ ____
ROOT
ATOM      1  C   UNL     1      -0.041  -0.332  -2.528  0.00  0.00    +0.088 C 
ENDROOT
BRANCH   1   7
ATOM      2  C   UNL     1       2.359  -1.481  -0.883  0.00  0.00    +0.065 C 
ATOM      3  C   UNL     1       0.920  -1.430  -0.437  0.00  0.00    +0.041 A 
ATOM      4  N   UNL     1       0.439  -1.866   0.746  0.00  0.00    -0.278 N 
ATOM      5  N   UNL     1      -0.943  -1.636   0.763  0.00  0.00    -0.136 NA
ATOM      6  C   UNL     1      -1.279  -1.078  -0.375  0.00  0.00    +0.236 A 
ATOM      7  C   UNL     1      -0.118  -0.933  -1.148  0.00  0.00    +0.047 A 
ATOM      8  H   UNL     1       0.959  -2.269   1.459  0.00  0.00    +0.189 HD
BRANCH   6  10
ATOM      9  H   UNL     1      -2.788   0.176  -0.427  0.00  0.00    +0.294 HD
ATOM     10  O   UNL     1      -2.534  -0.703  -0.740  0.00  0.00    -0.491 OA
ENDBRANCH   6  10
ENDBRANCH   1   7
BRANCH   1  11
ATOM     11  C   UNL     1       0.998  -1.065  -3.338  0.00  0.00    -0.031 A 
ATOM     12  C   UNL     1       2.023  -0.363  -3.943  0.00  0.00    +0.054 A 
ATOM     13  C   UNL     1       2.979  -1.035  -4.687  0.00  0.00    +0.163 A 
ATOM     14  C   UNL     1       2.904  -2.418  -4.824  0.00  0.00    +0.172 A 
ATOM     15  C   UNL     1       1.874  -3.116  -4.215  0.00  0.00    +0.059 A 
ATOM     16  C   UNL     1       0.926  -2.439  -3.469  0.00  0.00    +0.022 A 
ATOM     17  I   UNL     1       1.755  -5.198  -4.419  0.00  0.00    -0.040 I 
BRANCH  14  18
ATOM     18  O   UNL     1       3.840  -3.082  -5.554  0.00  0.00    -0.503 OA
ATOM     19  H   UNL     1       4.606  -3.373  -5.041  0.00  0.00    +0.292 HD
ENDBRANCH  14  18
BRANCH  13  20
ATOM     20  O   UNL     1       3.988  -0.345  -5.283  0.00  0.00    -0.491 OA
ATOM     21  C   UNL     1       4.002   1.072  -5.100  0.00  0.00    +0.277 C 
ENDBRANCH  13  20
ENDBRANCH   1  11
BRANCH   1  22
ATOM     22  C   UNL     1      -1.382  -0.453  -3.204  0.00  0.00    +0.017 C 
ATOM     23  C   UNL     1      -2.218   0.527  -3.553  0.00  0.00    +0.065 C 
ATOM     24  N   UNL     1      -3.328   0.026  -4.140  0.00  0.00    -0.156 NA
ATOM     25  N   UNL     1      -3.346  -1.204  -4.233  0.00  0.00    -0.151 NA
ATOM     26  C   UNL     1      -2.094  -1.717  -3.652  0.00  0.00    +0.284 C 
ATOM     27  C   UNL     1      -1.960   1.994  -3.324  0.00  0.00    +0.067 C 
BRANCH  26  28
ATOM     28  O   UNL     1      -2.368  -2.566  -2.536  0.00  0.00    -0.366 OA
ATOM     29  H   UNL     1      -2.751  -3.420  -2.776  0.00  0.00    +0.212 HD
ENDBRANCH  26  28
ENDBRANCH   1  22
TORSDOF 7
