REMARK  Name = ZINC04140308
REMARK  6 active torsions:
REMARK  status: ('A' for Active; 'I' for Inactive)
REMARK    1  A    between atoms: C_1  and  C_2
REMARK    2  A    between atoms: C_2  and  C_3
REMARK    3  A    between atoms: C_3  and  C_4
REMARK    4  A    between atoms: C_4  and  O_5
REMARK    5  A    between atoms: O_5  and  C_6
REMARK    6  A    between atoms: C_9  and  N_12
REMARK                            x       y       z     vdW  Elec       q    Type
REMARK                         _______ _______ _______ _____ _____    ______ ____
ROOT
ATOM      1  N   UNL     1      -3.408  -8.054  -0.020  0.00  0.00    -0.250 N 
ATOM      2  C   UNL     1      -2.323  -8.894  -0.116  0.00  0.00    +0.189 C 
ATOM      3  N   UNL     1      -2.395 -10.084   0.451  0.00  0.00    -0.187 NA
ATOM      4  C   UNL     1      -3.510 -10.482   1.087  0.00  0.00    +0.191 C 
ATOM      5  N   UNL     1      -4.641  -9.838   0.969  0.00  0.00    -0.336 N 
ATOM      6  C   UNL     1      -4.738  -8.670   0.095  0.00  0.00    +0.114 C 
ATOM      7  C   UNL     1      -5.219  -9.106  -1.289  0.00  0.00    +0.048 C 
ATOM      8  C   UNL     1      -5.312  -7.884  -2.205  0.00  0.00    +0.004 C 
ATOM      9  C   UNL     1      -6.299  -6.877  -1.612  0.00  0.00    +0.000 C 
ATOM     10  C   UNL     1      -5.812  -6.439  -0.229  0.00  0.00    +0.004 C 
ATOM     11  C   UNL     1      -5.719  -7.660   0.689  0.00  0.00    +0.048 C 
ATOM     12  N   UNL     1      -3.459 -11.605   1.888  0.00  0.00    -0.329 N 
ATOM     13  N   UNL     1      -1.195  -8.505  -0.783  0.00  0.00    -0.331 N 
ATOM     14  H   UNL     1      -2.627 -12.095   1.986  0.00  0.00    +0.145 HD
ATOM     15  H   UNL     1      -4.256 -11.905   2.353  0.00  0.00    +0.145 HD
ATOM     16  H   UNL     1      -1.121  -7.601  -1.125  0.00  0.00    +0.145 HD
ATOM     17  H   UNL     1      -0.468  -9.134  -0.915  0.00  0.00    +0.145 HD
ATOM     18  H   UNL     1      -5.419 -10.134   1.467  0.00  0.00    +0.164 HD
ENDROOT
BRANCH   1  22
ATOM     19  C   UNL     1      -2.942  -3.911  -0.039  0.00  0.00    +0.121 A 
ATOM     20  C   UNL     1      -2.805  -4.629  -1.217  0.00  0.00    +0.047 A 
ATOM     21  C   UNL     1      -2.959  -6.001  -1.212  0.00  0.00    +0.027 A 
ATOM     22  C   UNL     1      -3.251  -6.662  -0.026  0.00  0.00    +0.039 A 
ATOM     23  C   UNL     1      -3.388  -5.942   1.153  0.00  0.00    +0.027 A 
ATOM     24  C   UNL     1      -3.229  -4.571   1.147  0.00  0.00    +0.047 A 
BRANCH  19  25
ATOM     25  O   UNL     1      -2.790  -2.559  -0.045  0.00  0.00    -0.492 OA
BRANCH  25  26
ATOM     26  C   UNL     1      -2.496  -1.945  -1.301  0.00  0.00    +0.229 C 
BRANCH  26  27
ATOM     27  C   UNL     1      -2.362  -0.433  -1.110  0.00  0.00    +0.041 C 
BRANCH  27  29
ATOM     28  C   UNL     1      -1.912   1.736  -2.265  0.00  0.00    +0.004 C 
ATOM     29  C   UNL     1      -2.047   0.224  -2.455  0.00  0.00    -0.000 C 
ENDBRANCH  27  29
ENDBRANCH  26  27
ENDBRANCH  25  26
ENDBRANCH  19  25
ENDBRANCH   1  22
TORSDOF 5
