REMARK  Name = ZINC50466521
REMARK  2 active torsions:
REMARK  status: ('A' for Active; 'I' for Inactive)
REMARK    1  A    between atoms: N_3  and  C_7
REMARK    2  A    between atoms: C_7  and  C_8
REMARK                            x       y       z     vdW  Elec       q    Type
REMARK                         _______ _______ _______ _____ _____    ______ ____
ROOT
ATOM      1  C   UNL     1       4.053  -0.055   1.127  0.00  0.00    +0.237 C 
ATOM      2  O   UNL     1       3.277  -0.595   1.887  0.00  0.00    -0.274 OA
ATOM      3  N   UNL     1       5.381  -0.185   1.315  0.00  0.00    -0.297 N 
ATOM      4  C   UNL     1       6.337   0.467   0.409  0.00  0.00    +0.108 C 
ATOM      5  C   UNL     1       7.312  -0.586  -0.126  0.00  0.00    +0.019 C 
ATOM      6  C   UNL     1       7.958  -1.325   1.048  0.00  0.00    +0.007 C 
ATOM      7  C   UNL     1       6.874  -2.027   1.866  0.00  0.00    +0.010 C 
ATOM      8  C   UNL     1       5.909  -0.979   2.437  0.00  0.00    +0.079 C 
ATOM      9  C   UNL     1       6.666  -0.043   3.384  0.00  0.00    +0.023 C 
ATOM     10  C   UNL     1       7.282  -0.853   4.525  0.00  0.00    +0.002 C 
ATOM     11  C   UNL     1       8.261  -1.879   3.948  0.00  0.00    +0.000 C 
ATOM     12  C   UNL     1       7.506  -2.814   3.011  0.00  0.00    +0.005 C 
ENDROOT
BRANCH   1  13
ATOM     13  C   UNL     1       3.532   0.761  -0.028  0.00  0.00    +0.239 C 
BRANCH  13  16
ATOM     14  C   UNL     1      -0.017   1.400   0.010  0.00  0.00    +0.064 A 
ATOM     15  C   UNL     1       1.264   1.832  -0.000  0.00  0.00    +0.111 A 
ATOM     16  N   UNL     1       2.067   0.748  -0.014  0.00  0.00    -0.261 N 
ATOM     17  N   UNL     1       1.255  -0.394  -0.012  0.00  0.00    -0.156 NA
ATOM     18  C   UNL     1       0.002  -0.004   0.002  0.00  0.00    +0.138 A 
ATOM     19  N   UNL     1      -1.119  -0.842   0.009  0.00  0.00    -0.342 N 
ATOM     20  H   UNL     1      -2.011  -0.459   0.019  0.00  0.00    +0.144 HD
ATOM     21  H   UNL     1      -1.005  -1.805   0.002  0.00  0.00    +0.144 HD
ENDBRANCH  13  16
ENDBRANCH   1  13
TORSDOF 2
