REMARK  Name = ZINC08579928
REMARK  3 active torsions:
REMARK  status: ('A' for Active; 'I' for Inactive)
REMARK    1  A    between atoms: C_4  and  C_8
REMARK    2  A    between atoms: C_11  and  C_13
REMARK    3  A    between atoms: N_14  and  N_15
REMARK                            x       y       z     vdW  Elec       q    Type
REMARK                         _______ _______ _______ _____ _____    ______ ____
ROOT
ATOM      1  C   UNL     1       3.695  -0.684  -0.037  0.00  0.00    +0.137 A 
ATOM      2  C   UNL     1       4.050  -1.700   0.799  0.00  0.00    +0.050 A 
ATOM      3  C   UNL     1       5.348  -2.091   0.443  0.00  0.00    +0.051 A 
ATOM      4  C   UNL     1       5.732  -1.286  -0.607  0.00  0.00    +0.148 A 
ATOM      5  O   UNL     1       4.714  -0.446  -0.885  0.00  0.00    -0.454 OA
ENDROOT
BRANCH   1   9
ATOM      6  C   UNL     1      -0.017   1.381   0.010  0.00  0.00    +0.021 A 
ATOM      7  C   UNL     1       1.168   2.095   0.002  0.00  0.00    +0.022 A 
ATOM      8  C   UNL     1       2.378   1.431  -0.013  0.00  0.00    +0.052 A 
ATOM      9  C   UNL     1       2.405   0.033  -0.021  0.00  0.00    +0.037 A 
ATOM     10  C   UNL     1       1.205  -0.681  -0.013  0.00  0.00    +0.033 A 
ATOM     11  C   UNL     1       0.002  -0.004   0.002  0.00  0.00    +0.042 A 
ATOM     12 CL   UNL     1      -1.491  -0.890   0.011  0.00  0.00    -0.084 Cl
ATOM     13 CL   UNL     1       3.864   2.330  -0.023  0.00  0.00    -0.083 Cl
ENDBRANCH   1   9
BRANCH   4  14
ATOM     14  C   UNL     1       7.019  -1.338  -1.303  0.00  0.00    +0.178 C 
ATOM     15  N   UNL     1       7.261  -0.518  -2.285  0.00  0.00    -0.177 NA
BRANCH  15  16
ATOM     16  N   UNL     1       8.492  -0.568  -2.952  0.00  0.00    -0.258 N 
ATOM     17  C   UNL     1       8.746   0.293  -3.983  0.00  0.00    +0.156 C 
ATOM     18  N   UNL     1       7.798   1.202  -4.365  0.00  0.00    -0.338 N 
ATOM     19  S   UNL     1      10.205   0.235  -4.773  0.00  0.00    -0.015 SA
ATOM     20  H   UNL     1       6.945   1.236  -3.903  0.00  0.00    +0.144 HD
ATOM     21  H   UNL     1       7.978   1.813  -5.096  0.00  0.00    +0.144 HD
ATOM     22  H   UNL     1       9.164  -1.212  -2.682  0.00  0.00    +0.191 HD
ENDBRANCH  15  16
ENDBRANCH   4  14
TORSDOF 3
