REMARK  Name = ZINC00042488
REMARK  9 active torsions:
REMARK  status: ('A' for Active; 'I' for Inactive)
REMARK    1  A    between atoms: C_1  and  C_2
REMARK    2  A    between atoms: C_2  and  O_3
REMARK    3  A    between atoms: O_3  and  C_4
REMARK    4  A    between atoms: C_4  and  C_6
REMARK    5  A    between atoms: C_7  and  N_26
REMARK    6  A    between atoms: C_11  and  C_15
REMARK    7  A    between atoms: C_16  and  C_18
REMARK    8  A    between atoms: C_21  and  C_25
REMARK    9  A    between atoms: C_23  and  C_24
REMARK                            x       y       z     vdW  Elec       q    Type
REMARK                         _______ _______ _______ _____ _____    ______ ____
ROOT
ATOM      1  C   UNL     1       1.426  -2.322  -2.463  0.00  0.00    +0.105 C 
ATOM      2  C   UNL     1       1.598  -3.663  -2.557  0.00  0.00    +0.197 C 
ATOM      3  O   UNL     1       2.201  -4.270  -3.598  0.00  0.00    -0.424 OA
ATOM      4  C   UNL     1       2.901  -3.492  -4.460  0.00  0.00    +0.222 A 
ATOM      5  C   UNL     1       2.798  -2.128  -4.474  0.00  0.00    +0.049 A 
ATOM      6  C   UNL     1       3.640  -1.644  -5.466  0.00  0.00    +0.068 A 
ATOM      7  N   UNL     1       4.232  -2.668  -6.035  0.00  0.00    -0.176 NA
ATOM      8  N   UNL     1       3.778  -3.843  -5.414  0.00  0.00    -0.246 N 
ATOM      9  H   UNL     1       4.049  -4.747  -5.636  0.00  0.00    +0.192 HD
ATOM     10  C   UNL     1       3.840  -0.195  -5.827  0.00  0.00    +0.068 C 
ATOM     11  C   UNL     1       1.891  -1.371  -3.537  0.00  0.00    +0.098 C 
ENDROOT
BRANCH  11  12
ATOM     12  C   UNL     1       0.702  -0.837  -4.294  0.00  0.00    -0.032 A 
ATOM     13  C   UNL     1      -0.141  -1.708  -4.960  0.00  0.00    +0.005 A 
ATOM     14  C   UNL     1      -1.231  -1.218  -5.653  0.00  0.00    +0.003 A 
ATOM     15  C   UNL     1      -1.480   0.141  -5.681  0.00  0.00    -0.050 A 
ATOM     16  C   UNL     1      -0.637   1.011  -5.015  0.00  0.00    +0.007 A 
ATOM     17  C   UNL     1       0.451   0.521  -4.317  0.00  0.00    -0.046 A 
ATOM     18  C   UNL     1       1.367   1.470  -3.587  0.00  0.00    +0.044 C 
ATOM     19  C   UNL     1      -2.668   0.675  -6.439  0.00  0.00    +0.044 C 
ENDBRANCH  11  12
BRANCH   2  20
ATOM     20  N   UNL     1       1.133  -4.446  -1.535  0.00  0.00    -0.329 N 
ATOM     21  H   UNL     1       0.627  -4.047  -0.810  0.00  0.00    +0.145 HD
ATOM     22  H   UNL     1       1.309  -5.400  -1.536  0.00  0.00    +0.145 HD
ENDBRANCH   2  20
BRANCH   1  23
ATOM     23  C   UNL     1       0.788  -1.801  -1.329  0.00  0.00    +0.341 C 
ATOM     24  O   UNL     1       1.447  -1.303  -0.433  0.00  0.00    -0.245 OA
BRANCH  23  25
ATOM     25  O   UNL     1      -0.558  -1.850  -1.229  0.00  0.00    -0.462 OA
BRANCH  25  27
ATOM     26  C   UNL     1      -2.663  -1.445  -0.113  0.00  0.00    +0.048 C 
ATOM     27  C   UNL     1      -1.142  -1.300  -0.047  0.00  0.00    +0.229 C 
ENDBRANCH  25  27
ENDBRANCH  23  25
ENDBRANCH   1  23
TORSDOF 5
