REMARK  Name = ZINC58949236
REMARK  7 active torsions:
REMARK  status: ('A' for Active; 'I' for Inactive)
REMARK    1  A    between atoms: C_1  and  C_2
REMARK    2  A    between atoms: C_3  and  C_24
REMARK    3  A    between atoms: C_4  and  C_14
REMARK    4  A    between atoms: C_6  and  C_10
REMARK    5  A    between atoms: C_7  and  N_9
REMARK    6  A    between atoms: C_10  and  O_12
REMARK    7  A    between atoms: O_12  and  C_13
REMARK                            x       y       z     vdW  Elec       q    Type
REMARK                         _______ _______ _______ _____ _____    ______ ____
ROOT
ATOM      1  C   UNL     1      -0.115   1.477  -0.137  0.00  0.00    +0.087 C 
ATOM      2  C   UNL     1      -0.042  -0.027  -0.078  0.00  0.00    +0.113 C 
ATOM      3  C   UNL     1      -1.173  -0.735  -0.173  0.00  0.00    +0.064 C 
ATOM      4  C   UNL     1      -1.158  -2.238  -0.120  0.00  0.00    +0.100 C 
ATOM      5  C   UNL     1       0.157  -2.720   0.432  0.00  0.00    +0.105 C 
ATOM      6  C   UNL     1       1.230  -1.889   0.494  0.00  0.00    +0.195 C 
ATOM      7  O   UNL     1       1.157  -0.616   0.064  0.00  0.00    -0.446 OA
ENDROOT
BRANCH   4   8
ATOM      8  C   UNL     1      -1.346  -2.790  -1.510  0.00  0.00    -0.027 A 
ATOM      9  C   UNL     1      -0.523  -2.396  -2.520  0.00  0.00    +0.005 A 
ATOM     10  C   UNL     1      -0.681  -2.894  -3.811  0.00  0.00    +0.001 A 
ATOM     11  C   UNL     1      -1.665  -3.790  -4.101  0.00  0.00    +0.008 A 
ATOM     12  C   UNL     1      -2.534  -4.221  -3.084  0.00  0.00    -0.018 A 
ATOM     13  C   UNL     1      -2.369  -3.718  -1.769  0.00  0.00    -0.014 A 
ATOM     14  C   UNL     1      -3.235  -4.153  -0.751  0.00  0.00    +0.009 A 
ATOM     15  C   UNL     1      -4.214  -5.053  -1.039  0.00  0.00    +0.001 A 
ATOM     16  C   UNL     1      -4.372  -5.552  -2.331  0.00  0.00    +0.001 A 
ATOM     17  C   UNL     1      -3.561  -5.144  -3.345  0.00  0.00    +0.008 A 
ENDBRANCH   4   8
BRANCH   3  18
ATOM     18  C   UNL     1      -2.446  -0.036  -0.331  0.00  0.00    +0.242 C 
ATOM     19  O   UNL     1      -2.471   1.181  -0.375  0.00  0.00    -0.271 OA
ATOM     20  N   UNL     1      -3.593  -0.737  -0.428  0.00  0.00    -0.325 N 
ATOM     21  H   UNL     1      -3.573  -1.706  -0.393  0.00  0.00    +0.145 HD
ATOM     22  H   UNL     1      -4.438  -0.273  -0.533  0.00  0.00    +0.145 HD
ENDBRANCH   3  18
BRANCH   6  23
ATOM     23  N   UNL     1       2.411  -2.358   1.003  0.00  0.00    -0.329 N 
ATOM     24  H   UNL     1       2.498  -3.293   1.245  0.00  0.00    +0.145 HD
ATOM     25  H   UNL     1       3.162  -1.755   1.120  0.00  0.00    +0.145 HD
ENDBRANCH   6  23
BRANCH   5  26
ATOM     26  C   UNL     1       0.275  -4.041   0.888  0.00  0.00    +0.341 C 
ATOM     27  O   UNL     1      -0.204  -4.360   1.962  0.00  0.00    -0.245 OA
BRANCH  26  28
ATOM     28  O   UNL     1       0.921  -4.960   0.138  0.00  0.00    -0.465 OA
ATOM     29  C   UNL     1       1.004  -6.286   0.664  0.00  0.00    +0.280 C 
ENDBRANCH  26  28
ENDBRANCH   5  26
TORSDOF 5
