REMARK  Name = ZINC28048867
REMARK  4 active torsions:
REMARK  status: ('A' for Active; 'I' for Inactive)
REMARK    1  A    between atoms: C_8  and  N_12
REMARK    2  A    between atoms: C_9  and  O_10
REMARK    3  A    between atoms: N_15  and  C_16
REMARK    4  A    between atoms: N_23  and  C_24
REMARK                            x       y       z     vdW  Elec       q    Type
REMARK                         _______ _______ _______ _____ _____    ______ ____
ROOT
ATOM      1  C   UNL     1      -0.928   2.925  -0.750  0.00  0.00    +0.001 A 
ATOM      2  C   UNL     1      -0.964   1.657  -0.189  0.00  0.00    +0.004 A 
ATOM      3  C   UNL     1       0.179   1.084   0.328  0.00  0.00    +0.047 A 
ATOM      4  C   UNL     1       1.384   1.774   0.279  0.00  0.00    +0.141 A 
ATOM      5  C   UNL     1       1.422   3.055  -0.294  0.00  0.00    +0.042 A 
ATOM      6  C   UNL     1       0.256   3.626  -0.808  0.00  0.00    +0.013 A 
ATOM      7  C   UNL     1       2.704   3.777  -0.340  0.00  0.00    +0.075 A 
ATOM      8  C   UNL     1       3.818   3.150   0.188  0.00  0.00    +0.140 A 
ATOM      9  C   UNL     1       3.691   1.864   0.744  0.00  0.00    +0.309 A 
ATOM     10  O   UNL     1       2.512   1.222   0.777  0.00  0.00    -0.424 OA
ATOM     11  N   UNL     1       2.791   5.040  -0.895  0.00  0.00    -0.380 N 
ATOM     12  H   UNL     1       2.735   5.929  -0.249  0.00  0.00    +0.160 HD
ENDROOT
BRANCH   8  13
ATOM     13  N   UNL     1       5.069   3.794   0.170  0.00  0.00    -0.262 N 
ATOM     14  C   UNL     1       6.193   3.077  -0.028  0.00  0.00    +0.308 C 
ATOM     15  O   UNL     1       6.122   1.882  -0.244  0.00  0.00    -0.252 OA
ATOM     16  N   UNL     1       7.396   3.684   0.015  0.00  0.00    -0.269 N 
ATOM     17  H   UNL     1       5.130   4.882   0.318  0.00  0.00    +0.157 HD
ATOM     18  H   UNL     1       7.466   4.747   0.287  0.00  0.00    +0.156 HD
BRANCH  16  19
ATOM     19  C   UNL     1       8.555   2.961  -0.288  0.00  0.00    +0.036 A 
ATOM     20  C   UNL     1       9.773   3.336   0.265  0.00  0.00    +0.023 A 
ATOM     21  C   UNL     1      10.915   2.619  -0.033  0.00  0.00    +0.003 A 
ATOM     22  C   UNL     1      10.850   1.534  -0.887  0.00  0.00    +0.020 A 
ATOM     23  C   UNL     1       9.639   1.160  -1.443  0.00  0.00    +0.043 A 
ATOM     24  C   UNL     1       8.491   1.871  -1.146  0.00  0.00    +0.043 A 
ATOM     25 CL   UNL     1       9.561  -0.203  -2.515  0.00  0.00    -0.083 Cl
ENDBRANCH  16  19
ENDBRANCH   8  13
BRANCH  11  26
ATOM     26  C   UNL     1       2.955   4.965  -2.353  0.00  0.00    +0.079 C 
ATOM     27  C   UNL     1       4.438   4.733  -2.707  0.00  0.00    +0.024 C 
ATOM     28  C   UNL     1       4.657   5.573  -3.990  0.00  0.00    +0.002 C 
ATOM     29  C   UNL     1       3.804   6.838  -3.722  0.00  0.00    +0.002 C 
ATOM     30  C   UNL     1       2.551   6.302  -2.998  0.00  0.00    +0.024 C 
ENDBRANCH  11  26
BRANCH   9  31
ATOM     31  O   UNL     1       4.677   1.318   1.208  0.00  0.00    -0.479 OA
ATOM     32  H   UNL     1       4.594   0.312   1.645  0.00  0.00    +0.295 HD
ENDBRANCH   9  31
TORSDOF 4
