REMARK  Name = ZINC44919065
REMARK  5 active torsions:
REMARK  status: ('A' for Active; 'I' for Inactive)
REMARK    1  A    between atoms: C_1  and  O_2
REMARK    2  A    between atoms: O_2  and  C_3
REMARK    3  A    between atoms: C_6  and  C_10
REMARK    4  A    between atoms: C_8  and  O_9
REMARK    5  A    between atoms: C_20  and  C_21
REMARK                            x       y       z     vdW  Elec       q    Type
REMARK                         _______ _______ _______ _____ _____    ______ ____
ROOT
ATOM      1  C   UNL     1      -4.996  -2.872  -0.055  0.00  0.00    +0.068 C 
ATOM      2  C   UNL     1      -5.808  -2.632   1.225  0.00  0.00    +0.109 C 
ATOM      3  C   UNL     1      -7.258  -2.959   1.007  0.00  0.00    +0.218 C 
ATOM      4  O   UNL     1      -7.873  -3.494   1.905  0.00  0.00    -0.275 OA
ATOM      5  N   UNL     1      -7.904  -2.683  -0.141  0.00  0.00    -0.283 N 
ATOM      6  C   UNL     1      -7.144  -2.255  -1.260  0.00  0.00    +0.072 A 
ATOM      7  C   UNL     1      -5.780  -2.342  -1.214  0.00  0.00    +0.039 A 
ATOM      8  S   UNL     1      -5.269  -1.747  -2.679  0.00  0.00    +0.010 S 
ATOM      9  N   UNL     1      -6.752  -1.412  -3.384  0.00  0.00    -0.208 NA
ATOM     10  C   UNL     1      -7.636  -1.754  -2.465  0.00  0.00    +0.101 A 
ATOM     11  H   UNL     1      -8.868  -2.775  -0.202  0.00  0.00    +0.155 HD
ENDROOT
BRANCH  10  12
ATOM     12  C   UNL     1      -9.093  -1.612  -2.705  0.00  0.00    +0.003 A 
ATOM     13  C   UNL     1      -9.922  -1.116  -1.700  0.00  0.00    +0.011 A 
ATOM     14  C   UNL     1     -11.277  -0.986  -1.929  0.00  0.00    +0.020 A 
ATOM     15  C   UNL     1     -11.813  -1.348  -3.153  0.00  0.00    +0.041 A 
ATOM     16  C   UNL     1     -10.993  -1.841  -4.154  0.00  0.00    +0.020 A 
ATOM     17  C   UNL     1      -9.636  -1.970  -3.938  0.00  0.00    +0.011 A 
ATOM     18 CL   UNL     1     -13.518  -1.182  -3.434  0.00  0.00    -0.084 Cl
ENDBRANCH  10  12
BRANCH   1  22
ATOM     19  C   UNL     1      -1.252  -0.823   0.210  0.00  0.00    +0.161 A 
ATOM     20  C   UNL     1      -2.440  -0.115   0.293  0.00  0.00    +0.049 A 
ATOM     21  C   UNL     1      -3.649  -0.780   0.207  0.00  0.00    +0.008 A 
ATOM     22  C   UNL     1      -3.676  -2.152   0.038  0.00  0.00    -0.035 A 
ATOM     23  C   UNL     1      -2.494  -2.864  -0.045  0.00  0.00    +0.053 A 
ATOM     24  C   UNL     1      -1.279  -2.203   0.034  0.00  0.00    +0.159 A 
BRANCH  19  26
ATOM     25  C   UNL     1      -0.111   1.247   0.475  0.00  0.00    +0.277 C 
ATOM     26  O   UNL     1      -0.062  -0.169   0.294  0.00  0.00    -0.491 OA
ENDBRANCH  19  26
BRANCH  24  27
ATOM     27  O   UNL     1      -0.115  -2.901  -0.054  0.00  0.00    -0.503 OA
ATOM     28  H   UNL     1       0.220  -3.215   0.797  0.00  0.00    +0.292 HD
ENDBRANCH  24  27
ENDBRANCH   1  22
TORSDOF 4
