REMARK  Name = ZINC19866471
REMARK  6 active torsions:
REMARK  status: ('A' for Active; 'I' for Inactive)
REMARK    1  A    between atoms: C_1  and  C_2
REMARK    2  A    between atoms: C_2  and  C_3
REMARK    3  A    between atoms: C_3  and  C_4
REMARK    4  A    between atoms: C_9  and  S_11
REMARK    5  A    between atoms: S_11  and  C_12
REMARK    6  A    between atoms: C_15  and  C_18
REMARK                            x       y       z     vdW  Elec       q    Type
REMARK                         _______ _______ _______ _____ _____    ______ ____
ROOT
ATOM      1  C   UNL     1      -1.608  -4.590  -1.356  0.00  0.00    +0.016 A 
ATOM      2  C   UNL     1      -0.665  -5.100  -2.242  0.00  0.00    +0.016 A 
ATOM      3  C   UNL     1      -0.200  -6.388  -2.089  0.00  0.00    +0.012 A 
ATOM      4  C   UNL     1      -0.684  -7.184  -1.050  0.00  0.00    +0.012 A 
ATOM      5  C   UNL     1      -1.634  -6.671  -0.164  0.00  0.00    +0.012 A 
ATOM      6  C   UNL     1      -2.092  -5.382  -0.319  0.00  0.00    +0.016 A 
ENDROOT
BRANCH   4   7
ATOM      7  C   UNL     1      -0.190  -8.569  -0.886  0.00  0.00    +0.094 C 
ATOM      8  N   UNL     1      -0.642  -9.311   0.086  0.00  0.00    -0.387 N 
ATOM      9  N   UNL     1       0.748  -9.074  -1.760  0.00  0.00    -0.345 N 
ATOM     10  H   UNL     1      -0.275 -10.341   0.208  0.00  0.00    +0.157 HD
ATOM     11  H   UNL     1       1.115 -10.103  -1.638  0.00  0.00    +0.144 HD
ATOM     12  H   UNL     1       1.129  -8.447  -2.580  0.00  0.00    +0.144 HD
ATOM     13  H   UNL     1      -1.391  -8.908   0.784  0.00  0.00    +0.157 HD
ENDBRANCH   4   7
BRANCH   1  14
ATOM     14  S   UNL     1      -2.196  -2.940  -1.551  0.00  0.00    -0.052 S 
BRANCH  14  20
ATOM     15  C   UNL     1       0.004  -0.003  -0.003  0.00  0.00    +0.049 A 
ATOM     16  C   UNL     1       0.982  -0.676   0.642  0.00  0.00    +0.093 A 
ATOM     17  C   UNL     1       0.972  -2.094   0.616  0.00  0.00    +0.252 A 
ATOM     18  O   UNL     1       1.842  -2.726   1.195  0.00  0.00    -0.268 OA
ATOM     19  N   UNL     1       0.004  -2.736  -0.053  0.00  0.00    -0.302 N 
ATOM     20  C   UNL     1      -0.939  -2.063  -0.681  0.00  0.00    +0.174 A 
ATOM     21  N   UNL     1      -0.960  -0.703  -0.670  0.00  0.00    -0.228 NA
ATOM     22  H   UNL     1      -0.009  -3.835  -0.082  0.00  0.00    +0.171 HD
BRANCH  15  23
ATOM     23  C   UNL     1      -0.018   1.503   0.009  0.00  0.00    +0.055 C 
BRANCH  23  25
ATOM     24  C   UNL     1      -0.753   3.523   1.283  0.00  0.00    +0.004 C 
ATOM     25  C   UNL     1      -0.730   1.993   1.272  0.00  0.00    +0.003 C 
ENDBRANCH  23  25
ENDBRANCH  15  23
ENDBRANCH  14  20
ENDBRANCH   1  14
TORSDOF 5
