REMARK  Name = ZINC43326086
REMARK  5 active torsions:
REMARK  status: ('A' for Active; 'I' for Inactive)
REMARK    1  A    between atoms: C_1  and  C_2
REMARK    2  A    between atoms: C_5  and  N_9
REMARK    3  A    between atoms: N_12  and  C_13
REMARK    4  A    between atoms: C_13  and  C_15
REMARK    5  A    between atoms: C_13  and  C_16
REMARK                            x       y       z     vdW  Elec       q    Type
REMARK                         _______ _______ _______ _____ _____    ______ ____
ROOT
ATOM      1  N   UNL     1       0.059  -4.171  -0.023  0.00  0.00    -0.268 N 
ATOM      2  C   UNL     1      -0.039  -4.839  -1.189  0.00  0.00    +0.304 C 
ATOM      3  O   UNL     1      -0.053  -4.229  -2.240  0.00  0.00    -0.252 OA
ATOM      4  N   UNL     1      -0.122  -6.184  -1.190  0.00  0.00    -0.294 N 
ATOM      5  H   UNL     1       0.136  -4.660   0.811  0.00  0.00    +0.156 HD
ATOM      6  H   UNL     1      -0.111  -6.671  -0.351  0.00  0.00    +0.151 HD
ENDROOT
BRANCH   1  11
ATOM      7  C   UNL     1       0.025   1.503   0.006  0.00  0.00    +0.044 C 
ATOM      8  C   UNL     1       0.034  -0.004  -0.001  0.00  0.00    -0.049 A 
ATOM      9  C   UNL     1       0.632  -0.685  -1.046  0.00  0.00    +0.005 A 
ATOM     10  C   UNL     1       0.642  -2.066  -1.056  0.00  0.00    +0.025 A 
ATOM     11  C   UNL     1       0.051  -2.771  -0.015  0.00  0.00    +0.049 A 
ATOM     12  C   UNL     1      -0.548  -2.084   1.033  0.00  0.00    +0.039 A 
ATOM     13  C   UNL     1      -0.551  -0.702   1.039  0.00  0.00    +0.020 A 
ATOM     14 BR   UNL     1      -1.354  -3.038   2.452  0.00  0.00    -0.048 Br
ENDBRANCH   1  11
BRANCH   4  15
ATOM     15  C   UNL     1      -0.229  -6.911  -2.457  0.00  0.00    +0.100 C 
ATOM     16  C   UNL     1      -1.696  -6.966  -2.891  0.00  0.00    +0.030 C 
BRANCH  15  17
ATOM     17  C   UNL     1       0.303  -8.334  -2.276  0.00  0.00    +0.138 C 
ATOM     18  C   UNL     1       1.734  -8.301  -1.684  0.00  0.00    +0.035 C 
ATOM     19  C   UNL     1       1.804  -9.696  -1.005  0.00  0.00    +0.031 C 
ATOM     20  C   UNL     1       0.351  -9.901  -0.526  0.00  0.00    +0.160 C 
ATOM     21  O   UNL     1      -0.489  -9.043  -1.310  0.00  0.00    -0.375 OA
ENDBRANCH  15  17
ENDBRANCH   4  15
TORSDOF 3
