REMARK  Name = ZINC31866672
REMARK  6 active torsions:
REMARK  status: ('A' for Active; 'I' for Inactive)
REMARK    1  A    between atoms: C_1  and  C_2
REMARK    2  A    between atoms: C_2  and  C_4
REMARK    3  A    between atoms: C_2  and  S_15
REMARK    4  A    between atoms: C_9  and  C_12
REMARK    5  A    between atoms: S_15  and  C_16
REMARK    6  A    between atoms: N_20  and  C_21
REMARK                            x       y       z     vdW  Elec       q    Type
REMARK                         _______ _______ _______ _____ _____    ______ ____
ROOT
ATOM      1  C   UNL     1       0.331  -1.356   2.016  0.00  0.00    +0.229 C 
ATOM      2  O   UNL     1      -0.801  -1.772   1.894  0.00  0.00    -0.274 OA
ATOM      3  N   UNL     1       0.824  -0.472   1.126  0.00  0.00    -0.301 N 
ATOM      4  C   UNL     1       0.002  -0.004   0.002  0.00  0.00    +0.108 C 
ATOM      5  C   UNL     1      -0.019   1.528   0.010  0.00  0.00    +0.032 C 
ATOM      6  C   UNL     1       1.419   2.053  -0.001  0.00  0.00    +0.078 C 
ATOM      7  C   UNL     1       2.149   1.573   1.256  0.00  0.00    +0.032 C 
ATOM      8  C   UNL     1       2.194   0.042   1.262  0.00  0.00    +0.108 C 
ENDROOT
BRANCH   6   9
ATOM      9  C   UNL     1       1.402   3.560  -0.027  0.00  0.00    +0.214 C 
ATOM     10  O   UNL     1       0.345   4.155  -0.036  0.00  0.00    -0.276 OA
ATOM     11  N   UNL     1       2.561   4.247  -0.040  0.00  0.00    -0.329 N 
ATOM     12  H   UNL     1       2.549   5.347  -0.059  0.00  0.00    +0.145 HD
ATOM     13  H   UNL     1       3.520   3.708  -0.032  0.00  0.00    +0.145 HD
ENDBRANCH   6   9
BRANCH   1  15
ATOM     14  C   UNL     1       1.085  -0.828   4.319  0.00  0.00    +0.029 C 
ATOM     15  C   UNL     1       1.187  -1.826   3.164  0.00  0.00    +0.137 C 
BRANCH  15  16
ATOM     16  S   UNL     1       0.614  -3.451   3.718  0.00  0.00    -0.075 S 
BRANCH  16  17
ATOM     17  C   UNL     1       1.846  -3.816   4.923  0.00  0.00    +0.169 A 
ATOM     18  N   UNL     1       2.857  -3.043   5.246  0.00  0.00    -0.230 NA
ATOM     19  C   UNL     1       3.588  -3.644   6.200  0.00  0.00    +0.131 A 
ATOM     20  C   UNL     1       3.021  -4.829   6.485  0.00  0.00    +0.107 A 
ATOM     21  N   UNL     1       1.909  -4.945   5.681  0.00  0.00    -0.329 N 
ATOM     22  C   UNL     1       0.973  -6.071   5.646  0.00  0.00    +0.151 C 
ENDBRANCH  16  17
ENDBRANCH  15  16
ENDBRANCH   1  15
TORSDOF 4
