REMARK  Name = ZINC39668890
REMARK  5 active torsions:
REMARK  status: ('A' for Active; 'I' for Inactive)
REMARK    1  A    between atoms: C_10  and  C_12
REMARK    2  A    between atoms: C_12  and  N_13
REMARK    3  A    between atoms: C_14  and  C_16
REMARK    4  A    between atoms: C_27  and  C_29
REMARK    5  A    between atoms: C_35  and  C_37
REMARK                            x       y       z     vdW  Elec       q    Type
REMARK                         _______ _______ _______ _____ _____    ______ ____
ROOT
ATOM      1  C   UNL     1       8.383  -0.793   1.494  0.00  0.00    +0.100 C 
ATOM      2  C   UNL     1       8.915  -0.669   0.049  0.00  0.00    +0.121 C 
ATOM      3  N   UNL     1       9.748   0.557   0.060  0.00  0.00    -0.299 N 
ATOM      4  C   UNL     1      10.450   0.513   1.365  0.00  0.00    +0.115 C 
ATOM      5  C   UNL     1       9.396  -0.020   2.355  0.00  0.00    -0.004 C 
ATOM      6  C   UNL     1      10.049  -0.953   3.370  0.00  0.00    -0.010 C 
ATOM      7  C   UNL     1      11.008  -0.149   4.253  0.00  0.00    -0.082 C 
ATOM      8  N   UNL     1      10.267   0.914   4.942  0.00  0.00    +0.379 N 
ATOM      9  C   UNL     1       9.720   1.860   3.961  0.00  0.00    -0.082 C 
ATOM     10  C   UNL     1       8.707   1.141   3.066  0.00  0.00    -0.010 C 
ATOM     11  C   UNL     1       9.844   1.499  -0.899  0.00  0.00    +0.236 C 
ATOM     12  O   UNL     1      10.577   2.453  -0.740  0.00  0.00    -0.274 OA
ATOM     13  H   UNL     1       9.511   0.507   5.472  0.00  0.00    -0.086 HD
ATOM     14  H   UNL     1      10.888   1.403   5.569  0.00  0.00    -0.086 HD
ENDROOT
BRANCH  11  15
ATOM     15  C   UNL     1       9.043   1.367  -2.168  0.00  0.00    +0.162 C 
ATOM     16  C   UNL     1       9.744   0.387  -3.132  0.00  0.00    +0.033 C 
ATOM     17  C   UNL     1       9.516   1.042  -4.520  0.00  0.00    +0.021 C 
ATOM     18  C   UNL     1       9.606   2.549  -4.171  0.00  0.00    +0.109 C 
ATOM     19  N   UNL     1       8.963   2.669  -2.846  0.00  0.00    -0.283 N 
ATOM     20  C   UNL     1       8.398   3.784  -2.343  0.00  0.00    +0.320 C 
ATOM     21  O   UNL     1       7.898   3.764  -1.238  0.00  0.00    -0.266 OA
BRANCH  20  22
ATOM     22  C   UNL     1       8.387   5.055  -3.152  0.00  0.00    +0.470 C 
ATOM     23  F   UNL     1       7.750   6.066  -2.424  0.00  0.00    -0.162 F 
ATOM     24  F   UNL     1       9.702   5.440  -3.433  0.00  0.00    -0.162 F 
ATOM     25  F   UNL     1       7.698   4.839  -4.350  0.00  0.00    -0.162 F 
ENDBRANCH  20  22
ENDBRANCH  11  15
BRANCH   1  27
ATOM     26  N   UNL     1       6.142  -0.623   2.527  0.00  0.00    -0.312 N 
ATOM     27  C   UNL     1       7.016  -0.171   1.606  0.00  0.00    +0.218 C 
ATOM     28  O   UNL     1       6.701   0.738   0.866  0.00  0.00    -0.275 OA
ATOM     29  H   UNL     1       6.394  -1.350   3.118  0.00  0.00    +0.149 HD
BRANCH  26  30
ATOM     30  C   UNL     1       4.813  -0.018   2.635  0.00  0.00    +0.140 C 
BRANCH  30  40
ATOM     31  C   UNL     1       0.028   0.804   3.755  0.00  0.00    +0.000 A 
ATOM     32  C   UNL     1       0.658   0.490   2.565  0.00  0.00    +0.000 A 
ATOM     33  C   UNL     1       1.950   0.004   2.577  0.00  0.00    +0.006 A 
ATOM     34  C   UNL     1       2.620  -0.172   3.778  0.00  0.00    -0.014 A 
ATOM     35  C   UNL     1       1.993   0.145   4.965  0.00  0.00    -0.040 A 
ATOM     36  C   UNL     1       0.695   0.631   4.952  0.00  0.00    +0.004 A 
ATOM     37  C   UNL     1       2.693  -0.018   6.290  0.00  0.00    +0.063 C 
ATOM     38  C   UNL     1       3.909  -0.933   6.123  0.00  0.00    +0.165 C 
ATOM     39  O   UNL     1       4.671  -0.474   5.001  0.00  0.00    -0.370 OA
ATOM     40  C   UNL     1       4.026  -0.711   3.750  0.00  0.00    +0.165 C 
ENDBRANCH  30  40
ENDBRANCH  26  30
ENDBRANCH   1  27
TORSDOF 5
