REMARK  Name = ZINC09227000
REMARK  10 active torsions:
REMARK  status: ('A' for Active; 'I' for Inactive)
REMARK    1  A    between atoms: C_1  and  C_2
REMARK    2  A    between atoms: C_5  and  O_29
REMARK    3  A    between atoms: C_6  and  N_8
REMARK    4  A    between atoms: C_9  and  C_11
REMARK    5  A    between atoms: C_12  and  N_28
REMARK    6  A    between atoms: N_13  and  C_16
REMARK    7  A    between atoms: C_16  and  C_17
REMARK    8  A    between atoms: N_19  and  C_20
REMARK    9  A    between atoms: C_23  and  C_27
REMARK   10  A    between atoms: O_29  and  C_30
REMARK                            x       y       z     vdW  Elec       q    Type
REMARK                         _______ _______ _______ _____ _____    ______ ____
ROOT
ATOM      1  C   UNL     1      -4.911  -0.679  -0.140  0.00  0.00    +0.188 A 
ATOM      2  C   UNL     1      -6.235  -1.076  -0.276  0.00  0.00    +0.148 A 
ATOM      3  N   UNL     1      -6.977   0.056  -0.268  0.00  0.00    -0.222 N 
ATOM      4  N   UNL     1      -6.084   1.127  -0.126  0.00  0.00    -0.063 NA
ATOM      5  N   UNL     1      -4.886   0.664  -0.049  0.00  0.00    -0.123 NA
ENDROOT
BRANCH   1   7
ATOM      6  N   UNL     1      -2.507  -1.050   0.039  0.00  0.00    -0.277 N 
ATOM      7  C   UNL     1      -3.743  -1.568  -0.097  0.00  0.00    +0.272 C 
ATOM      8  O   UNL     1      -3.892  -2.773  -0.184  0.00  0.00    -0.268 OA
ATOM      9  H   UNL     1      -2.393  -0.098   0.186  0.00  0.00    +0.155 HD
BRANCH   6  15
ATOM     10  C   UNL     1      -0.478  -5.298  -1.381  0.00  0.00    +0.044 C 
ATOM     11  C   UNL     1      -0.373  -3.951  -0.713  0.00  0.00    -0.048 A 
ATOM     12  C   UNL     1       0.830  -3.544  -0.166  0.00  0.00    +0.007 A 
ATOM     13  C   UNL     1       0.932  -2.309   0.448  0.00  0.00    +0.048 A 
ATOM     14  C   UNL     1      -0.172  -1.476   0.516  0.00  0.00    +0.141 A 
ATOM     15  C   UNL     1      -1.385  -1.887  -0.031  0.00  0.00    +0.076 A 
ATOM     16  C   UNL     1      -1.479  -3.124  -0.651  0.00  0.00    +0.030 A 
BRANCH  14  17
ATOM     17  O   UNL     1      -0.073  -0.262   1.121  0.00  0.00    -0.493 OA
ATOM     18  C   UNL     1       1.200   0.091   1.664  0.00  0.00    +0.277 C 
ENDBRANCH  14  17
ENDBRANCH   6  15
ENDBRANCH   1   7
BRANCH   2  19
ATOM     19  N   UNL     1      -6.702  -2.369  -0.397  0.00  0.00    -0.341 N 
ATOM     20  H   UNL     1      -6.078  -3.112  -0.391  0.00  0.00    +0.144 HD
ATOM     21  H   UNL     1      -7.653  -2.535  -0.487  0.00  0.00    +0.144 HD
ENDBRANCH   2  19
BRANCH   3  22
ATOM     22  C   UNL     1      -8.434   0.145  -0.384  0.00  0.00    +0.243 C 
BRANCH  22  23
ATOM     23  C   UNL     1      -9.053   0.088   0.989  0.00  0.00    +0.239 C 
ATOM     24  O   UNL     1      -8.345  -0.017   1.968  0.00  0.00    -0.273 OA
ATOM     25  N   UNL     1     -10.391   0.153   1.128  0.00  0.00    -0.284 N 
ATOM     26  H   UNL     1     -10.961   0.159   0.343  0.00  0.00    +0.155 HD
BRANCH  25  27
ATOM     27  C   UNL     1     -10.960   0.212   2.406  0.00  0.00    +0.035 A 
ATOM     28  C   UNL     1     -12.190  -0.385   2.648  0.00  0.00    +0.023 A 
ATOM     29  C   UNL     1     -12.746  -0.330   3.911  0.00  0.00    +0.006 A 
ATOM     30  C   UNL     1     -12.085   0.329   4.932  0.00  0.00    -0.032 A 
ATOM     31  C   UNL     1     -10.862   0.929   4.692  0.00  0.00    +0.046 A 
ATOM     32  C   UNL     1     -10.297   0.873   3.432  0.00  0.00    +0.043 A 
ATOM     33 CL   UNL     1     -10.035   1.755   5.976  0.00  0.00    -0.083 Cl
ATOM     34  C   UNL     1     -12.698   0.392   6.307  0.00  0.00    +0.045 C 
ENDBRANCH  25  27
ENDBRANCH  22  23
ENDBRANCH   3  22
TORSDOF 7
