REMARK  Name = ZINC59461795
REMARK  9 active torsions:
REMARK  status: ('A' for Active; 'I' for Inactive)
REMARK    1  A    between atoms: C_4  and  C_7
REMARK    2  A    between atoms: C_8  and  C_16
REMARK    3  A    between atoms: C_9  and  O_15
REMARK    4  A    between atoms: N_10  and  C_12
REMARK    5  A    between atoms: C_12  and  N_14
REMARK    6  A    between atoms: C_16  and  C_18
REMARK    7  A    between atoms: C_16  and  C_25
REMARK    8  A    between atoms: C_25  and  C_26
REMARK    9  A    between atoms: C_25  and  C_28
REMARK                            x       y       z     vdW  Elec       q    Type
REMARK                         _______ _______ _______ _____ _____    ______ ____
ROOT
ATOM      1  C   UNL     1       3.071  -0.291   0.501  0.00  0.00    +0.101 A 
ATOM      2  C   UNL     1       3.677  -1.529   0.801  0.00  0.00    +0.051 A 
ATOM      3  C   UNL     1       4.978  -1.455   0.428  0.00  0.00    +0.222 A 
ATOM      4  N   UNL     1       5.190  -0.211  -0.092  0.00  0.00    -0.179 N 
ATOM      5  N   UNL     1       3.980   0.492  -0.038  0.00  0.00    -0.161 NA
ENDROOT
BRANCH   1   9
ATOM      6  C   UNL     1      -0.998   0.727   1.203  0.00  0.00    +0.000 A 
ATOM      7  C   UNL     1      -0.014   1.690   1.335  0.00  0.00    +0.001 A 
ATOM      8  C   UNL     1       1.308   1.365   1.108  0.00  0.00    +0.010 A 
ATOM      9  C   UNL     1       1.651   0.064   0.747  0.00  0.00    +0.003 A 
ATOM     10  C   UNL     1       0.656  -0.903   0.616  0.00  0.00    +0.010 A 
ATOM     11  C   UNL     1      -0.663  -0.567   0.844  0.00  0.00    +0.001 A 
ENDBRANCH   1   9
BRANCH   4  12
ATOM     12  C   UNL     1       6.358   0.258  -0.576  0.00  0.00    +0.167 C 
ATOM     13  S   UNL     1       7.748  -0.741  -0.573  0.00  0.00    -0.014 S 
BRANCH  12  14
ATOM     14  N   UNL     1       6.431   1.512  -1.062  0.00  0.00    -0.337 N 
ATOM     15  H   UNL     1       5.643   2.079  -1.064  0.00  0.00    +0.144 HD
ATOM     16  H   UNL     1       7.271   1.850  -1.411  0.00  0.00    +0.144 HD
ENDBRANCH  12  14
ENDBRANCH   4  12
BRANCH   3  17
ATOM     17  O   UNL     1       5.903  -2.440   0.549  0.00  0.00    -0.492 OA
ATOM     18  H   UNL     1       5.958  -3.025  -0.219  0.00  0.00    +0.294 HD
ENDBRANCH   3  17
BRANCH   2  19
ATOM     19  C   UNL     1       2.999  -2.721   1.425  0.00  0.00    +0.087 C 
BRANCH  19  20
ATOM     20  C   UNL     1       3.585  -2.975   2.790  0.00  0.00    -0.037 A 
ATOM     21  C   UNL     1       4.830  -3.565   2.909  0.00  0.00    +0.006 A 
ATOM     22  C   UNL     1       5.368  -3.798   4.160  0.00  0.00    +0.020 A 
ATOM     23  C   UNL     1       4.661  -3.440   5.295  0.00  0.00    +0.041 A 
ATOM     24  C   UNL     1       3.416  -2.849   5.175  0.00  0.00    +0.020 A 
ATOM     25  C   UNL     1       2.881  -2.611   3.923  0.00  0.00    +0.006 A 
ATOM     26 CL   UNL     1       5.336  -3.732   6.867  0.00  0.00    -0.084 Cl
ENDBRANCH  19  20
BRANCH  19  27
ATOM     27  C   UNL     1       3.214  -3.951   0.541  0.00  0.00    +0.205 C 
BRANCH  27  28
ATOM     28  C   UNL     1       2.552  -5.116   1.151  0.00  0.00    +0.082 C 
ATOM     29  N   UNL     1       2.041  -6.014   1.622  0.00  0.00    -0.195 NA
ENDBRANCH  27  28
BRANCH  27  30
ATOM     30  C   UNL     1       2.642  -3.703  -0.792  0.00  0.00    +0.082 C 
ATOM     31  N   UNL     1       2.200  -3.512  -1.821  0.00  0.00    -0.195 NA
ENDBRANCH  27  30
ENDBRANCH  19  27
ENDBRANCH   2  19
TORSDOF 9
