REMARK  Name = ZINC14869489
REMARK  9 active torsions:
REMARK  status: ('A' for Active; 'I' for Inactive)
REMARK    1  A    between atoms: C_1  and  C_2
REMARK    2  A    between atoms: N_4  and  C_5
REMARK    3  A    between atoms: C_7  and  S_13
REMARK    4  A    between atoms: C_10  and  O_11
REMARK    5  A    between atoms: O_11  and  C_12
REMARK    6  A    between atoms: S_13  and  N_16
REMARK    7  A    between atoms: N_16  and  C_17
REMARK    8  A    between atoms: C_22  and  C_23
REMARK    9  A    between atoms: N_25  and  C_26
REMARK                            x       y       z     vdW  Elec       q    Type
REMARK                         _______ _______ _______ _____ _____    ______ ____
ROOT
ATOM      1  S   UNL     1      -3.810   2.114  -0.685  0.00  0.00    +0.072 S 
ATOM      2  O   UNL     1      -4.890   1.220  -0.453  0.00  0.00    -0.150 OA
ATOM      3  O   UNL     1      -3.848   3.477  -0.282  0.00  0.00    -0.150 OA
ENDROOT
BRANCH   1   6
ATOM      4  C   UNL     1      -3.676   1.020  -4.553  0.00  0.00    +0.077 A 
ATOM      5  C   UNL     1      -3.905   1.024  -3.184  0.00  0.00    +0.055 A 
ATOM      6  C   UNL     1      -3.518   2.111  -2.423  0.00  0.00    +0.110 A 
ATOM      7  C   UNL     1      -2.908   3.197  -3.022  0.00  0.00    +0.032 A 
ATOM      8  C   UNL     1      -2.671   3.198  -4.384  0.00  0.00    +0.049 A 
ATOM      9  C   UNL     1      -3.056   2.112  -5.155  0.00  0.00    +0.141 A 
BRANCH   4  13
ATOM     10  C   UNL     1      -5.659  -1.885  -5.898  0.00  0.00    +0.109 C 
ATOM     11  C   UNL     1      -5.180  -0.770  -5.005  0.00  0.00    +0.214 C 
ATOM     12  O   UNL     1      -5.795  -0.491  -3.998  0.00  0.00    -0.276 OA
ATOM     13  N   UNL     1      -4.067  -0.081  -5.327  0.00  0.00    -0.283 N 
ATOM     14  H   UNL     1      -3.536  -0.347  -6.094  0.00  0.00    +0.155 HD
ENDBRANCH   4  13
BRANCH   9  15
ATOM     15  O   UNL     1      -2.829   2.114  -6.495  0.00  0.00    -0.493 OA
ATOM     16  C   UNL     1      -2.189   3.268  -7.044  0.00  0.00    +0.277 C 
ENDBRANCH   9  15
ENDBRANCH   1   6
BRANCH   1  17
ATOM     17  N   UNL     1      -2.478   1.445   0.036  0.00  0.00    -0.216 N 
ATOM     18  H   UNL     1      -2.568   0.640   0.570  0.00  0.00    +0.174 HD
BRANCH  17  19
ATOM     19  C   UNL     1      -1.231   2.037  -0.123  0.00  0.00    +0.060 A 
ATOM     20  C   UNL     1      -1.118   3.420  -0.186  0.00  0.00    +0.025 A 
ATOM     21  C   UNL     1       0.121   4.005  -0.350  0.00  0.00    +0.002 A 
ATOM     22  C   UNL     1       1.260   3.221  -0.447  0.00  0.00    +0.001 A 
ATOM     23  C   UNL     1       1.168   1.848  -0.381  0.00  0.00    +0.015 A 
ATOM     24  C   UNL     1      -0.079   1.240  -0.215  0.00  0.00    +0.059 A 
BRANCH  24  25
ATOM     25  C   UNL     1      -0.185  -0.229  -0.143  0.00  0.00    +0.246 C 
ATOM     26  O   UNL     1      -1.272  -0.753   0.002  0.00  0.00    -0.270 OA
ATOM     27  N   UNL     1       0.923  -0.989  -0.237  0.00  0.00    -0.314 N 
ATOM     28  C   UNL     1       0.818  -2.449  -0.166  0.00  0.00    +0.128 C 
ATOM     29  H   UNL     1       1.791  -0.571  -0.353  0.00  0.00    +0.149 HD
ENDBRANCH  24  25
ENDBRANCH  17  19
ENDBRANCH   1  17
TORSDOF 6
