REMARK  Name = ZINC12553354
REMARK  6 active torsions:
REMARK  status: ('A' for Active; 'I' for Inactive)
REMARK    1  A    between atoms: C_1  and  C_2
REMARK    2  A    between atoms: C_3  and  C_27
REMARK    3  A    between atoms: C_4  and  C_20
REMARK    4  A    between atoms: N_9  and  C_10
REMARK    5  A    between atoms: C_27  and  O_29
REMARK    6  A    between atoms: O_29  and  C_30
REMARK                            x       y       z     vdW  Elec       q    Type
REMARK                         _______ _______ _______ _____ _____    ______ ____
ROOT
ATOM      1  C   UNL     1       2.273  -2.734   0.186  0.00  0.00    +0.062 C 
ATOM      2  C   UNL     1       3.596  -2.025   0.057  0.00  0.00    +0.027 C 
ATOM      3  C   UNL     1       4.742  -2.735   0.149  0.00  0.00    +0.078 C 
ATOM      4  C   UNL     1       6.051  -1.982   0.020  0.00  0.00    +0.141 C 
ATOM      5  N   UNL     1       5.965  -0.528  -0.203  0.00  0.00    -0.315 N 
ATOM      6  C   UNL     1       4.744   0.038  -0.278  0.00  0.00    +0.142 C 
ATOM      7  S   UNL     1       4.629   1.726  -0.537  0.00  0.00    -0.018 S 
ATOM      8  N   UNL     1       3.618  -0.676  -0.157  0.00  0.00    -0.255 N 
ATOM      9  H   UNL     1       6.767   0.008  -0.293  0.00  0.00    +0.149 HD
ENDROOT
BRANCH   8  10
ATOM     10  C   UNL     1       2.393  -0.001  -0.248  0.00  0.00    +0.044 A 
ATOM     11  C   UNL     1       1.768   0.141  -1.480  0.00  0.00    +0.027 A 
ATOM     12  C   UNL     1       0.562   0.807  -1.570  0.00  0.00    +0.051 A 
ATOM     13  C   UNL     1      -0.030   1.336  -0.432  0.00  0.00    +0.162 A 
ATOM     14  C   UNL     1       0.592   1.193   0.803  0.00  0.00    +0.164 A 
ATOM     15  C   UNL     1       1.804   0.526   0.893  0.00  0.00    +0.073 A 
ATOM     16  O   UNL     1       0.023   1.698   1.931  0.00  0.00    -0.485 OA
ATOM     17  C   UNL     1      -1.001   2.683   1.752  0.00  0.00    +0.270 C 
ATOM     18  C   UNL     1      -1.962   2.183   0.665  0.00  0.00    +0.270 C 
ATOM     19  O   UNL     1      -1.215   1.997  -0.543  0.00  0.00    -0.485 OA
ENDBRANCH   8  10
BRANCH   4  20
ATOM     20  C   UNL     1       6.846  -2.212   1.279  0.00  0.00    -0.022 A 
ATOM     21  C   UNL     1       6.666  -1.383   2.371  0.00  0.00    +0.008 A 
ATOM     22  C   UNL     1       7.390  -1.597   3.528  0.00  0.00    +0.038 A 
ATOM     23  C   UNL     1       8.305  -2.635   3.590  0.00  0.00    +0.123 A 
ATOM     24  C   UNL     1       8.488  -3.461   2.494  0.00  0.00    +0.038 A 
ATOM     25  C   UNL     1       7.758  -3.249   1.340  0.00  0.00    +0.008 A 
ATOM     26  F   UNL     1       9.018  -2.841   4.718  0.00  0.00    -0.205 F 
ENDBRANCH   4  20
BRANCH   3  27
ATOM     27  C   UNL     1       4.721  -4.132   0.364  0.00  0.00    +0.339 C 
ATOM     28  O   UNL     1       3.659  -4.717   0.465  0.00  0.00    -0.245 OA
BRANCH  27  29
ATOM     29  O   UNL     1       5.880  -4.818   0.459  0.00  0.00    -0.465 OA
ATOM     30  C   UNL     1       5.784  -6.227   0.677  0.00  0.00    +0.280 C 
ENDBRANCH  27  29
ENDBRANCH   3  27
TORSDOF 4
