REMARK  Name = ZINC06015805
REMARK  7 active torsions:
REMARK  status: ('A' for Active; 'I' for Inactive)
REMARK    1  A    between atoms: C_1  and  C_2
REMARK    2  A    between atoms: C_2  and  N_15
REMARK    3  A    between atoms: C_3  and  C_4
REMARK    4  A    between atoms: N_6  and  C_7
REMARK    5  A    between atoms: N_15  and  N_16
REMARK    6  A    between atoms: C_17  and  C_19
REMARK    7  A    between atoms: C_19  and  C_20
REMARK                            x       y       z     vdW  Elec       q    Type
REMARK                         _______ _______ _______ _____ _____    ______ ____
ROOT
ATOM      1  C   UNL     1      -2.313  -3.114  -0.213  0.00  0.00    +0.062 C 
ATOM      2  C   UNL     1      -3.623  -2.368  -0.202  0.00  0.00    +0.024 C 
ATOM      3  C   UNL     1      -3.639  -1.037   0.021  0.00  0.00    +0.087 C 
ENDROOT
BRANCH   3   4
ATOM      4  C   UNL     1      -2.454  -0.371   0.409  0.00  0.00    +0.243 C 
ATOM      5  O   UNL     1      -1.446  -1.010   0.647  0.00  0.00    -0.270 OA
ATOM      6  N   UNL     1      -2.441   0.973   0.515  0.00  0.00    -0.280 N 
ATOM      7  H   UNL     1      -3.259   1.478   0.385  0.00  0.00    +0.155 HD
BRANCH   6   8
ATOM      8  C   UNL     1      -1.246   1.640   0.814  0.00  0.00    +0.069 A 
ATOM      9  C   UNL     1      -0.027   1.012   0.599  0.00  0.00    +0.029 A 
ATOM     10  C   UNL     1       1.151   1.674   0.888  0.00  0.00    +0.040 A 
ATOM     11  C   UNL     1       1.117   2.961   1.398  0.00  0.00    +0.126 A 
ATOM     12  C   UNL     1      -0.097   3.588   1.619  0.00  0.00    +0.078 A 
ATOM     13  C   UNL     1      -1.279   2.930   1.331  0.00  0.00    +0.147 A 
ATOM     14  F   UNL     1      -2.464   3.542   1.547  0.00  0.00    -0.203 F 
ATOM     15  F   UNL     1       2.271   3.605   1.680  0.00  0.00    -0.205 F 
ENDBRANCH   6   8
ENDBRANCH   3   4
BRANCH   2  16
ATOM     16  N   UNL     1      -4.794  -3.039  -0.419  0.00  0.00    -0.269 N 
ATOM     17  H   UNL     1      -4.782  -3.996  -0.580  0.00  0.00    +0.170 HD
BRANCH  16  18
ATOM     18  N   UNL     1      -6.011  -2.346  -0.409  0.00  0.00    -0.236 N 
ATOM     19  C   UNL     1      -7.165  -3.008  -0.623  0.00  0.00    +0.243 C 
ATOM     20  O   UNL     1      -7.150  -4.204  -0.824  0.00  0.00    -0.273 OA
ATOM     21  H   UNL     1      -6.023  -1.389  -0.248  0.00  0.00    +0.173 HD
BRANCH  19  22
ATOM     22  C   UNL     1      -8.475  -2.262  -0.612  0.00  0.00    +0.215 C 
BRANCH  22  23
ATOM     23  C   UNL     1      -9.577  -3.203  -0.868  0.00  0.00    +0.072 C 
ATOM     24  N   UNL     1     -10.428  -3.929  -1.066  0.00  0.00    -0.196 NA
ENDBRANCH  22  23
ENDBRANCH  19  22
ENDBRANCH  16  18
ENDBRANCH   2  16
TORSDOF 6
