REMARK  Name = ZINC62702122
REMARK  6 active torsions:
REMARK  status: ('A' for Active; 'I' for Inactive)
REMARK    1  A    between atoms: C_1  and  C_2
REMARK    2  A    between atoms: C_2  and  C_21
REMARK    3  A    between atoms: C_7  and  N_11
REMARK    4  A    between atoms: N_11  and  C_12
REMARK    5  A    between atoms: C_12  and  C_13
REMARK    6  A    between atoms: C_16  and  O_20
REMARK                            x       y       z     vdW  Elec       q    Type
REMARK                         _______ _______ _______ _____ _____    ______ ____
ROOT
ATOM      1  N   UNL     1      -0.080  -4.875   3.290  0.00  0.00    -0.340 N 
ATOM      2  H   UNL     1       0.781  -4.867   3.736  0.00  0.00    +0.146 HD
ENDROOT
BRANCH   1   9
ATOM      3  C   UNL     1      -0.019   1.526   0.010  0.00  0.00    +0.104 C 
ATOM      4  C   UNL     1       0.002  -0.004   0.002  0.00  0.00    +0.248 C 
ATOM      5  O   UNL     1      -1.333  -0.529   0.129  0.00  0.00    -0.448 OA
ATOM      6  C   UNL     1      -1.205  -1.678   0.857  0.00  0.00    +0.167 A 
ATOM      7  C   UNL     1      -2.061  -2.753   1.030  0.00  0.00    +0.051 A 
ATOM      8  C   UNL     1      -1.688  -3.813   1.836  0.00  0.00    +0.027 A 
ATOM      9  C   UNL     1      -0.455  -3.802   2.474  0.00  0.00    +0.031 A 
ATOM     10  C   UNL     1       0.405  -2.726   2.303  0.00  0.00    +0.072 A 
ATOM     11  C   UNL     1       0.033  -1.664   1.496  0.00  0.00    +0.169 A 
ATOM     12  O   UNL     1       0.680  -0.507   1.169  0.00  0.00    -0.448 OA
ATOM     13  C   UNL     1       0.669  -0.524  -1.273  0.00  0.00    +0.104 C 
ENDBRANCH   1   9
BRANCH   1  14
ATOM     14  C   UNL     1      -0.988  -6.010   3.471  0.00  0.00    +0.137 C 
BRANCH  14  15
ATOM     15  C   UNL     1      -0.351  -7.022   4.388  0.00  0.00    -0.029 A 
ATOM     16  C   UNL     1       0.439  -8.028   3.864  0.00  0.00    +0.009 A 
ATOM     17  C   UNL     1       1.024  -8.957   4.702  0.00  0.00    +0.047 A 
ATOM     18  C   UNL     1       0.818  -8.880   6.072  0.00  0.00    +0.131 A 
ATOM     19  C   UNL     1       0.025  -7.870   6.596  0.00  0.00    +0.060 A 
ATOM     20  C   UNL     1      -0.554  -6.939   5.753  0.00  0.00    +0.024 A 
ATOM     21 BR   UNL     1      -0.260  -7.761   8.463  0.00  0.00    -0.047 Br
BRANCH  18  22
ATOM     22  O   UNL     1       1.392  -9.793   6.899  0.00  0.00    -0.506 OA
ATOM     23  H   UNL     1       2.270  -9.540   7.216  0.00  0.00    +0.292 HD
ENDBRANCH  18  22
ENDBRANCH  14  15
ENDBRANCH   1  14
TORSDOF 4
