REMARK  Name = ZINC16036473
REMARK  5 active torsions:
REMARK  status: ('A' for Active; 'I' for Inactive)
REMARK    1  A    between atoms: C_1  and  C_2
REMARK    2  A    between atoms: N_4  and  C_5
REMARK    3  A    between atoms: C_7  and  O_28
REMARK    4  A    between atoms: C_15  and  C_18
REMARK    5  A    between atoms: C_25  and  O_27
REMARK                            x       y       z     vdW  Elec       q    Type
REMARK                         _______ _______ _______ _____ _____    ______ ____
ROOT
ATOM      1  C   UNL     1      -1.290   1.681   0.017  0.00  0.00    +0.160 C 
ATOM      2  C   UNL     1      -2.380   0.789  -0.583  0.00  0.00    +0.171 C 
ATOM      3  C   UNL     1      -3.726   1.516  -0.504  0.00  0.00    +0.183 C 
ATOM      4  C   UNL     1      -4.010   1.896   0.953  0.00  0.00    +0.178 C 
ATOM      5  C   UNL     1      -4.153   0.616   1.782  0.00  0.00    +0.197 C 
ATOM      6  O   UNL     1      -5.152  -0.215   1.182  0.00  0.00    -0.345 OA
ATOM      7  C   UNL     1      -4.877  -0.559  -0.178  0.00  0.00    +0.282 C 
ATOM      8  O   UNL     1      -4.758   0.633  -0.958  0.00  0.00    -0.339 OA
ATOM      9  O   UNL     1      -2.939   2.686   1.466  0.00  0.00    -0.341 OA
ATOM     10  C   UNL     1      -1.668   2.033   1.459  0.00  0.00    +0.270 C 
ENDROOT
BRANCH   7  11
ATOM     11  C   UNL     1      -6.002  -1.403  -0.720  0.00  0.00    +0.008 A 
ATOM     12  C   UNL     1      -6.732  -0.965  -1.809  0.00  0.00    +0.008 A 
ATOM     13  C   UNL     1      -7.761  -1.741  -2.309  0.00  0.00    +0.000 A 
ATOM     14  C   UNL     1      -8.066  -2.951  -1.714  0.00  0.00    +0.000 A 
ATOM     15  C   UNL     1      -7.339  -3.387  -0.622  0.00  0.00    +0.000 A 
ATOM     16  C   UNL     1      -6.307  -2.613  -0.125  0.00  0.00    +0.008 A 
ENDBRANCH   7  11
BRANCH   1  20
ATOM     17  C   UNL     1       2.462   0.920  -0.017  0.00  0.00    +0.109 C 
ATOM     18  C   UNL     1       1.147   1.655   0.000  0.00  0.00    +0.210 C 
ATOM     19  O   UNL     1       1.130   2.868   0.007  0.00  0.00    -0.276 OA
ATOM     20  N   UNL     1      -0.011   0.966   0.007  0.00  0.00    -0.305 N 
ATOM     21  H   UNL     1       0.002  -0.004   0.002  0.00  0.00    +0.149 HD
ENDBRANCH   1  20
BRANCH  10  22
ATOM     22  O   UNL     1      -1.741   0.838   2.238  0.00  0.00    -0.365 OA
ATOM     23  H   UNL     1      -1.976   0.986   3.164  0.00  0.00    +0.213 HD
ENDBRANCH  10  22
BRANCH   2  24
ATOM     24  O   UNL     1      -2.454  -0.434   0.152  0.00  0.00    -0.387 OA
ATOM     25  H   UNL     1      -1.634  -0.946   0.148  0.00  0.00    +0.210 HD
ENDBRANCH   2  24
TORSDOF 4
