REMARK  Name = ZINC24905896
REMARK  4 active torsions:
REMARK  status: ('A' for Active; 'I' for Inactive)
REMARK    1  A    between atoms: N_15  and  C_18
REMARK    2  A    between atoms: C_18  and  C_19
REMARK    3  A    between atoms: C_22  and  O_25
REMARK    4  A    between atoms: O_25  and  C_26
REMARK                            x       y       z     vdW  Elec       q    Type
REMARK                         _______ _______ _______ _____ _____    ______ ____
ROOT
ATOM      1  C   UNL     1      -0.013   1.076   0.008  0.00  0.00    +0.005 A 
ATOM      2  C   UNL     1      -1.218   1.755   0.017  0.00  0.00    +0.040 A 
ATOM      3  C   UNL     1      -1.239   3.134   0.018  0.00  0.00    +0.146 A 
ATOM      4  C   UNL     1      -0.044   3.864  -0.007  0.00  0.00    +0.084 A 
ATOM      5  C   UNL     1       1.154   3.167  -0.003  0.00  0.00    +0.089 A 
ATOM      6  C   UNL     1       1.173   1.787   0.001  0.00  0.00    +0.027 A 
ATOM      7  S   UNL     1       2.684   4.057   0.018  0.00  0.00    -0.055 S 
ATOM      8  O   UNL     1       3.232   3.916   1.322  0.00  0.00    -0.191 OA
ATOM      9  O   UNL     1       3.393   3.697  -1.159  0.00  0.00    -0.191 OA
ATOM     10  N   UNL     1       2.221   5.654  -0.151  0.00  0.00    +0.486 NA
ATOM     11  C   UNL     1       0.959   6.005   0.534  0.00  0.00    -0.028 C 
ATOM     12  N   UNL     1      -0.137   5.249  -0.055  0.00  0.00    -0.357 N 
ATOM     13  C   UNL     1       0.713   7.507   0.379  0.00  0.00    -0.018 C 
ATOM     14  C   UNL     1       1.860   8.279   1.034  0.00  0.00    -0.078 C 
ATOM     15  N   UNL     1       1.943   7.921   2.456  0.00  0.00    +0.382 N 
ATOM     16  C   UNL     1       2.230   6.491   2.628  0.00  0.00    -0.078 C 
ATOM     17  C   UNL     1       1.093   5.665   2.021  0.00  0.00    -0.018 C 
ATOM     18  F   UNL     1      -2.423   3.785   0.036  0.00  0.00    -0.203 F 
ATOM     19  H   UNL     1      -0.987   5.778  -0.511  0.00  0.00    +0.144 HD
ATOM     20  H   UNL     1       0.961   8.123   2.910  0.00  0.00    -0.081 HD
ENDROOT
BRANCH  15  21
ATOM     21  C   UNL     1       2.941   8.746   3.149  0.00  0.00    -0.043 C 
BRANCH  21  22
ATOM     22  C   UNL     1       2.486  10.182   3.161  0.00  0.00    -0.064 A 
ATOM     23  C   UNL     1       2.848  11.030   2.130  0.00  0.00    +0.005 A 
ATOM     24  C   UNL     1       2.428  12.345   2.136  0.00  0.00    +0.046 A 
ATOM     25  C   UNL     1       1.650  12.819   3.183  0.00  0.00    +0.130 A 
ATOM     26  C   UNL     1       1.293  11.969   4.219  0.00  0.00    +0.046 A 
ATOM     27  C   UNL     1       1.712  10.652   4.206  0.00  0.00    +0.005 A 
BRANCH  25  28
ATOM     28  O   UNL     1       1.239  14.115   3.193  0.00  0.00    -0.406 OA
BRANCH  28  29
ATOM     29  C   UNL     1       1.645  14.933   2.094  0.00  0.00    +0.575 C 
ATOM     30  F   UNL     1       1.151  14.391   0.903  0.00  0.00    -0.133 F 
ATOM     31  F   UNL     1       1.139  16.226   2.264  0.00  0.00    -0.133 F 
ATOM     32  F   UNL     1       3.042  14.982   2.040  0.00  0.00    -0.133 F 
ENDBRANCH  28  29
ENDBRANCH  25  28
ENDBRANCH  21  22
ENDBRANCH  15  21
TORSDOF 4
