REMARK  Name = ZINC39672771
REMARK  5 active torsions:
REMARK  status: ('A' for Active; 'I' for Inactive)
REMARK    1  A    between atoms: C_4  and  C_8
REMARK    2  A    between atoms: C_12  and  C_21
REMARK    3  A    between atoms: N_23  and  C_24
REMARK    4  A    between atoms: C_24  and  C_25
REMARK    5  A    between atoms: C_25  and  N_31
REMARK                            x       y       z     vdW  Elec       q    Type
REMARK                         _______ _______ _______ _____ _____    ______ ____
ROOT
ATOM      1  C   UNL     1       3.559  -0.519  -0.003  0.00  0.00    +0.249 C 
ATOM      2  O   UNL     1       4.106  -0.681   1.071  0.00  0.00    -0.270 OA
ATOM      3  N   UNL     1       4.149  -0.959  -1.132  0.00  0.00    -0.296 N 
ATOM      4  C   UNL     1       3.698  -0.760  -2.530  0.00  0.00    +0.121 C 
ATOM      5  C   UNL     1       4.997  -0.505  -3.327  0.00  0.00    +0.100 C 
ATOM      6  C   UNL     1       6.107  -1.159  -2.488  0.00  0.00    -0.004 C 
ATOM      7  C   UNL     1       5.400  -1.746  -1.257  0.00  0.00    +0.115 C 
ATOM      8  C   UNL     1       7.127  -0.111  -2.053  0.00  0.00    -0.010 C 
ATOM      9  C   UNL     1       8.251  -0.795  -1.268  0.00  0.00    -0.082 C 
ATOM     10  N   UNL     1       8.892  -1.810  -2.113  0.00  0.00    +0.379 N 
ATOM     11  C   UNL     1       7.927  -2.863  -2.450  0.00  0.00    -0.082 C 
ATOM     12  C   UNL     1       6.789  -2.267  -3.284  0.00  0.00    -0.010 C 
ATOM     13  H   UNL     1       9.226  -1.378  -2.961  0.00  0.00    -0.086 HD
ATOM     14  H   UNL     1       9.671  -2.216  -1.616  0.00  0.00    -0.086 HD
ENDROOT
BRANCH   1  18
ATOM     15  C   UNL     1      -0.210   1.431  -0.198  0.00  0.00    +0.003 A 
ATOM     16  C   UNL     1       0.951   2.181  -0.150  0.00  0.00    +0.021 A 
ATOM     17  C   UNL     1       2.180   1.554  -0.086  0.00  0.00    +0.054 A 
ATOM     18  C   UNL     1       2.249   0.159  -0.070  0.00  0.00    +0.073 A 
ATOM     19  C   UNL     1       1.071  -0.593  -0.119  0.00  0.00    +0.054 A 
ATOM     20  C   UNL     1      -0.150   0.049  -0.182  0.00  0.00    +0.021 A 
ATOM     21 CL   UNL     1       1.144  -2.327  -0.100  0.00  0.00    -0.083 Cl
ATOM     22 CL   UNL     1       3.636   2.498  -0.027  0.00  0.00    -0.083 Cl
ENDBRANCH   1  18
BRANCH   5  23
ATOM     23  C   UNL     1       5.245   0.975  -3.467  0.00  0.00    +0.218 C 
ATOM     24  O   UNL     1       4.930   1.730  -2.571  0.00  0.00    -0.275 OA
ATOM     25  N   UNL     1       5.815   1.460  -4.588  0.00  0.00    -0.313 N 
ATOM     26  H   UNL     1       6.133   0.851  -5.272  0.00  0.00    +0.149 HD
BRANCH  25  27
ATOM     27  C   UNL     1       5.955   2.906  -4.771  0.00  0.00    +0.126 C 
BRANCH  27  28
ATOM     28  C   UNL     1       6.463   3.194  -6.186  0.00  0.00    +0.038 C 
ATOM     29  C   UNL     1       7.721   2.365  -6.454  0.00  0.00    +0.024 C 
ATOM     30  C   UNL     1       8.803   2.736  -5.438  0.00  0.00    +0.002 C 
ATOM     31  C   UNL     1       9.136   4.224  -5.568  0.00  0.00    +0.000 C 
ATOM     32  C   UNL     1       7.878   5.053  -5.300  0.00  0.00    +0.002 C 
ATOM     33  C   UNL     1       6.796   4.681  -6.316  0.00  0.00    +0.024 C 
BRANCH  28  34
ATOM     34  N   UNL     1       5.425   2.837  -7.161  0.00  0.00    -0.291 NA
ATOM     35  C   UNL     1       4.260   3.726  -7.039  0.00  0.00    +0.113 C 
ATOM     36  C   UNL     1       3.230   3.358  -8.110  0.00  0.00    +0.175 C 
ATOM     37  O   UNL     1       2.876   1.980  -7.971  0.00  0.00    -0.377 OA
ATOM     38  C   UNL     1       3.986   1.086  -8.085  0.00  0.00    +0.175 C 
ATOM     39  C   UNL     1       5.024   1.430  -7.013  0.00  0.00    +0.113 C 
ENDBRANCH  28  34
ENDBRANCH  27  28
ENDBRANCH  25  27
ENDBRANCH   5  23
TORSDOF 5
