REMARK  Name = ZINC40737589
REMARK  7 active torsions:
REMARK  status: ('A' for Active; 'I' for Inactive)
REMARK    1  A    between atoms: C_3  and  N_10
REMARK    2  A    between atoms: C_6  and  C_7
REMARK    3  A    between atoms: C_7  and  C_8
REMARK    4  A    between atoms: C_8  and  O_9
REMARK    5  A    between atoms: N_10  and  S_11
REMARK    6  A    between atoms: S_11  and  C_14
REMARK    7  A    between atoms: C_19  and  N_20
REMARK                            x       y       z     vdW  Elec       q    Type
REMARK                         _______ _______ _______ _____ _____    ______ ____
ROOT
ATOM      1  S   UNL     1       4.796   1.751   1.077  0.00  0.00    +0.074 S 
ATOM      2  O   UNL     1       5.879   2.668   1.009  0.00  0.00    -0.150 OA
ATOM      3  O   UNL     1       4.046   1.544   2.266  0.00  0.00    -0.150 OA
ENDROOT
BRANCH   1   4
ATOM      4  C   UNL     1       5.436   0.179   0.605  0.00  0.00    +0.129 A 
ATOM      5  C   UNL     1       5.197  -0.930   1.393  0.00  0.00    +0.032 A 
ATOM      6  C   UNL     1       5.699  -2.164   1.024  0.00  0.00    +0.022 A 
ATOM      7  C   UNL     1       6.443  -2.293  -0.136  0.00  0.00    +0.043 A 
ATOM      8  C   UNL     1       6.687  -1.187  -0.928  0.00  0.00    +0.044 A 
ATOM      9  C   UNL     1       6.178   0.053  -0.563  0.00  0.00    +0.053 A 
ATOM     10 CL   UNL     1       7.072  -3.844  -0.595  0.00  0.00    -0.083 Cl
BRANCH   9  11
ATOM     11  N   UNL     1       6.416   1.171  -1.365  0.00  0.00    -0.356 N 
ATOM     12  H   UNL     1       5.998   2.020  -1.150  0.00  0.00    +0.142 HD
ATOM     13  H   UNL     1       7.000   1.099  -2.136  0.00  0.00    +0.142 HD
ENDBRANCH   9  11
ENDBRANCH   1   4
BRANCH   1  14
ATOM     14  N   UNL     1       3.715   2.210  -0.091  0.00  0.00    -0.216 N 
ATOM     15  H   UNL     1       3.909   2.971  -0.660  0.00  0.00    +0.174 HD
BRANCH  14  18
ATOM     16  C   UNL     1       0.143   1.478  -0.551  0.00  0.00    +0.005 A 
ATOM     17  C   UNL     1       1.319   2.183  -0.388  0.00  0.00    +0.025 A 
ATOM     18  C   UNL     1       2.523   1.501  -0.256  0.00  0.00    +0.048 A 
ATOM     19  C   UNL     1       2.538   0.112  -0.290  0.00  0.00    +0.025 A 
ATOM     20  C   UNL     1       1.357  -0.586  -0.454  0.00  0.00    +0.005 A 
ATOM     21  C   UNL     1       0.161   0.096  -0.585  0.00  0.00    -0.045 A 
BRANCH  21  22
ATOM     22  C   UNL     1      -1.125  -0.669  -0.763  0.00  0.00    +0.063 C 
BRANCH  22  23
ATOM     23  C   UNL     1      -1.383  -0.891  -2.255  0.00  0.00    +0.160 C 
BRANCH  23  24
ATOM     24  O   UNL     1      -2.603  -1.617  -2.424  0.00  0.00    -0.395 OA
ATOM     25  H   UNL     1      -2.830  -1.794  -3.347  0.00  0.00    +0.209 HD
ENDBRANCH  23  24
ENDBRANCH  22  23
ENDBRANCH  21  22
ENDBRANCH  14  18
ENDBRANCH   1  14
TORSDOF 7
