REMARK  Name = ZINC40459456
REMARK  3 active torsions:
REMARK  status: ('A' for Active; 'I' for Inactive)
REMARK    1  A    between atoms: C_1  and  C_2
REMARK    2  A    between atoms: C_2  and  C_3
REMARK    3  A    between atoms: C_10  and  C_12
REMARK                            x       y       z     vdW  Elec       q    Type
REMARK                         _______ _______ _______ _____ _____    ______ ____
ROOT
ATOM      1  C   UNL     1       0.764  -0.390  -1.266  0.00  0.00    +0.076 C 
ATOM      2  C   UNL     1       0.887  -1.914  -1.364  0.00  0.00    +0.022 C 
ATOM      3  C   UNL     1       1.536  -2.285  -2.699  0.00  0.00    +0.003 C 
ATOM      4  C   UNL     1       0.653  -1.797  -3.850  0.00  0.00    +0.019 C 
ATOM      5  C   UNL     1       0.527  -0.272  -3.781  0.00  0.00    +0.108 C 
ATOM      6  N   UNL     1       0.042   0.105  -2.446  0.00  0.00    -0.297 N 
ATOM      7  C   UNL     1      -1.047   0.887  -2.307  0.00  0.00    +0.236 C 
ATOM      8  O   UNL     1      -1.382   1.269  -1.205  0.00  0.00    -0.274 OA
ENDROOT
BRANCH   7   9
ATOM      9  C   UNL     1      -1.847   1.288  -3.519  0.00  0.00    +0.161 C 
ATOM     10  C   UNL     1      -1.181   2.478  -4.229  0.00  0.00    +0.068 C 
ATOM     11  C   UNL     1      -2.215   3.580  -4.172  0.00  0.00    -0.024 A 
ATOM     12  C   UNL     1      -2.182   4.878  -4.645  0.00  0.00    +0.005 A 
ATOM     13  C   UNL     1      -3.272   5.710  -4.467  0.00  0.00    +0.000 A 
ATOM     14  C   UNL     1      -4.397   5.239  -3.813  0.00  0.00    +0.002 A 
ATOM     15  C   UNL     1      -4.434   3.946  -3.339  0.00  0.00    +0.023 A 
ATOM     16  C   UNL     1      -3.337   3.099  -3.515  0.00  0.00    +0.031 A 
ATOM     17  N   UNL     1      -3.172   1.770  -3.117  0.00  0.00    -0.332 N 
ATOM     18  H   UNL     1      -3.835   1.243  -2.644  0.00  0.00    +0.147 HD
ENDBRANCH   7   9
BRANCH   1  20
ATOM     19  C   UNL     1       0.724  -0.572   1.225  0.00  0.00    +0.006 C 
ATOM     20  C   UNL     1      -0.008  -0.018   0.001  0.00  0.00    +0.019 C 
ENDBRANCH   1  20
TORSDOF 2
