REMARK  Name = ZINC38108187
REMARK  5 active torsions:
REMARK  status: ('A' for Active; 'I' for Inactive)
REMARK    1  A    between atoms: C_2  and  S_8
REMARK    2  A    between atoms: S_8  and  N_11
REMARK    3  A    between atoms: N_11  and  C_12
REMARK    4  A    between atoms: N_15  and  C_18
REMARK    5  A    between atoms: C_18  and  C_19
REMARK                            x       y       z     vdW  Elec       q    Type
REMARK                         _______ _______ _______ _____ _____    ______ ____
ROOT
ATOM      1  C   UNL     1       1.260   5.680   1.926  0.00  0.00    -0.103 C 
ATOM      2  C   UNL     1       0.010   6.360   1.359  0.00  0.00    -0.040 C 
ATOM      3  C   UNL     1       0.003   7.832   1.777  0.00  0.00    -0.080 C 
ATOM      4  N   UNL     1      -0.007   7.929   3.241  0.00  0.00    +0.385 N 
ATOM      5  C   UNL     1       1.223   7.343   3.788  0.00  0.00    -0.080 C 
ATOM      6  C   UNL     1       1.277   5.852   3.448  0.00  0.00    -0.040 C 
ATOM      7  H   UNL     1      -0.806   7.431   3.605  0.00  0.00    -0.081 HD
ENDROOT
BRANCH   1   8
ATOM      8  N   UNL     1       1.235   4.253   1.594  0.00  0.00    +0.470 NA
BRANCH   8   9
ATOM      9  S   UNL     1       1.213   3.772   0.010  0.00  0.00    -0.057 S 
ATOM     10  O   UNL     1       2.459   4.161  -0.550  0.00  0.00    -0.191 OA
ATOM     11  O   UNL     1      -0.031   4.200  -0.527  0.00  0.00    -0.191 OA
BRANCH   9  13
ATOM     12  C   UNL     1      -0.016   1.319   0.009  0.00  0.00    +0.140 A 
ATOM     13  C   UNL     1       1.186   2.010   0.002  0.00  0.00    +0.102 A 
ATOM     14  C   UNL     1       2.365   1.282  -0.014  0.00  0.00    +0.140 A 
ATOM     15  N   UNL     1       2.306  -0.040  -0.020  0.00  0.00    -0.224 NA
ATOM     16  C   UNL     1       1.144  -0.664  -0.012  0.00  0.00    +0.223 A 
ATOM     17  N   UNL     1       0.002  -0.004   0.002  0.00  0.00    -0.224 NA
ATOM     18 CL   UNL     1       1.117  -2.400  -0.021  0.00  0.00    -0.041 Cl
ENDBRANCH   9  13
ENDBRANCH   8   9
ENDBRANCH   1   8
BRANCH   4  19
ATOM     19  C   UNL     1      -0.092   9.341   3.637  0.00  0.00    +0.018 C 
BRANCH  19  20
ATOM     20  C   UNL     1      -0.226   9.436   5.135  0.00  0.00    +0.194 C 
ATOM     21  O   UNL     1      -0.248   8.427   5.807  0.00  0.00    -0.278 OA
ATOM     22  N   UNL     1      -0.322  10.643   5.727  0.00  0.00    -0.331 N 
ATOM     23  H   UNL     1      -0.304  11.450   5.190  0.00  0.00    +0.145 HD
ATOM     24  H   UNL     1      -0.408  10.704   6.691  0.00  0.00    +0.145 HD
ENDBRANCH  19  20
ENDBRANCH   4  19
TORSDOF 5
