REMARK  Name = ZINC02601635
REMARK  6 active torsions:
REMARK  status: ('A' for Active; 'I' for Inactive)
REMARK    1  A    between atoms: C_1  and  C_2
REMARK    2  A    between atoms: C_2  and  C_3
REMARK    3  A    between atoms: C_2  and  C_4
REMARK    4  A    between atoms: C_7  and  C_10
REMARK    5  A    between atoms: C_15  and  C_19
REMARK    6  A    between atoms: C_15  and  C_20
REMARK                            x       y       z     vdW  Elec       q    Type
REMARK                         _______ _______ _______ _____ _____    ______ ____
ROOT
ATOM      1  C   UNL     1      -5.419  -2.005   0.043  0.00  0.00    +0.137 C 
ATOM      2  C   UNL     1      -6.271  -1.131  -0.840  0.00  0.00    +0.037 C 
ATOM      3  C   UNL     1      -6.922  -1.640  -1.906  0.00  0.00    +0.019 C 
ATOM      4  C   UNL     1      -7.768  -0.759  -2.794  0.00  0.00    +0.058 C 
ATOM      5  C   UNL     1      -8.363   0.383  -1.968  0.00  0.00    -0.023 C 
ATOM      6  C   UNL     1      -7.213   1.173  -1.335  0.00  0.00    +0.086 C 
ATOM      7  C   UNL     1      -6.368   0.235  -0.517  0.00  0.00    +0.163 C 
ATOM      8  O   UNL     1      -5.757   0.666   0.441  0.00  0.00    -0.292 OA
ATOM      9  C   UNL     1      -9.261  -0.189  -0.869  0.00  0.00    +0.011 C 
ATOM     10  C   UNL     1      -9.181   1.303  -2.876  0.00  0.00    +0.011 C 
ATOM     11  N   UNL     1      -6.833  -2.971  -2.212  0.00  0.00    -0.300 N 
ATOM     12  C   UNL     1      -6.097  -3.811  -1.471  0.00  0.00    +0.135 C 
ATOM     13  N   UNL     1      -5.415  -3.389  -0.401  0.00  0.00    -0.315 N 
ATOM     14  S   UNL     1      -6.028  -5.466  -1.905  0.00  0.00    -0.019 S 
ATOM     15  H   UNL     1      -7.313  -3.315  -2.982  0.00  0.00    +0.154 HD
ATOM     16  H   UNL     1      -4.894  -4.035   0.101  0.00  0.00    +0.149 HD
ENDROOT
BRANCH   1  20
ATOM     17  C   UNL     1      -1.412  -0.526   0.013  0.00  0.00    -0.045 A 
ATOM     18  C   UNL     1      -2.259  -0.204   1.056  0.00  0.00    +0.004 A 
ATOM     19  C   UNL     1      -3.556  -0.683   1.066  0.00  0.00    +0.006 A 
ATOM     20  C   UNL     1      -4.006  -1.482   0.032  0.00  0.00    -0.023 A 
ATOM     21  C   UNL     1      -3.159  -1.803  -1.012  0.00  0.00    +0.006 A 
ATOM     22  C   UNL     1      -1.863  -1.321  -1.024  0.00  0.00    +0.004 A 
BRANCH  17  24
ATOM     23  C   UNL     1      -0.019   1.526   0.010  0.00  0.00    +0.012 C 
ATOM     24  C   UNL     1       0.002  -0.004   0.002  0.00  0.00    +0.013 C 
ATOM     25  C   UNL     1       0.742  -0.511   1.242  0.00  0.00    +0.012 C 
ENDBRANCH  17  24
ENDBRANCH   1  20
TORSDOF 2
