REMARK  Name = ZINC44879709
REMARK  9 active torsions:
REMARK  status: ('A' for Active; 'I' for Inactive)
REMARK    1  A    between atoms: C_1  and  C_2
REMARK    2  A    between atoms: C_2  and  C_3
REMARK    3  A    between atoms: C_2  and  C_4
REMARK    4  A    between atoms: C_4  and  C_6
REMARK    5  A    between atoms: C_4  and  C_10
REMARK    6  A    between atoms: N_7  and  O_8
REMARK    7  A    between atoms: N_12  and  C_13
REMARK    8  A    between atoms: C_13  and  C_14
REMARK    9  A    between atoms: N_20  and  C_21
REMARK                            x       y       z     vdW  Elec       q    Type
REMARK                         _______ _______ _______ _____ _____    ______ ____
ROOT
ATOM      1  C   UNL     1      -3.598   1.114  -1.570  0.00  0.00    +0.224 C 
ATOM      2  O   UNL     1      -4.345   0.670  -2.417  0.00  0.00    -0.275 OA
ATOM      3  N   UNL     1      -3.337   2.436  -1.529  0.00  0.00    -0.316 N 
ATOM      4  H   UNL     1      -2.686   2.782  -0.899  0.00  0.00    +0.149 HD
ENDROOT
BRANCH   1   5
ATOM      5  C   UNL     1      -2.963   0.189  -0.565  0.00  0.00    +0.144 C 
BRANCH   5   6
ATOM      6  C   UNL     1      -3.627  -1.162  -0.636  0.00  0.00    +0.144 C 
ATOM      7  N   UNL     1      -3.124  -2.092  -1.378  0.00  0.00    -0.076 NA
ATOM      8  N   UNL     1      -4.772  -1.405   0.091  0.00  0.00    -0.343 N 
ATOM      9  H   UNL     1      -5.150  -0.707   0.648  0.00  0.00    +0.144 HD
ATOM     10  H   UNL     1      -5.200  -2.275   0.045  0.00  0.00    +0.144 HD
BRANCH   7  11
ATOM     11  O   UNL     1      -3.748  -3.361  -1.444  0.00  0.00    -0.408 OA
ATOM     12  H   UNL     1      -3.299  -3.990  -2.025  0.00  0.00    +0.328 HD
ENDBRANCH   7  11
ENDBRANCH   5   6
BRANCH   5  14
ATOM     13  C   UNL     1      -0.855  -1.000   0.058  0.00  0.00    +0.008 C 
ATOM     14  C   UNL     1      -1.473   0.041  -0.879  0.00  0.00    +0.002 C 
ATOM     15  C   UNL     1      -1.299  -0.412  -2.330  0.00  0.00    +0.008 C 
ENDBRANCH   5  14
ENDBRANCH   1   5
BRANCH   3  16
ATOM     16  C   UNL     1      -4.037   3.350  -2.435  0.00  0.00    +0.089 C 
BRANCH  16  17
ATOM     17  C   UNL     1      -3.466   4.760  -2.278  0.00  0.00    -0.052 C 
ATOM     18  C   UNL     1      -3.760   5.275  -0.868  0.00  0.00    -0.014 C 
ATOM     19  C   UNL     1      -3.187   6.687  -0.715  0.00  0.00    -0.003 C 
ATOM     20  C   UNL     1      -1.687   6.654  -1.020  0.00  0.00    -0.019 C 
ATOM     21  C   UNL     1      -1.469   6.088  -2.425  0.00  0.00    -0.079 C 
ATOM     22  N   UNL     1      -2.015   4.727  -2.498  0.00  0.00    +0.381 N 
ATOM     23  C   UNL     1      -1.734   4.160  -3.823  0.00  0.00    -0.096 C 
ATOM     24  H   UNL     1      -1.582   4.154  -1.790  0.00  0.00    -0.082 HD
ENDBRANCH  16  17
ENDBRANCH   3  16
TORSDOF 6
