REMARK  Name = ZINC20794862
REMARK  2 active torsions:
REMARK  status: ('A' for Active; 'I' for Inactive)
REMARK    1  A    between atoms: N_14  and  C_18
REMARK    2  A    between atoms: C_18  and  C_19
REMARK                            x       y       z     vdW  Elec       q    Type
REMARK                         _______ _______ _______ _____ _____    ______ ____
ROOT
ATOM      1  C   UNL     1       1.157   3.161   0.012  0.00  0.00    +0.000 A 
ATOM      2  C   UNL     1       1.175   1.779   0.000  0.00  0.00    +0.000 A 
ATOM      3  C   UNL     1      -0.013   1.076   0.008  0.00  0.00    +0.006 A 
ATOM      4  C   UNL     1      -1.232   1.750   0.017  0.00  0.00    -0.012 A 
ATOM      5  C   UNL     1      -1.246   3.114   0.040  0.00  0.00    -0.042 A 
ATOM      6  C   UNL     1      -0.051   3.827   0.034  0.00  0.00    +0.004 A 
ATOM      7  C   UNL     1      -2.524   3.925   0.074  0.00  0.00    +0.035 C 
ATOM      8  C   UNL     1      -3.290   3.712  -1.230  0.00  0.00    +0.005 C 
ATOM      9  C   UNL     1      -4.110   2.438  -1.174  0.00  0.00    +0.003 C 
ATOM     10  C   UNL     1      -3.291   1.167  -1.264  0.00  0.00    +0.040 C 
ATOM     11  C   UNL     1      -2.483   0.903   0.001  0.00  0.00    +0.138 C 
ATOM     12  C   UNL     1      -3.292   1.056   1.255  0.00  0.00    +0.251 C 
ATOM     13  O   UNL     1      -3.912   2.018   1.656  0.00  0.00    -0.272 OA
ATOM     14  N   UNL     1      -3.212  -0.135   1.893  0.00  0.00    -0.215 N 
ATOM     15  C   UNL     1      -2.521  -1.029   1.178  0.00  0.00    +0.310 C 
ATOM     16  O   UNL     1      -2.314  -2.171   1.541  0.00  0.00    -0.252 OA
ATOM     17  N   UNL     1      -2.082  -0.520   0.014  0.00  0.00    -0.281 N 
ATOM     18  H   UNL     1      -1.532  -0.944  -0.839  0.00  0.00    +0.152 HD
ENDROOT
BRANCH  14  19
ATOM     19  C   UNL     1      -3.809  -0.405   3.203  0.00  0.00    +0.213 C 
BRANCH  19  20
ATOM     20  C   UNL     1      -5.214  -0.918   3.019  0.00  0.00    +0.228 C 
ATOM     21  O   UNL     1      -5.671  -1.045   1.903  0.00  0.00    -0.274 OA
ATOM     22  N   UNL     1      -5.962  -1.235   4.095  0.00  0.00    -0.328 N 
ATOM     23  H   UNL     1      -6.987  -1.609   3.960  0.00  0.00    +0.145 HD
ATOM     24  H   UNL     1      -5.546  -1.119   5.107  0.00  0.00    +0.145 HD
ENDBRANCH  19  20
ENDBRANCH  14  19
TORSDOF 2
