REMARK  Name = ZINC16899703
REMARK  9 active torsions:
REMARK  status: ('A' for Active; 'I' for Inactive)
REMARK    1  A    between atoms: C_1  and  C_2
REMARK    2  A    between atoms: C_4  and  C_25
REMARK    3  A    between atoms: C_5  and  N_9
REMARK    4  A    between atoms: C_6  and  C_8
REMARK    5  A    between atoms: C_13  and  S_17
REMARK    6  A    between atoms: S_17  and  C_18
REMARK    7  A    between atoms: C_18  and  C_19
REMARK    8  A    between atoms: C_19  and  C_21
REMARK    9  A    between atoms: C_19  and  N_24
REMARK                            x       y       z     vdW  Elec       q    Type
REMARK                         _______ _______ _______ _____ _____    ______ ____
ROOT
ATOM      1  N   UNK     1       0.059  -4.172  -0.021  0.00  0.00    -0.209 N 
ATOM      2  C   UNK     1      -1.058  -4.912  -0.025  0.00  0.00    +0.228 C 
ATOM      3  O   UNK     1      -2.189  -4.476  -0.022  0.00  0.00    -0.275 OA
ATOM      4  C   UNK     1      -0.683  -6.378  -0.033  0.00  0.00    +0.120 C 
ATOM      5  C   UNK     1       0.859  -6.357  -0.033  0.00  0.00    +0.142 C 
ATOM      6  C   UNK     1       1.194  -4.882  -0.031  0.00  0.00    +0.240 C 
ATOM      7  O   UNK     1       2.313  -4.416  -0.035  0.00  0.00    -0.274 OA
ENDROOT
BRANCH   1  12
ATOM      8  C   UNK     1      -0.018   1.503   0.010  0.00  0.00    +0.044 C 
ATOM      9  C   UNK     1       0.002  -0.004   0.002  0.00  0.00    -0.050 A 
ATOM     10  C   UNK     1       0.006  -0.688  -1.200  0.00  0.00    +0.008 A 
ATOM     11  C   UNK     1       0.025  -2.068  -1.211  0.00  0.00    -0.028 A 
ATOM     12  C   UNK     1       0.040  -2.771  -0.013  0.00  0.00    +0.050 A 
ATOM     13  C   UNK     1       0.037  -2.082   1.192  0.00  0.00    -0.028 A 
ATOM     14  C   UNK     1       0.023  -0.700   1.196  0.00  0.00    +0.008 A 
ATOM     15  C   UNK     1       0.053  -2.840   2.494  0.00  0.00    +0.046 C 
ATOM     16  C   UNK     1       0.028  -2.813  -2.521  0.00  0.00    +0.046 C 
ENDBRANCH   1  12
BRANCH   5  17
ATOM     17  S   UNK     1       1.508  -7.155  -1.527  0.00  0.00    -0.149 S 
BRANCH  17  18
ATOM     18  C   UNK     1       3.304  -7.169  -1.273  0.00  0.00    +0.065 C 
BRANCH  18  19
ATOM     19  C   UNK     1       3.984  -7.824  -2.477  0.00  0.00    +0.050 C 
BRANCH  19  20
ATOM     20  N   UNK     1       3.767  -6.997  -3.672  0.00  0.00    +0.388 N 
ATOM     21  H   UNK     1       4.159  -6.080  -3.522  0.00  0.00    -0.089 HD
ATOM     22  H   UNK     1       4.216  -7.429  -4.466  0.00  0.00    -0.089 HD
ATOM     23  H   UNK     1       2.777  -6.916  -3.849  0.00  0.00    -0.089 HD
ENDBRANCH  19  20
BRANCH  19  24
ATOM     24  C   UNK     1       5.463  -7.946  -2.213  0.00  0.00    +0.343 C 
ATOM     25  O   UNK     1       5.905  -8.947  -1.676  0.00  0.00    -0.248 OA
ATOM     26  O   UNK     1       6.216  -7.044  -2.536  0.00  0.00    -0.248 OA
ENDBRANCH  19  24
ENDBRANCH  18  19
ENDBRANCH  17  18
ENDBRANCH   5  17
TORSDOF 6
