REMARK  Name = ZINC16953964
REMARK  10 active torsions:
REMARK  status: ('A' for Active; 'I' for Inactive)
REMARK    1  A    between atoms: C_1  and  C_2
REMARK    2  A    between atoms: C_2  and  N_3
REMARK    3  A    between atoms: N_3  and  C_4
REMARK    4  A    between atoms: C_4  and  C_5
REMARK    5  A    between atoms: C_6  and  C_8
REMARK    6  A    between atoms: C_8  and  O_9
REMARK    7  A    between atoms: O_9  and  C_10
REMARK    8  A    between atoms: C_13  and  N_17
REMARK    9  A    between atoms: C_22  and  C_23
REMARK   10  A    between atoms: C_22  and  C_24
REMARK                            x       y       z     vdW  Elec       q    Type
REMARK                         _______ _______ _______ _____ _____    ______ ____
ROOT
ATOM      1  C   UNL     1       0.398  -1.825  -5.751  0.00  0.00    +0.140 A 
ATOM      2  C   UNL     1       1.589  -2.527  -5.853  0.00  0.00    +0.049 A 
ATOM      3  C   UNL     1       2.029  -2.966  -7.086  0.00  0.00    +0.027 A 
ATOM      4  C   UNL     1       1.279  -2.704  -8.225  0.00  0.00    +0.040 A 
ATOM      5  C   UNL     1       0.087  -2.001  -8.123  0.00  0.00    +0.047 A 
ATOM      6  C   UNL     1      -0.356  -1.567  -6.888  0.00  0.00    +0.084 A 
ATOM      7 CL   UNL     1      -1.850  -0.693  -6.758  0.00  0.00    -0.080 Cl
ENDROOT
BRANCH   4   8
ATOM      8  N   UNL     1       1.726  -3.148  -9.476  0.00  0.00    -0.250 N 
ATOM      9  C   UNL     1       2.599  -2.398 -10.228  0.00  0.00    +0.189 C 
ATOM     10  N   UNL     1       3.428  -3.024 -11.044  0.00  0.00    -0.187 NA
ATOM     11  C   UNL     1       3.404  -4.363 -11.159  0.00  0.00    +0.191 C 
ATOM     12  N   UNL     1       2.424  -5.082 -10.680  0.00  0.00    -0.337 N 
ATOM     13  C   UNL     1       1.282  -4.437 -10.030  0.00  0.00    +0.109 C 
ATOM     14  C   UNL     1       0.759  -5.330  -8.903  0.00  0.00    +0.056 C 
ATOM     15  C   UNL     1       0.174  -4.202 -11.059  0.00  0.00    +0.056 C 
ATOM     16  N   UNL     1       4.447  -4.998 -11.803  0.00  0.00    -0.329 N 
ATOM     17  N   UNL     1       2.610  -1.034 -10.133  0.00  0.00    -0.331 N 
ATOM     18  H   UNL     1       5.182  -4.478 -12.165  0.00  0.00    +0.145 HD
ATOM     19  H   UNL     1       4.444  -5.963 -11.895  0.00  0.00    +0.145 HD
ATOM     20  H   UNL     1       2.041  -0.589  -9.486  0.00  0.00    +0.145 HD
ATOM     21  H   UNL     1       3.185  -0.512 -10.714  0.00  0.00    +0.145 HD
ATOM     22  H   UNL     1       2.454  -6.048 -10.753  0.00  0.00    +0.164 HD
ENDBRANCH   4   8
BRANCH   1  23
ATOM     23  O   UNL     1      -0.035  -1.393  -4.536  0.00  0.00    -0.481 OA
BRANCH  23  24
ATOM     24  C   UNL     1       0.791  -1.694  -3.409  0.00  0.00    +0.324 C 
BRANCH  24  26
ATOM     25  N   UNL     1       0.760  -1.306  -0.966  0.00  0.00    -0.299 N 
ATOM     26  C   UNL     1       0.155  -1.141  -2.159  0.00  0.00    +0.253 C 
ATOM     27  O   UNL     1      -0.900  -0.548  -2.227  0.00  0.00    -0.272 OA
BRANCH  25  29
ATOM     28  C   UNL     1       0.637   0.660   0.483  0.00  0.00    +0.024 C 
ATOM     29  C   UNL     1       0.143  -0.768   0.249  0.00  0.00    +0.104 C 
ENDBRANCH  25  29
BRANCH  25  30
ATOM     30  C   UNL     1       2.036  -2.022  -0.884  0.00  0.00    +0.104 C 
ATOM     31  C   UNL     1       1.770  -3.513  -0.667  0.00  0.00    +0.024 C 
ENDBRANCH  25  30
ENDBRANCH  24  26
ENDBRANCH  23  24
ENDBRANCH   1  23
TORSDOF 6
