REMARK  Name = ZINC06651576
REMARK  3 active torsions:
REMARK  status: ('A' for Active; 'I' for Inactive)
REMARK    1  A    between atoms: C_8  and  C_12
REMARK    2  A    between atoms: C_9  and  C_10
REMARK    3  A    between atoms: C_10  and  O_11
REMARK                            x       y       z     vdW  Elec       q    Type
REMARK                         _______ _______ _______ _____ _____    ______ ____
ROOT
ATOM      1  C   UNL     1       5.865  -1.895   0.028  0.00  0.00    +0.005 A 
ATOM      2  C   UNL     1       6.353  -0.994  -0.934  0.00  0.00    +0.018 A 
ATOM      3  C   UNL     1       5.656   0.121  -1.237  0.00  0.00    +0.093 A 
ATOM      4  N   UNL     1       4.470   0.391  -0.617  0.00  0.00    -0.301 N 
ATOM      5  C   UNL     1       3.968  -0.469   0.326  0.00  0.00    +0.139 A 
ATOM      6  C   UNL     1       4.685  -1.639   0.654  0.00  0.00    +0.047 A 
ATOM      7  N   UNL     1       2.819   0.021   0.766  0.00  0.00    -0.227 NA
ATOM      8  C   UNL     1       2.563   1.177   0.133  0.00  0.00    +0.095 A 
ATOM      9  C   UNL     1       3.580   1.421  -0.739  0.00  0.00    +0.076 A 
ENDROOT
BRANCH   8  10
ATOM     10  C   UNL     1       1.373   2.038   0.343  0.00  0.00    +0.002 A 
ATOM     11  C   UNL     1       0.725   2.612  -0.748  0.00  0.00    +0.013 A 
ATOM     12  C   UNL     1      -0.378   3.417  -0.548  0.00  0.00    +0.039 A 
ATOM     13  C   UNL     1      -0.848   3.644   0.735  0.00  0.00    +0.123 A 
ATOM     14  C   UNL     1      -0.207   3.075   1.823  0.00  0.00    +0.039 A 
ATOM     15  C   UNL     1       0.900   2.274   1.633  0.00  0.00    +0.013 A 
ATOM     16  F   UNL     1      -1.932   4.428   0.926  0.00  0.00    -0.205 F 
ENDBRANCH   8  10
BRANCH   9  17
ATOM     17  C   UNL     1       3.703   2.606  -1.663  0.00  0.00    +0.211 C 
BRANCH  17  18
ATOM     18  O   UNL     1       3.200   2.258  -2.954  0.00  0.00    -0.389 OA
ATOM     19  H   UNL     1       3.247   2.974  -3.601  0.00  0.00    +0.210 HD
ENDBRANCH  17  18
ENDBRANCH   9  17
TORSDOF 3
