REMARK  Name = ZINC02890855
REMARK  7 active torsions:
REMARK  status: ('A' for Active; 'I' for Inactive)
REMARK    1  A    between atoms: C_1  and  O_2
REMARK    2  A    between atoms: O_2  and  C_3
REMARK    3  A    between atoms: C_6  and  C_9
REMARK    4  A    between atoms: C_14  and  N_18
REMARK    5  A    between atoms: C_23  and  C_24
REMARK    6  A    between atoms: C_23  and  C_30
REMARK    7  A    between atoms: C_23  and  N_64
REMARK                            x       y       z     vdW  Elec       q    Type
REMARK                         _______ _______ _______ _____ _____    ______ ____
ROOT
ATOM      1  N   UNL     1      -1.004  -1.391  -0.289  0.00  0.00    -0.318 N 
ATOM      2  C   UNL     1      -0.959  -2.626  -1.084  0.00  0.00    +0.088 C 
ATOM      3  C   UNL     1      -2.316  -3.329  -1.008  0.00  0.00    -0.058 C 
ATOM      4  C   UNL     1      -3.408  -1.190  -0.711  0.00  0.00    -0.058 C 
ATOM      5  C   UNL     1      -2.050  -0.487  -0.787  0.00  0.00    +0.088 C 
ATOM      6  N   UNL     1      -3.355  -2.417  -1.532  0.00  0.00    +0.389 N 
ATOM      7  H   UNL     1      -3.119  -2.163  -2.498  0.00  0.00    -0.080 HD
ENDROOT
BRANCH   1  13
ATOM      8  C   UNL     1       0.740  -1.335   2.214  0.00  0.00    +0.002 A 
ATOM      9  C   UNL     1       1.660  -1.194   3.197  0.00  0.00    +0.056 A 
ATOM     10  S   UNL     1       2.965  -0.265   2.416  0.00  0.00    -0.076 S 
ATOM     11  C   UNL     1       2.256  -0.087   0.801  0.00  0.00    +0.114 A 
ATOM     12  C   UNL     1       1.018  -0.755   0.904  0.00  0.00    +0.055 A 
ATOM     13  C   UNL     1       0.229  -0.764  -0.276  0.00  0.00    +0.133 A 
ATOM     14  N   UNL     1       0.687  -0.165  -1.364  0.00  0.00    -0.220 NA
ATOM     15  C   UNL     1       1.859   0.443  -1.390  0.00  0.00    +0.224 A 
ATOM     16  N   UNL     1       2.636   0.484  -0.325  0.00  0.00    -0.228 NA
BRANCH   8  20
ATOM     17  C   UNL     1      -2.889  -3.433   2.929  0.00  0.00    +0.120 A 
ATOM     18  C   UNL     1      -1.671  -4.057   3.164  0.00  0.00    +0.046 A 
ATOM     19  C   UNL     1      -0.492  -3.379   2.933  0.00  0.00    +0.012 A 
ATOM     20  C   UNL     1      -0.525  -2.067   2.463  0.00  0.00    -0.016 A 
ATOM     21  C   UNL     1      -1.750  -1.442   2.233  0.00  0.00    +0.012 A 
ATOM     22  C   UNL     1      -2.925  -2.127   2.462  0.00  0.00    +0.046 A 
BRANCH  17  24
ATOM     23  C   UNL     1      -5.264  -3.437   2.807  0.00  0.00    +0.277 C 
ATOM     24  O   UNL     1      -4.049  -4.104   3.158  0.00  0.00    -0.495 OA
ENDBRANCH  17  24
ENDBRANCH   8  20
ENDBRANCH   1  13
BRANCH   6  25
ATOM     25  C   UNL     1      -4.671  -3.091  -1.520  0.00  0.00    -0.007 C 
BRANCH  25  26
ATOM     26  C   UNL     1      -5.727  -2.113  -1.967  0.00  0.00    -0.057 A 
ATOM     27  C   UNL     1      -5.485  -1.277  -3.040  0.00  0.00    +0.002 A 
ATOM     28  C   UNL     1      -6.456  -0.383  -3.453  0.00  0.00    +0.000 A 
ATOM     29  C   UNL     1      -7.665  -0.319  -2.786  0.00  0.00    +0.000 A 
ATOM     30  C   UNL     1      -7.905  -1.152  -1.709  0.00  0.00    +0.000 A 
ATOM     31  C   UNL     1      -6.936  -2.049  -1.300  0.00  0.00    +0.002 A 
ENDBRANCH  25  26
BRANCH  25  32
ATOM     32  C   UNL     1      -4.631  -4.258  -2.473  0.00  0.00    -0.057 A 
ATOM     33  C   UNL     1      -4.115  -4.094  -3.745  0.00  0.00    +0.002 A 
ATOM     34  C   UNL     1      -4.074  -5.165  -4.617  0.00  0.00    +0.000 A 
ATOM     35  C   UNL     1      -4.558  -6.398  -4.221  0.00  0.00    +0.000 A 
ATOM     36  C   UNL     1      -5.079  -6.560  -2.951  0.00  0.00    +0.000 A 
ATOM     37  C   UNL     1      -5.115  -5.490  -2.077  0.00  0.00    +0.002 A 
ENDBRANCH  25  32
ENDBRANCH   6  25
TORSDOF 6
