REMARK  Name = ZINC43094842
REMARK  7 active torsions:
REMARK  status: ('A' for Active; 'I' for Inactive)
REMARK    1  A    between atoms: C_1  and  C_2
REMARK    2  A    between atoms: C_2  and  C_4
REMARK    3  A    between atoms: C_2  and  N_23
REMARK    4  A    between atoms: C_4  and  C_6
REMARK    5  A    between atoms: C_4  and  O_13
REMARK    6  A    between atoms: O_13  and  C_14
REMARK    7  A    between atoms: C_19  and  C_20
REMARK                            x       y       z     vdW  Elec       q    Type
REMARK                         _______ _______ _______ _____ _____    ______ ____
ROOT
ATOM      1  C   UNL     1       0.762  -0.511   1.270  0.00  0.00    +0.190 C 
ENDROOT
BRANCH   1   2
ATOM      2  C   UNL     1       0.196  -0.042   2.586  0.00  0.00    +0.005 A 
ATOM      3  C   UNL     1      -0.668  -0.855   3.296  0.00  0.00    +0.008 A 
ATOM      4  C   UNL     1      -1.186  -0.425   4.503  0.00  0.00    +0.000 A 
ATOM      5  C   UNL     1      -0.842   0.819   5.000  0.00  0.00    +0.001 A 
ATOM      6  C   UNL     1       0.022   1.632   4.291  0.00  0.00    +0.015 A 
ATOM      7  C   UNL     1       0.545   1.199   3.085  0.00  0.00    +0.024 A 
ATOM      8 BR   UNL     1       1.733   2.309   2.118  0.00  0.00    -0.050 Br
ENDBRANCH   1   2
BRANCH   1  10
ATOM      9  C   UNL     1      -0.095   1.558   0.163  0.00  0.00    -0.010 C 
ATOM     10  C   UNL     1      -0.096   0.029   0.124  0.00  0.00    -0.032 C 
BRANCH  10  11
ATOM     11  N   UNL     1       0.456  -0.429  -1.158  0.00  0.00    +0.382 N 
ATOM     12  H   UNL     1       1.401  -0.090  -1.257  0.00  0.00    -0.089 HD
ATOM     13  H   UNL     1       0.455  -1.437  -1.184  0.00  0.00    -0.089 HD
ATOM     14  H   UNL     1      -0.110  -0.073  -1.914  0.00  0.00    -0.089 HD
ENDBRANCH  10  11
ENDBRANCH   1  10
BRANCH   1  15
ATOM     15  O   UNL     1       0.761  -1.940   1.234  0.00  0.00    -0.485 OA
BRANCH  15  16
ATOM     16  C   UNL     1       1.753  -2.538   0.528  0.00  0.00    +0.133 A 
ATOM     17  C   UNL     1       2.750  -1.773  -0.059  0.00  0.00    +0.046 A 
ATOM     18  C   UNL     1       3.758  -2.384  -0.778  0.00  0.00    +0.004 A 
ATOM     19  C   UNL     1       3.783  -3.762  -0.919  0.00  0.00    +0.001 A 
ATOM     20  C   UNL     1       2.801  -4.537  -0.342  0.00  0.00    +0.017 A 
ATOM     21  C   UNL     1       1.778  -3.933   0.393  0.00  0.00    +0.078 A 
BRANCH  21  22
ATOM     22  C   UNL     1       0.727  -4.758   1.018  0.00  0.00    +0.245 C 
ATOM     23  O   UNL     1      -0.165  -4.228   1.652  0.00  0.00    -0.270 OA
ATOM     24  N   UNL     1       0.754  -6.099   0.886  0.00  0.00    -0.325 N 
ATOM     25  H   UNL     1       1.466  -6.522   0.380  0.00  0.00    +0.145 HD
ATOM     26  H   UNL     1       0.063  -6.641   1.297  0.00  0.00    +0.145 HD
ENDBRANCH  21  22
ENDBRANCH  15  16
ENDBRANCH   1  15
TORSDOF 6
