REMARK  Name = ZINC12469994
REMARK  13 active torsions:
REMARK  status: ('A' for Active; 'I' for Inactive)
REMARK    1  A    between atoms: C_1  and  C_2
REMARK    2  A    between atoms: C_5  and  C_7
REMARK    3  A    between atoms: C_12  and  C_22
REMARK    4  A    between atoms: C_14  and  C_18
REMARK    5  A    between atoms: C_18  and  O_20
REMARK    6  A    between atoms: O_20  and  C_21
REMARK    7  A    between atoms: C_24  and  C_38
REMARK    8  A    between atoms: C_25  and  C_26
REMARK    9  A    between atoms: C_26  and  O_28
REMARK   10  A    between atoms: O_28  and  C_29
REMARK   11  A    between atoms: C_29  and  C_30
REMARK   12  A    between atoms: C_30  and  O_31
REMARK   13  A    between atoms: O_31  and  C_32
REMARK                            x       y       z     vdW  Elec       q    Type
REMARK                         _______ _______ _______ _____ _____    ______ ____
ROOT
ATOM      1  C   UNL     1       1.014  -2.191  -0.606  0.00  0.00    +0.128 C 
ATOM      2  C   UNL     1       1.002  -0.683  -0.600  0.00  0.00    +0.028 C 
ATOM      3  C   UNL     1       0.002  -0.004   0.002  0.00  0.00    +0.016 C 
ATOM      4  C   UNL     1      -0.018   1.504   0.010  0.00  0.00    +0.055 C 
ATOM      5  C   UNL     1       1.416   2.038  -0.001  0.00  0.00    +0.013 C 
ATOM      6  C   UNL     1       2.126   1.496  -1.245  0.00  0.00    +0.171 C 
ATOM      7  C   UNL     1       2.059  -0.006  -1.233  0.00  0.00    +0.176 C 
ATOM      8  O   UNL     1       2.935  -0.647  -1.780  0.00  0.00    -0.291 OA
ATOM      9  C   UNL     1       2.150   1.565   1.256  0.00  0.00    +0.009 C 
ATOM     10  N   UNL     1      -1.021  -0.674   0.617  0.00  0.00    -0.321 N 
ATOM     11  C   UNL     1      -1.281  -1.981   0.310  0.00  0.00    +0.016 C 
ATOM     12  C   UNL     1      -0.342  -2.742  -0.278  0.00  0.00    +0.068 C 
ATOM     13  C   UNL     1      -2.629  -2.572   0.633  0.00  0.00    +0.061 C 
ATOM     14  H   UNL     1      -1.642  -0.162   1.367  0.00  0.00    +0.152 HD
ENDROOT
BRANCH   1  19
ATOM     15  C   UNL     1       3.296  -3.012   3.817  0.00  0.00    +0.086 C 
ATOM     16  C   UNL     1       3.000  -3.037   2.339  0.00  0.00    +0.102 A 
ATOM     17  C   UNL     1       3.741  -3.649   1.399  0.00  0.00    +0.044 A 
ATOM     18  C   UNL     1       3.102  -3.419   0.159  0.00  0.00    +0.046 A 
ATOM     19  C   UNL     1       2.008  -2.680   0.416  0.00  0.00    +0.117 A 
ATOM     20  O   UNL     1       1.954  -2.447   1.738  0.00  0.00    -0.464 OA
ENDBRANCH   1  19
BRANCH   6  21
ATOM     21  C   UNL     1       3.568   1.937  -1.238  0.00  0.00    +0.318 C 
ATOM     22  O   UNL     1       3.985   2.621  -0.334  0.00  0.00    -0.250 OA
BRANCH  21  23
ATOM     23  O   UNL     1       4.387   1.569  -2.235  0.00  0.00    -0.467 OA
ATOM     24  C   UNL     1       5.762   2.029  -2.163  0.00  0.00    +0.280 C 
ENDBRANCH  21  23
ENDBRANCH   6  21
BRANCH  12  25
ATOM     25  C   UNL     1      -0.638  -4.089  -0.594  0.00  0.00    +0.338 C 
ATOM     26  O   UNL     1      -1.735  -4.548  -0.333  0.00  0.00    -0.245 OA
BRANCH  25  27
ATOM     27  O   UNL     1       0.295  -4.864  -1.184  0.00  0.00    -0.458 OA
BRANCH  27  28
ATOM     28  C   UNL     1      -0.073  -6.214  -1.474  0.00  0.00    +0.273 C 
BRANCH  28  29
ATOM     29  C   UNL     1       1.105  -6.932  -2.137  0.00  0.00    +0.270 C 
BRANCH  29  30
ATOM     30  O   UNL     1       2.188  -7.027  -1.210  0.00  0.00    -0.489 OA
BRANCH  30  31
ATOM     31  C   UNL     1       3.319  -7.642  -1.643  0.00  0.00    +0.121 A 
ATOM     32  C   UNL     1       3.384  -8.149  -2.933  0.00  0.00    +0.045 A 
ATOM     33  C   UNL     1       4.537  -8.769  -3.373  0.00  0.00    +0.004 A 
ATOM     34  C   UNL     1       5.623  -8.894  -2.526  0.00  0.00    +0.000 A 
ATOM     35  C   UNL     1       5.559  -8.394  -1.238  0.00  0.00    +0.004 A 
ATOM     36  C   UNL     1       4.410  -7.769  -0.795  0.00  0.00    +0.045 A 
ENDBRANCH  30  31
ENDBRANCH  29  30
ENDBRANCH  28  29
ENDBRANCH  27  28
ENDBRANCH  25  27
ENDBRANCH  12  25
TORSDOF 9
