REMARK  Name = ZINC33704973
REMARK  7 active torsions:
REMARK  status: ('A' for Active; 'I' for Inactive)
REMARK    1  A    between atoms: C_4  and  C_7
REMARK    2  A    between atoms: C_10  and  C_13
REMARK    3  A    between atoms: N_21  and  C_24
REMARK    4  A    between atoms: C_24  and  C_25
REMARK    5  A    between atoms: C_31  and  C_33
REMARK    6  A    between atoms: C_31  and  C_35
REMARK    7  A    between atoms: C_33  and  O_34
REMARK                            x       y       z     vdW  Elec       q    Type
REMARK                         _______ _______ _______ _____ _____    ______ ____
ROOT
ATOM      1  C   UNL     1       4.016   4.098  -4.770  0.00  0.00    -0.027 C 
ATOM      2  C   UNL     1       3.900   4.473  -3.312  0.00  0.00    +0.077 C 
ATOM      3  C   UNL     1       2.555   5.298  -3.407  0.00  0.00    +0.088 C 
ATOM      4  C   UNL     1       2.299   5.505  -1.984  0.00  0.00    +0.225 C 
ATOM      5  O   UNL     1       1.815   6.482  -1.454  0.00  0.00    -0.275 OA
ATOM      6  N   UNL     1       2.725   4.350  -1.377  0.00  0.00    -0.236 N 
ATOM      7  C   UNL     1       3.506   3.582  -2.200  0.00  0.00    +0.225 C 
ATOM      8  O   UNL     1       3.809   2.417  -2.050  0.00  0.00    -0.275 OA
ATOM      9  C   UNL     1       2.860   6.212  -4.537  0.00  0.00    +0.071 C 
ATOM     10  N   UNL     1       3.713   5.396  -5.462  0.00  0.00    +0.397 N 
ATOM     11  H   UNL     1       4.653   5.923  -5.683  0.00  0.00    -0.083 HD
ATOM     12  H   UNL     1       3.177   5.194  -6.402  0.00  0.00    -0.083 HD
ENDROOT
BRANCH   1  16
ATOM     13  C   UNL     1       7.976   2.774  -5.690  0.00  0.00    -0.018 A 
ATOM     14  C   UNL     1       6.960   1.845  -5.476  0.00  0.00    +0.009 A 
ATOM     15  C   UNL     1       5.683   2.278  -5.179  0.00  0.00    +0.002 A 
ATOM     16  C   UNL     1       5.412   3.631  -5.094  0.00  0.00    -0.061 A 
ATOM     17  C   UNL     1       6.415   4.559  -5.310  0.00  0.00    +0.002 A 
ATOM     18  C   UNL     1       7.697   4.137  -5.603  0.00  0.00    +0.009 A 
BRANCH  13  22
ATOM     19  C   UNL     1      11.914   1.458  -6.605  0.00  0.00    +0.000 A 
ATOM     20  C   UNL     1      11.643   2.811  -6.520  0.00  0.00    +0.001 A 
ATOM     21  C   UNL     1      10.366   3.244  -6.223  0.00  0.00    +0.008 A 
ATOM     22  C   UNL     1       9.350   2.315  -6.010  0.00  0.00    -0.018 A 
ATOM     23  C   UNL     1       9.631   0.953  -6.091  0.00  0.00    +0.008 A 
ATOM     24  C   UNL     1      10.909   0.531  -6.394  0.00  0.00    +0.001 A 
ENDBRANCH  13  22
ENDBRANCH   1  16
BRANCH   9  25
ATOM     25  C   UNL     1       3.620   7.418  -4.048  0.00  0.00    +0.348 C 
ATOM     26  O   UNL     1       3.513   7.773  -2.898  0.00  0.00    -0.248 OA
ATOM     27  O   UNL     1       4.415   8.097  -4.889  0.00  0.00    -0.248 OA
ENDBRANCH   9  25
BRANCH   6  28
ATOM     28  C   UNL     1       2.388   3.982   0.000  0.00  0.00    +0.171 C 
BRANCH  28  29
ATOM     29  C   UNL     1       1.111   3.183   0.008  0.00  0.00    +0.059 A 
ATOM     30  C   UNL     1       1.169   1.802   0.001  0.00  0.00    +0.025 A 
ATOM     31  C   UNL     1      -0.013   1.076   0.008  0.00  0.00    +0.003 A 
ATOM     32  C   UNL     1      -1.213   1.769   0.017  0.00  0.00    +0.020 A 
ATOM     33  C   UNL     1      -1.193   3.151   0.030  0.00  0.00    +0.111 A 
ATOM     34  N   UNL     1      -0.050   3.809   0.022  0.00  0.00    -0.258 NA
ENDBRANCH  28  29
ENDBRANCH   6  28
BRANCH   9  35
ATOM     35  C   UNL     1       1.570   6.641  -5.239  0.00  0.00    +0.155 C 
BRANCH  35  36
ATOM     36  O   UNL     1       1.892   7.424  -6.390  0.00  0.00    -0.396 OA
ATOM     37  H   UNL     1       1.088   7.824  -7.026  0.00  0.00    +0.209 HD
ENDBRANCH  35  36
ENDBRANCH   9  35
TORSDOF 7
