REMARK  Name = ZINC39989903
REMARK  16 active torsions:
REMARK  status: ('A' for Active; 'I' for Inactive)
REMARK    1  A    between atoms: C_1  and  C_2
REMARK    2  A    between atoms: C_2  and  C_3
REMARK    3  A    between atoms: C_3  and  C_4
REMARK    4  A    between atoms: C_4  and  C_5
REMARK    5  A    between atoms: C_5  and  C_7
REMARK    6  A    between atoms: C_5  and  C_9
REMARK    7  A    between atoms: C_7  and  C_8
REMARK    8  A    between atoms: C_9  and  N_10
REMARK    9  A    between atoms: C_14  and  C_15
REMARK   10  A    between atoms: C_16  and  C_36
REMARK   11  A    between atoms: C_17  and  C_34
REMARK   12  A    between atoms: N_20  and  C_32
REMARK   13  A    between atoms: C_21  and  N_22
REMARK   14  A    between atoms: C_24  and  C_31
REMARK   15  A    between atoms: C_27  and  C_30
REMARK   16  A    between atoms: C_32  and  C_33
REMARK                            x       y       z     vdW  Elec       q    Type
REMARK                         _______ _______ _______ _____ _____    ______ ____
ROOT
ATOM      1  C   UNL     1       2.117  -5.383  -8.647  0.00  0.00    +0.019 A 
ATOM      2  C   UNL     1       3.407  -5.905  -8.454  0.00  0.00    -0.017 A 
ATOM      3  C   UNL     1       4.112  -6.379  -9.556  0.00  0.00    +0.120 A 
ATOM      4  C   UNL     1       3.516  -6.325 -10.842  0.00  0.00    +0.270 A 
ATOM      5  O   UNL     1       4.128  -6.740 -11.810  0.00  0.00    -0.266 OA
ATOM      6  N   UNL     1       2.279  -5.821 -11.000  0.00  0.00    -0.295 N 
ATOM      7  C   UNL     1       1.569  -5.356  -9.940  0.00  0.00    +0.112 A 
ATOM      8  C   UNL     1       4.017  -5.950  -7.077  0.00  0.00    +0.046 C 
ENDROOT
BRANCH   1  13
ATOM      9  N   UNL     1      -0.128  -6.478  -4.566  0.00  0.00    -0.255 N 
ATOM     10  C   UNL     1       0.167  -5.462  -5.358  0.00  0.00    +0.258 C 
ATOM     11  O   UNL     1      -0.191  -4.330  -5.087  0.00  0.00    -0.269 OA
ATOM     12  C   UNL     1       0.920  -5.732  -6.542  0.00  0.00    +0.077 C 
ATOM     13  C   UNL     1       1.348  -4.876  -7.509  0.00  0.00    +0.032 C 
ATOM     14  S   UNL     1       1.147  -7.500  -6.406  0.00  0.00    -0.061 S 
ATOM     15  C   UNL     1       0.275  -7.733  -4.864  0.00  0.00    +0.121 C 
ATOM     16  S   UNL     1       0.013  -9.181  -3.989  0.00  0.00    -0.027 S 
BRANCH   9  17
ATOM     17  C   UNL     1      -0.899  -6.239  -3.343  0.00  0.00    +0.118 C 
BRANCH  17  18
ATOM     18  C   UNL     1       0.058  -6.078  -2.160  0.00  0.00    +0.007 C 
BRANCH  18  19
ATOM     19  C   UNL     1      -0.747  -5.853  -0.879  0.00  0.00    +0.002 C 
ATOM     20  C   UNL     1      -1.550  -7.115  -0.553  0.00  0.00    +0.004 C 
ENDBRANCH  18  19
BRANCH  18  21
ATOM     21  C   UNL     1       0.973  -4.877  -2.405  0.00  0.00    +0.005 C 
BRANCH  21  22
ATOM     22  C   UNL     1       2.011  -4.789  -1.284  0.00  0.00    +0.000 C 
BRANCH  22  24
ATOM     23  C   UNL     1       3.964  -3.500  -0.408  0.00  0.00    +0.004 C 
ATOM     24  C   UNL     1       2.926  -3.588  -1.529  0.00  0.00    -0.003 C 
ENDBRANCH  22  24
ENDBRANCH  21  22
ENDBRANCH  18  21
ENDBRANCH  17  18
ENDBRANCH   9  17
ENDBRANCH   1  13
BRANCH   7  25
ATOM     25  N   UNL     1       0.314  -4.856 -10.133  0.00  0.00    -0.311 N 
ATOM     26  C   UNL     1       0.111  -3.457 -10.542  0.00  0.00    +0.137 C 
ATOM     27  C   UNL     1      -0.914  -2.821  -9.596  0.00  0.00    +0.133 C 
ATOM     28  O   UNL     1      -2.082  -3.643  -9.546  0.00  0.00    -0.371 OA
ATOM     29  C   UNL     1      -1.853  -4.954  -9.023  0.00  0.00    +0.133 C 
ATOM     30  C   UNL     1      -0.876  -5.701  -9.945  0.00  0.00    +0.137 C 
ATOM     31  C   UNL     1      -3.178  -5.716  -8.958  0.00  0.00    +0.039 C 
ATOM     32  C   UNL     1      -1.288  -1.429 -10.111  0.00  0.00    +0.039 C 
ENDBRANCH   7  25
BRANCH   6  33
ATOM     33  C   UNL     1       1.686  -5.776 -12.339  0.00  0.00    +0.123 C 
ATOM     34  C   UNL     1       0.860  -7.042 -12.573  0.00  0.00    +0.027 C 
ENDBRANCH   6  33
BRANCH   3  35
ATOM     35  C   UNL     1       5.430  -6.917  -9.393  0.00  0.00    +0.105 C 
ATOM     36  N   UNL     1       6.474  -7.344  -9.264  0.00  0.00    -0.191 NA
ENDBRANCH   3  35
TORSDOF 10
