REMARK  Name = ZINC39972160
REMARK  10 active torsions:
REMARK  status: ('A' for Active; 'I' for Inactive)
REMARK    1  A    between atoms: C_1  and  O_2
REMARK    2  A    between atoms: O_2  and  C_3
REMARK    3  A    between atoms: C_3  and  C_5
REMARK    4  A    between atoms: C_9  and  N_10
REMARK    5  A    between atoms: C_11  and  C_13
REMARK    6  A    between atoms: C_13  and  N_14
REMARK    7  A    between atoms: N_17  and  C_20
REMARK    8  A    between atoms: C_20  and  C_21
REMARK    9  A    between atoms: C_24  and  S_27
REMARK   10  A    between atoms: S_27  and  C_28
REMARK                            x       y       z     vdW  Elec       q    Type
REMARK                         _______ _______ _______ _____ _____    ______ ____
ROOT
ATOM      1  N   UNL     1      -1.277  -2.298  -2.476  0.00  0.00    -0.278 N 
ATOM      2  C   UNL     1      -1.321  -3.141  -3.527  0.00  0.00    +0.232 C 
ATOM      3  O   UNL     1      -1.370  -4.338  -3.342  0.00  0.00    -0.274 OA
ATOM      4  H   UNL     1      -1.238  -1.340  -2.624  0.00  0.00    +0.155 HD
ENDROOT
BRANCH   1   9
ATOM      5  C   UNL     1      -1.248  -2.096   0.003  0.00  0.00    +0.091 A 
ATOM      6  C   UNL     1      -1.271  -2.858   1.257  0.00  0.00    -0.021 A 
ATOM      7  C   UNL     1      -1.297  -4.188   1.059  0.00  0.00    -0.004 A 
ATOM      8  S   UNL     1      -1.348  -4.404  -0.700  0.00  0.00    -0.077 S 
ATOM      9  C   UNL     1      -1.288  -2.800  -1.184  0.00  0.00    +0.086 A 
ATOM     10  C   UNL     1      -1.230  -5.284   2.085  0.00  0.00    +0.043 C 
ATOM     11  C   UNL     1       0.243  -5.421   2.509  0.00  0.00    +0.005 C 
ATOM     12  C   UNL     1       0.744  -4.044   2.956  0.00  0.00    +0.000 C 
ATOM     13  C   UNL     1      -0.110  -3.667   4.150  0.00  0.00    +0.000 C 
ATOM     14  C   UNL     1      -1.446  -3.049   3.777  0.00  0.00    +0.005 C 
ATOM     15  C   UNL     1      -1.329  -2.108   2.584  0.00  0.00    +0.037 C 
BRANCH   5  16
ATOM     16  C   UNL     1      -1.191  -0.633   0.010  0.00  0.00    +0.342 C 
ATOM     17  O   UNL     1      -2.220   0.016   0.023  0.00  0.00    -0.245 OA
BRANCH  16  19
ATOM     18  C   UNL     1      -0.017   1.425   0.010  0.00  0.00    +0.280 C 
ATOM     19  O   UNL     1       0.002  -0.004   0.002  0.00  0.00    -0.464 OA
ENDBRANCH  16  19
ENDBRANCH   5  16
ENDBRANCH   1   9
BRANCH   2  20
ATOM     20  C   UNL     1      -1.309  -2.595  -4.932  0.00  0.00    +0.180 C 
BRANCH  20  21
ATOM     21  N   UNL     1      -1.364  -3.707  -5.890  0.00  0.00    -0.298 NA
ATOM     22  C   UNL     1      -0.140  -4.518  -5.826  0.00  0.00    +0.066 C 
ATOM     23  C   UNL     1      -0.262  -5.697  -6.793  0.00  0.00    -0.063 C 
ATOM     24  N   UNL     1      -0.464  -5.192  -8.158  0.00  0.00    +0.384 N 
ATOM     25  C   UNL     1      -1.703  -4.405  -8.212  0.00  0.00    -0.063 C 
ATOM     26  C   UNL     1      -1.593  -3.215  -7.256  0.00  0.00    +0.066 C 
ATOM     27  H   UNL     1       0.317  -4.609  -8.419  0.00  0.00    -0.081 HD
BRANCH  24  28
ATOM     28  C   UNL     1      -0.563  -6.324  -9.089  0.00  0.00    -0.043 C 
BRANCH  28  29
ATOM     29  C   UNL     1      -0.647  -5.806 -10.502  0.00  0.00    -0.064 A 
ATOM     30  C   UNL     1      -1.880  -5.529 -11.062  0.00  0.00    +0.003 A 
ATOM     31  C   UNL     1      -1.961  -5.055 -12.357  0.00  0.00    +0.015 A 
ATOM     32  C   UNL     1      -0.801  -4.856 -13.096  0.00  0.00    +0.008 A 
ATOM     33  C   UNL     1       0.436  -5.136 -12.529  0.00  0.00    +0.015 A 
ATOM     34  C   UNL     1       0.510  -5.605 -11.232  0.00  0.00    +0.003 A 
BRANCH  32  35
ATOM     35  S   UNL     1      -0.900  -4.252 -14.748  0.00  0.00    -0.129 S 
ATOM     36  C   UNL     1       0.830  -4.160 -15.286  0.00  0.00    +0.090 C 
ENDBRANCH  32  35
ENDBRANCH  28  29
ENDBRANCH  24  28
ENDBRANCH  20  21
ENDBRANCH   2  20
TORSDOF 8
