REMARK  Name = ZINC13498921
REMARK  15 active torsions:
REMARK  status: ('A' for Active; 'I' for Inactive)
REMARK    1  A    between atoms: C_1  and  C_2
REMARK    2  A    between atoms: C_2  and  O_3
REMARK    3  A    between atoms: O_3  and  C_4
REMARK    4  A    between atoms: C_4  and  C_6
REMARK    5  A    between atoms: C_6  and  N_7
REMARK    6  A    between atoms: C_8  and  C_12
REMARK    7  A    between atoms: C_12  and  C_14
REMARK    8  A    between atoms: C_12  and  N_71
REMARK    9  A    between atoms: C_14  and  C_15
REMARK   10  A    between atoms: C_14  and  C_16
REMARK   11  A    between atoms: C_17  and  C_18
REMARK   12  A    between atoms: C_17  and  N_71
REMARK   13  A    between atoms: C_22  and  C_31
REMARK   14  A    between atoms: C_23  and  C_30
REMARK   15  A    between atoms: C_32  and  N_71
REMARK                            x       y       z     vdW  Elec       q    Type
REMARK                         _______ _______ _______ _____ _____    ______ ____
ROOT
ATOM      1  N   UNL     1      -5.387   3.692  -1.452  0.00  0.00    +0.391 N 
ATOM      2  H   UNL     1      -4.706   4.120  -2.091  0.00  0.00    -0.080 HD
ENDROOT
BRANCH   1   3
ATOM      3  C   UNL     1      -5.824   2.397  -2.016  0.00  0.00    -0.067 C 
ATOM      4  C   UNL     1      -6.935   1.763  -1.153  0.00  0.00    -0.015 C 
ATOM      5  C   UNL     1      -6.628   0.245  -1.196  0.00  0.00    -0.002 C 
ATOM      6  C   UNL     1      -5.080   0.207  -1.147  0.00  0.00    -0.002 C 
ATOM      7  C   UNL     1      -4.645   1.408  -2.013  0.00  0.00    -0.015 C 
ENDBRANCH   1   3
BRANCH   1   8
ATOM      8  C   UNL     1      -6.546   4.597  -1.308  0.00  0.00    +0.006 C 
BRANCH   8  10
ATOM      9  N   UNL     1      -8.643   4.579  -2.760  0.00  0.00    -0.220 N 
ATOM     10  C   UNL     1      -7.307   4.635  -2.609  0.00  0.00    +0.139 A 
ATOM     11  N   UNL     1      -6.796   4.722  -3.812  0.00  0.00    -0.115 NA
ATOM     12  N   UNL     1      -7.768   4.725  -4.658  0.00  0.00    -0.023 NA
ATOM     13  N   UNL     1      -8.886   4.642  -4.025  0.00  0.00    -0.043 NA
BRANCH   9  14
ATOM     14  C   UNL     1      -9.636   4.471  -1.688  0.00  0.00    +0.267 C 
BRANCH  14  15
ATOM     15  C   UNL     1     -10.194   5.837  -1.380  0.00  0.00    +0.329 C 
ATOM     16  O   UNL     1      -9.894   6.782  -2.072  0.00  0.00    -0.249 OA
BRANCH  15  17
ATOM     17  O   UNL     1     -11.023   6.005  -0.338  0.00  0.00    -0.464 OA
BRANCH  17  19
ATOM     18  C   UNL     1     -12.443   7.341   1.120  0.00  0.00    +0.048 C 
ATOM     19  C   UNL     1     -11.521   7.348  -0.101  0.00  0.00    +0.229 C 
ENDBRANCH  17  19
ENDBRANCH  15  17
ENDBRANCH  14  15
ENDBRANCH   9  14
ENDBRANCH   8  10
BRANCH   8  20
ATOM     20  C   UNL     1      -6.037   6.001  -0.975  0.00  0.00    -0.024 C 
ATOM     21  C   UNL     1      -5.150   6.506  -2.115  0.00  0.00    +0.006 C 
ATOM     22  C   UNL     1      -7.227   6.946  -0.798  0.00  0.00    +0.006 C 
ENDBRANCH   8  20
ENDBRANCH   1   8
BRANCH   1  23
ATOM     23  C   UNL     1      -4.745   3.480  -0.138  0.00  0.00    -0.036 C 
BRANCH  23  24
ATOM     24  C   UNL     1      -5.751   2.978   0.866  0.00  0.00    +0.001 A 
ATOM     25  C   UNL     1      -5.697   1.691   1.290  0.00  0.00    +0.017 A 
ATOM     26  C   UNL     1      -6.688   1.234   2.266  0.00  0.00    -0.001 A 
ATOM     27  C   UNL     1      -6.683  -0.082   2.740  0.00  0.00    +0.013 A 
ATOM     28  C   UNL     1      -7.622  -0.477   3.651  0.00  0.00    -0.047 A 
ATOM     29  C   UNL     1      -8.580   0.416   4.110  0.00  0.00    -0.046 A 
ATOM     30  C   UNL     1      -8.604   1.717   3.656  0.00  0.00    +0.030 A 
ATOM     31  C   UNL     1      -7.662   2.140   2.724  0.00  0.00    +0.049 A 
ATOM     32  N   UNL     1      -7.659   3.438   2.258  0.00  0.00    -0.322 N 
ATOM     33  H   UNL     1      -8.328   4.063   2.579  0.00  0.00    +0.169 HD
ATOM     34  C   UNL     1      -6.745   3.848   1.362  0.00  0.00    +0.251 A 
ATOM     35  O   UNL     1      -6.775   5.001   0.967  0.00  0.00    -0.268 OA
ATOM     36  C   UNL     1      -9.606  -0.042   5.115  0.00  0.00    +0.044 C 
ATOM     37  C   UNL     1      -7.617  -1.895   4.161  0.00  0.00    +0.044 C 
ENDBRANCH  23  24
ENDBRANCH   1  23
TORSDOF 10
