REMARK  Name = ZINC34797882
REMARK  3 active torsions:
REMARK  status: ('A' for Active; 'I' for Inactive)
REMARK    1  A    between atoms: C_11  and  C_20
REMARK    2  A    between atoms: CA_14  and  C_17
REMARK    3  A    between atoms: C_23  and  O_26
REMARK                            x       y       z     vdW  Elec       q    Type
REMARK                         _______ _______ _______ _____ _____    ______ ____
ROOT
ATOM      1  C   UNL     1      -0.144   1.259  -0.019  0.00  0.00    +0.001 A 
ATOM      2  C   UNL     1       1.022   2.013  -0.040  0.00  0.00    +0.002 A 
ATOM      3  C   UNL     1       2.254   1.398  -0.055  0.00  0.00    +0.026 A 
ATOM      4  C   UNL     1       2.335   0.009  -0.050  0.00  0.00    +0.047 A 
ATOM      5  C   UNL     1       1.149  -0.752  -0.028  0.00  0.00    +0.003 A 
ATOM      6  C   UNL     1      -0.089  -0.105  -0.013  0.00  0.00    +0.010 A 
ATOM      7  C   UNL     1       1.573  -2.146  -0.029  0.00  0.00    -0.015 A 
ATOM      8  C   UNL     1       2.922  -2.159  -0.049  0.00  0.00    +0.042 A 
ATOM      9  N   UNL     1       3.391  -0.877  -0.062  0.00  0.00    -0.356 N 
ATOM     10  H   UNL     1       4.328  -0.627  -0.078  0.00  0.00    +0.166 HD
ATOM     11  C   UNL     1       3.732  -3.434  -0.052  0.00  0.00    +0.132 C 
ATOM     12  N   UNL     1       2.857  -4.541   0.369  0.00  0.00    -0.292 NA
ATOM     13  CA  UNL     1       1.615  -4.574  -0.415  0.00  0.00    +0.173 C 
ATOM     14  C   UNL     1       0.724  -3.391  -0.013  0.00  0.00    +0.068 C 
ATOM     15  H   UNL     1       3.341  -5.425   0.318  0.00  0.00    +0.124 HD
ENDROOT
BRANCH  11  16
ATOM     16  C   UNL     1       4.254  -3.700  -1.441  0.00  0.00    -0.024 A 
ATOM     17  C   UNL     1       4.368  -2.661  -2.346  0.00  0.00    +0.009 A 
ATOM     18  C   UNL     1       4.846  -2.902  -3.619  0.00  0.00    +0.046 A 
ATOM     19  C   UNL     1       5.212  -4.188  -3.990  0.00  0.00    +0.117 A 
ATOM     20  C   UNL     1       5.097  -5.229  -3.080  0.00  0.00    +0.046 A 
ATOM     21  C   UNL     1       4.623  -4.982  -1.806  0.00  0.00    +0.009 A 
BRANCH  19  22
ATOM     22  O   UNL     1       5.682  -4.428  -5.242  0.00  0.00    -0.507 OA
ATOM     23  H   UNL     1       6.642  -4.344  -5.325  0.00  0.00    +0.292 HD
ENDBRANCH  19  22
ENDBRANCH  11  16
BRANCH  13  24
ATOM     24  C   UNL     1       0.886  -5.866  -0.147  0.00  0.00    +0.373 C 
ATOM     25  O   UNL     1       1.256  -6.599   0.754  0.00  0.00    -0.245 OA
ATOM     26  OXT UNL     1      -0.073  -6.178  -0.832  0.00  0.00    -0.245 OA
ENDBRANCH  13  24
TORSDOF 3
