REMARK  Name = ZINC37359556
REMARK  6 active torsions:
REMARK  status: ('A' for Active; 'I' for Inactive)
REMARK    1  A    between atoms: C_4  and  C_7
REMARK    2  A    between atoms: C_7  and  N_8
REMARK    3  A    between atoms: C_9  and  N_33
REMARK    4  A    between atoms: C_11  and  C_25
REMARK    5  A    between atoms: N_17  and  C_18
REMARK    6  A    between atoms: C_18  and  C_19
REMARK                            x       y       z     vdW  Elec       q    Type
REMARK                         _______ _______ _______ _____ _____    ______ ____
ROOT
ATOM      1  N   UNL     1       3.710  -0.674   1.637  0.00  0.00    -0.267 N 
ATOM      2  C   UNL     1       3.575  -1.872   2.232  0.00  0.00    +0.124 A 
ATOM      3  C   UNL     1       4.504  -1.936   3.263  0.00  0.00    +0.084 A 
ATOM      4  C   UNL     1       4.869  -2.889   4.240  0.00  0.00    +0.091 A 
ATOM      5  N   UNL     1       5.843  -2.580   5.088  0.00  0.00    -0.214 NA
ATOM      6  C   UNL     1       6.476  -1.411   5.041  0.00  0.00    +0.218 A 
ATOM      7  N   UNL     1       6.200  -0.467   4.165  0.00  0.00    -0.195 NA
ATOM      8  C   UNL     1       5.231  -0.654   3.247  0.00  0.00    +0.162 A 
ATOM      9  N   UNL     1       4.728   0.056   2.262  0.00  0.00    -0.279 N 
ATOM     10  N   UNL     1       7.479  -1.174   5.964  0.00  0.00    -0.309 N 
ATOM     11  H   UNL     1       7.703  -1.851   6.621  0.00  0.00    +0.149 HD
ATOM     12  H   UNL     1       5.014   0.948   2.009  0.00  0.00    +0.189 HD
ENDROOT
BRANCH   4  13
ATOM     13  C   UNL     1       4.183  -4.197   4.317  0.00  0.00    +0.037 A 
ATOM     14  C   UNL     1       4.149  -5.037   3.203  0.00  0.00    +0.016 A 
ATOM     15  C   UNL     1       3.509  -6.255   3.280  0.00  0.00    +0.039 A 
ATOM     16  C   UNL     1       2.898  -6.649   4.461  0.00  0.00    +0.126 A 
ATOM     17  C   UNL     1       2.928  -5.821   5.571  0.00  0.00    +0.077 A 
ATOM     18  C   UNL     1       3.572  -4.600   5.508  0.00  0.00    +0.135 A 
ATOM     19  F   UNL     1       3.606  -3.795   6.593  0.00  0.00    -0.205 F 
ATOM     20  F   UNL     1       2.273  -7.844   4.530  0.00  0.00    -0.205 F 
ENDBRANCH   4  13
BRANCH   2  21
ATOM     21  N   UNL     1       2.674  -2.861   1.882  0.00  0.00    -0.343 N 
ATOM     22  H   UNL     1       2.148  -2.773   1.071  0.00  0.00    +0.144 HD
ATOM     23  H   UNL     1       2.567  -3.642   2.447  0.00  0.00    +0.144 HD
ENDBRANCH   2  21
BRANCH   1  24
ATOM     24  C   UNL     1       2.915  -0.205   0.500  0.00  0.00    +0.178 C 
BRANCH  24  28
ATOM     25  C   UNL     1      -0.723   1.526   1.920  0.00  0.00    +0.000 A 
ATOM     26  C   UNL     1       0.401   2.315   1.758  0.00  0.00    +0.000 A 
ATOM     27  C   UNL     1       1.578   1.755   1.299  0.00  0.00    +0.005 A 
ATOM     28  C   UNL     1       1.632   0.406   1.002  0.00  0.00    -0.026 A 
ATOM     29  C   UNL     1       0.508  -0.383   1.165  0.00  0.00    +0.005 A 
ATOM     30  C   UNL     1      -0.669   0.178   1.623  0.00  0.00    +0.000 A 
ENDBRANCH  24  28
ENDBRANCH   1  24
BRANCH  10  31
ATOM     31  C   UNL     1       8.202   0.100   5.949  0.00  0.00    +0.141 C 
BRANCH  31  32
ATOM     32  C   UNL     1       9.234   0.105   7.047  0.00  0.00    -0.012 A 
ATOM     33  C   UNL     1       8.910   0.567   8.313  0.00  0.00    +0.008 A 
ATOM     34  C   UNL     1       9.892   0.553   9.292  0.00  0.00    +0.020 A 
ATOM     35  C   UNL     1      11.152   0.082   8.975  0.00  0.00    +0.111 A 
ATOM     36  N   UNL     1      11.425  -0.350   7.759  0.00  0.00    -0.263 NA
ATOM     37  C   UNL     1      10.514  -0.356   6.805  0.00  0.00    +0.115 A 
ENDBRANCH  31  32
ENDBRANCH  10  31
TORSDOF 6
