REMARK  Name = ZINC02968685
REMARK  9 active torsions:
REMARK  status: ('A' for Active; 'I' for Inactive)
REMARK    1  A    between atoms: C_4  and  C_7
REMARK    2  A    between atoms: C_7  and  C_8
REMARK    3  A    between atoms: C_8  and  N_9
REMARK    4  A    between atoms: C_10  and  C_12
REMARK    5  A    between atoms: C_12  and  C_13
REMARK    6  A    between atoms: C_27  and  S_28
REMARK    7  A    between atoms: S_28  and  C_29
REMARK    8  A    between atoms: C_29  and  C_30
REMARK    9  A    between atoms: C_30  and  C_32
REMARK                            x       y       z     vdW  Elec       q    Type
REMARK                         _______ _______ _______ _____ _____    ______ ____
ROOT
ATOM      1  C   UNL     1      -2.664   4.116   0.037  0.00  0.00    +0.202 C 
ATOM      2  C   UNL     1      -2.712   5.629   0.020  0.00  0.00    +0.252 C 
ATOM      3  O   UNL     1      -2.282   6.367  -0.840  0.00  0.00    -0.272 OA
ATOM      4  N   UNL     1      -3.336   5.983   1.167  0.00  0.00    -0.200 N 
ATOM      5  C   UNL     1      -3.680   4.857   1.894  0.00  0.00    +0.139 C 
ATOM      6  N   UNL     1      -3.322   3.753   1.300  0.00  0.00    -0.255 NA
ATOM      7  C   UNL     1      -4.375   5.069   3.183  0.00  0.00    +0.041 A 
ATOM      8  C   UNL     1      -4.760   4.000   3.985  0.00  0.00    +0.013 A 
ATOM      9  C   UNL     1      -5.405   4.244   5.179  0.00  0.00    +0.001 A 
ATOM     10  C   UNL     1      -5.670   5.544   5.584  0.00  0.00    +0.002 A 
ATOM     11  C   UNL     1      -5.295   6.616   4.803  0.00  0.00    +0.028 A 
ATOM     12  C   UNL     1      -4.641   6.393   3.589  0.00  0.00    +0.077 A 
ATOM     13  N   UNL     1      -4.258   7.424   2.795  0.00  0.00    -0.225 NA
ATOM     14  C   UNL     1      -3.645   7.235   1.657  0.00  0.00    +0.169 C 
ENDROOT
BRANCH   1  15
ATOM     15  C   UNL     1      -1.214   3.626   0.028  0.00  0.00    +0.132 C 
BRANCH  15  17
ATOM     16  N   UNL     1      -0.018   1.461   0.010  0.00  0.00    -0.315 N 
ATOM     17  C   UNL     1      -1.194   2.119   0.019  0.00  0.00    +0.216 C 
ATOM     18  O   UNL     1      -2.236   1.498   0.021  0.00  0.00    -0.276 OA
ATOM     19  H   UNL     1       0.927   2.024   0.009  0.00  0.00    +0.149 HD
BRANCH  16  20
ATOM     20  C   UNL     1       0.002  -0.004   0.002  0.00  0.00    +0.109 C 
BRANCH  20  21
ATOM     21  C   UNL     1       1.451  -0.494  -0.015  0.00  0.00    +0.054 C 
BRANCH  21  25
ATOM     22  C   UNL     1       1.510  -4.766  -0.038  0.00  0.00    +0.000 A 
ATOM     23  C   UNL     1       1.488  -4.068  -1.231  0.00  0.00    +0.000 A 
ATOM     24  C   UNL     1       1.470  -2.686  -1.224  0.00  0.00    +0.004 A 
ATOM     25  C   UNL     1       1.472  -2.001  -0.023  0.00  0.00    -0.046 A 
ATOM     26  C   UNL     1       1.498  -2.699   1.171  0.00  0.00    +0.004 A 
ATOM     27  C   UNL     1       1.513  -4.081   1.163  0.00  0.00    +0.000 A 
ENDBRANCH  21  25
ENDBRANCH  20  21
ENDBRANCH  16  20
ENDBRANCH  15  17
ENDBRANCH   1  15
BRANCH  14  28
ATOM     28  S   UNL     1      -3.192   8.646   0.704  0.00  0.00    -0.082 S 
BRANCH  28  29
ATOM     29  C   UNL     1      -3.814   9.963   1.778  0.00  0.00    +0.156 C 
BRANCH  29  30
ATOM     30  C   UNL     1      -3.529  11.302   1.147  0.00  0.00    +0.173 C 
ATOM     31  O   UNL     1      -2.962  11.359   0.077  0.00  0.00    -0.291 OA
BRANCH  30  32
ATOM     32  C   UNL     1      -3.940  12.540   1.829  0.00  0.00    +0.018 A 
ATOM     33  C   UNL     1      -4.600  12.477   3.060  0.00  0.00    +0.011 A 
ATOM     34  C   UNL     1      -4.976  13.642   3.696  0.00  0.00    +0.001 A 
ATOM     35  C   UNL     1      -4.713  14.869   3.114  0.00  0.00    +0.000 A 
ATOM     36  C   UNL     1      -4.066  14.939   1.892  0.00  0.00    +0.001 A 
ATOM     37  C   UNL     1      -3.678  13.784   1.246  0.00  0.00    +0.011 A 
ENDBRANCH  30  32
ENDBRANCH  29  30
ENDBRANCH  28  29
ENDBRANCH  14  28
TORSDOF 9
