REMARK  Name = ZINC67157453
REMARK  9 active torsions:
REMARK  status: ('A' for Active; 'I' for Inactive)
REMARK    1  A    between atoms: C_1  and  C_2
REMARK    2  A    between atoms: C_8  and  C_10
REMARK    3  A    between atoms: C_17  and  C_19
REMARK    4  A    between atoms: C_19  and  N_20
REMARK    5  A    between atoms: C_21  and  C_23
REMARK    6  A    between atoms: C_23  and  C_24
REMARK    7  A    between atoms: C_24  and  C_25
REMARK    8  A    between atoms: C_25  and  C_26
REMARK    9  A    between atoms: C_25  and  C_27
REMARK                            x       y       z     vdW  Elec       q    Type
REMARK                         _______ _______ _______ _____ _____    ______ ____
ROOT
ATOM      1  C   UNL     1       2.964  -3.818   1.252  0.00  0.00    +0.092 C 
ATOM      2  C   UNL     1       4.163  -4.718   0.949  0.00  0.00    +0.016 C 
ATOM      3  C   UNL     1       4.813  -5.165   2.260  0.00  0.00    +0.020 C 
ATOM      4  C   UNL     1       5.313  -3.934   3.023  0.00  0.00    +0.108 C 
ATOM      5  N   UNL     1       4.194  -2.996   3.192  0.00  0.00    -0.299 N 
ATOM      6  C   UNL     1       3.442  -2.572   2.003  0.00  0.00    +0.120 C 
ATOM      7  C   UNL     1       3.865  -2.533   4.414  0.00  0.00    +0.233 C 
ATOM      8  O   UNL     1       2.939  -1.759   4.540  0.00  0.00    -0.274 OA
ENDROOT
BRANCH   1  16
ATOM      9  C   UNL     1      -3.092  -3.972  -0.547  0.00  0.00    +0.007 C 
ATOM     10  C   UNL     1      -1.790  -3.212  -0.287  0.00  0.00    -0.011 C 
ATOM     11  C   UNL     1      -1.067  -3.834   0.910  0.00  0.00    +0.022 C 
ATOM     12  C   UNL     1       0.218  -3.049   1.189  0.00  0.00    +0.108 C 
ATOM     13  N   UNL     1       1.020  -3.001  -0.042  0.00  0.00    -0.301 N 
ATOM     14  C   UNL     1       0.393  -2.505  -1.274  0.00  0.00    +0.108 C 
ATOM     15  C   UNL     1      -0.895  -3.296  -1.526  0.00  0.00    +0.022 C 
ATOM     16  C   UNL     1       2.305  -3.405  -0.040  0.00  0.00    +0.220 C 
ATOM     17  O   UNL     1       2.933  -3.436  -1.077  0.00  0.00    -0.275 OA
ENDBRANCH   1  16
BRANCH   7  18
ATOM     18  C   UNL     1       4.646  -2.978   5.624  0.00  0.00    +0.200 C 
BRANCH  18  19
ATOM     19  N   UNL     1       4.095  -2.339   6.822  0.00  0.00    -0.307 N 
ATOM     20  C   UNL     1       4.638  -2.591   8.029  0.00  0.00    +0.213 C 
ATOM     21  O   UNL     1       5.583  -3.345   8.124  0.00  0.00    -0.276 OA
ATOM     22  H   UNL     1       3.340  -1.736   6.746  0.00  0.00    +0.149 HD
BRANCH  20  23
ATOM     23  C   UNL     1       4.072  -1.934   9.262  0.00  0.00    +0.096 C 
BRANCH  23  24
ATOM     24  C   UNL     1       4.865  -2.385  10.490  0.00  0.00    +0.012 C 
BRANCH  24  25
ATOM     25  C   UNL     1       4.290  -1.718  11.742  0.00  0.00    -0.017 C 
ATOM     26  C   UNL     1       2.863  -2.217  11.975  0.00  0.00    +0.007 C 
ATOM     27  C   UNL     1       5.158  -2.070  12.951  0.00  0.00    +0.007 C 
ENDBRANCH  24  25
ENDBRANCH  23  24
ENDBRANCH  20  23
ENDBRANCH  18  19
ENDBRANCH   7  18
TORSDOF 6
