REMARK  Name = ZINC18035068
REMARK  6 active torsions:
REMARK  status: ('A' for Active; 'I' for Inactive)
REMARK    1  A    between atoms: C_1  and  C_2
REMARK    2  A    between atoms: C_5  and  N_9
REMARK    3  A    between atoms: C_7  and  C_8
REMARK    4  A    between atoms: C_13  and  S_15
REMARK    5  A    between atoms: S_15  and  C_16
REMARK    6  A    between atoms: C_16  and  C_17
REMARK                            x       y       z     vdW  Elec       q    Type
REMARK                         _______ _______ _______ _____ _____    ______ ____
ROOT
ATOM      1  N   UNL     1       0.058  -4.168  -0.021  0.00  0.00    -0.292 N 
ATOM      2  C   UNL     1      -0.044  -4.858  -1.224  0.00  0.00    +0.187 A 
ATOM      3  N   UNL     1      -0.069  -4.389  -2.456  0.00  0.00    -0.125 NA
ATOM      4  N   UNL     1      -0.176  -5.259  -3.517  0.00  0.00    -0.133 NA
ATOM      5  C   UNL     1      -0.252  -6.557  -3.296  0.00  0.00    +0.160 A 
ATOM      6  S   UNL     1      -0.167  -6.616  -1.513  0.00  0.00    -0.024 S 
ATOM      7  H   UNL     1       0.149  -4.656   0.812  0.00  0.00    +0.154 HD
ENDROOT
BRANCH   1  12
ATOM      8  C   UNL     1      -0.061   1.502   0.015  0.00  0.00    +0.044 C 
ATOM      9  C   UNL     1      -0.029  -0.005   0.005  0.00  0.00    -0.047 A 
ATOM     10  C   UNL     1      -0.622  -0.701  -1.032  0.00  0.00    +0.005 A 
ATOM     11  C   UNL     1      -0.595  -2.081  -1.044  0.00  0.00    +0.023 A 
ATOM     12  C   UNL     1       0.029  -2.771  -0.012  0.00  0.00    +0.033 A 
ATOM     13  C   UNL     1       0.624  -2.069   1.028  0.00  0.00    +0.027 A 
ATOM     14  C   UNL     1       0.598  -0.688   1.031  0.00  0.00    -0.046 A 
ATOM     15  C   UNL     1       1.248   0.075   2.156  0.00  0.00    +0.044 C 
ENDBRANCH   1  12
BRANCH   5  16
ATOM     16  S   UNL     1      -0.394  -7.880  -4.452  0.00  0.00    -0.091 S 
BRANCH  16  17
ATOM     17  C   UNL     1      -0.412  -7.053  -6.066  0.00  0.00    +0.132 C 
BRANCH  17  18
ATOM     18  C   UNL     1      -0.531  -8.084  -7.158  0.00  0.00    +0.059 A 
ATOM     19  C   UNL     1      -1.730  -8.251  -7.822  0.00  0.00    +0.094 A 
ATOM     20  C   UNL     1      -1.816  -9.215  -8.833  0.00  0.00    +0.259 A 
ATOM     21  O   UNL     1      -2.862  -9.387  -9.439  0.00  0.00    -0.267 OA
ATOM     22  N   UNL     1      -0.725  -9.953  -9.127  0.00  0.00    -0.268 N 
ATOM     23  C   UNL     1      -0.792 -10.896 -10.108  0.00  0.00    +0.096 A 
ATOM     24  C   UNL     1       0.288 -11.647 -10.420  0.00  0.00    +0.018 A 
ATOM     25  C   UNL     1       1.496 -11.463  -9.734  0.00  0.00    +0.005 A 
ATOM     26  C   UNL     1       1.574 -10.522  -8.750  0.00  0.00    +0.047 A 
ATOM     27  C   UNL     1       0.440  -9.750  -8.440  0.00  0.00    +0.140 A 
ATOM     28  N   UNL     1       0.516  -8.827  -7.483  0.00  0.00    -0.233 NA
ENDBRANCH  17  18
ENDBRANCH  16  17
ENDBRANCH   5  16
TORSDOF 4
