REMARK  Name = ZINC13041165
REMARK  6 active torsions:
REMARK  status: ('A' for Active; 'I' for Inactive)
REMARK    1  A    between atoms: C_1  and  C_2
REMARK    2  A    between atoms: C_2  and  C_3
REMARK    3  A    between atoms: C_3  and  N_57
REMARK    4  A    between atoms: C_16  and  C_18
REMARK    5  A    between atoms: C_18  and  S_19
REMARK    6  A    between atoms: S_19  and  C_20
REMARK                            x       y       z     vdW  Elec       q    Type
REMARK                         _______ _______ _______ _____ _____    ______ ____
ROOT
ATOM      1  C   UNL     1       4.798  -7.345   4.409  0.00  0.00    -0.060 C 
ATOM      2  C   UNL     1       4.703  -6.553   3.103  0.00  0.00    +0.088 C 
ATOM      3  N   UNL     1       3.491  -6.957   2.376  0.00  0.00    -0.318 N 
ATOM      4  C   UNL     1       2.289  -6.709   3.184  0.00  0.00    +0.088 C 
ATOM      5  C   UNL     1       2.384  -7.501   4.491  0.00  0.00    -0.060 C 
ATOM      6  C   UNL     1       3.408  -6.313   1.154  0.00  0.00    +0.133 A 
ATOM      7  C   UNL     1       3.437  -7.057  -0.057  0.00  0.00    +0.051 A 
ATOM      8  C   UNL     1       3.550  -8.514  -0.233  0.00  0.00    -0.025 A 
ATOM      9  C   UNL     1       3.551  -8.974  -1.495  0.00  0.00    -0.004 A 
ATOM     10  S   UNL     1       3.408  -7.526  -2.516  0.00  0.00    -0.073 S 
ATOM     11  C   UNL     1       3.345  -6.300  -1.239  0.00  0.00    +0.114 A 
ATOM     12  N   UNL     1       3.241  -4.984  -1.208  0.00  0.00    -0.224 NA
ATOM     13  C   UNL     1       3.221  -4.347  -0.053  0.00  0.00    +0.142 A 
ATOM     14  N   UNL     1       3.308  -4.994   1.095  0.00  0.00    -0.216 NA
ATOM     15  C   UNL     1       3.667 -10.474  -1.552  0.00  0.00    +0.043 C 
ATOM     16  C   UNL     1       3.303 -10.946  -0.127  0.00  0.00    +0.010 C 
ATOM     17  C   UNL     1       3.674  -9.710   0.716  0.00  0.00    +0.037 C 
ATOM     18  N   UNL     1       3.595  -7.070   5.222  0.00  0.00    +0.382 N 
ATOM     19  H   UNL     1       3.536  -6.060   5.399  0.00  0.00    -0.082 HD
ENDROOT
BRANCH  18  20
ATOM     20  C   UNL     1       3.684  -7.781   6.515  0.00  0.00    -0.079 C 
BRANCH  20  22
ATOM     21  C   UNL     1       2.638  -8.018   8.771  0.00  0.00    +0.002 C 
ATOM     22  C   UNL     1       2.546  -7.306   7.420  0.00  0.00    -0.022 C 
ENDBRANCH  20  22
ENDBRANCH  18  20
BRANCH  13  23
ATOM     23  C   UNL     1       3.102  -2.845  -0.044  0.00  0.00    +0.150 C 
BRANCH  23  24
ATOM     24  S   UNL     1       1.350  -2.377   0.004  0.00  0.00    -0.117 S 
BRANCH  24  25
ATOM     25  C   UNL     1       1.379  -0.615   0.010  0.00  0.00    +0.008 A 
ATOM     26  C   UNL     1       0.189   0.101   0.045  0.00  0.00    +0.016 A 
ATOM     27  C   UNL     1       0.215   1.482   0.049  0.00  0.00    +0.021 A 
ATOM     28  C   UNL     1       1.425   2.152   0.020  0.00  0.00    +0.041 A 
ATOM     29  C   UNL     1       2.613   1.442  -0.015  0.00  0.00    +0.021 A 
ATOM     30  C   UNL     1       2.593   0.061  -0.019  0.00  0.00    +0.016 A 
ATOM     31 CL   UNL     1       1.454   3.888   0.025  0.00  0.00    -0.084 Cl
ENDBRANCH  24  25
ENDBRANCH  23  24
ENDBRANCH  13  23
TORSDOF 5
