REMARK  Name = ZINC13119185
REMARK  9 active torsions:
REMARK  status: ('A' for Active; 'I' for Inactive)
REMARK    1  A    between atoms: C_1  and  C_2
REMARK    2  A    between atoms: C_2  and  C_22
REMARK    3  A    between atoms: N_3  and  N_4
REMARK    4  A    between atoms: C_5  and  C_7
REMARK    5  A    between atoms: C_10  and  N_13
REMARK    6  A    between atoms: N_13  and  S_14
REMARK    7  A    between atoms: S_14  and  C_17
REMARK    8  A    between atoms: C_25  and  O_29
REMARK    9  A    between atoms: C_27  and  O_28
REMARK                            x       y       z     vdW  Elec       q    Type
REMARK                         _______ _______ _______ _____ _____    ______ ____
ROOT
ATOM      1  N   UNL     1       0.024   0.035   2.340  0.00  0.00    -0.203 N 
ATOM      2  C   UNL     1       0.044  -0.645   3.503  0.00  0.00    +0.263 C 
ATOM      3  O   UNL     1       0.060  -1.862   3.497  0.00  0.00    -0.268 OA
ATOM      4  H   UNL     1       0.011   1.004   2.345  0.00  0.00    +0.178 HD
ENDROOT
BRANCH   2   5
ATOM      5  C   UNL     1       0.046   0.085   4.785  0.00  0.00    +0.038 A 
ATOM      6  C   UNL     1       0.021   1.483   4.794  0.00  0.00    +0.015 A 
ATOM      7  C   UNL     1       0.024   2.162   5.991  0.00  0.00    +0.027 A 
ATOM      8  C   UNL     1       0.051   1.458   7.192  0.00  0.00    +0.074 A 
ATOM      9  C   UNL     1       0.076   0.066   7.186  0.00  0.00    +0.027 A 
ATOM     10  C   UNL     1       0.067  -0.619   5.992  0.00  0.00    +0.015 A 
BRANCH   8  11
ATOM     11  N   UNL     1       0.053   2.146   8.400  0.00  0.00    -0.097 NA
BRANCH  11  12
ATOM     12  S   UNL     1       0.086   1.311   9.830  0.00  0.00    +0.098 S 
ATOM     13  O   UNL     1      -1.146   0.608   9.917  0.00  0.00    -0.148 OA
ATOM     14  O   UNL     1       1.344   0.653   9.887  0.00  0.00    -0.148 OA
BRANCH  12  15
ATOM     15  C   UNL     1       0.081   2.501  11.129  0.00  0.00    +0.148 A 
ATOM     16  C   UNL     1      -0.975   3.055  11.775  0.00  0.00    +0.037 A 
ATOM     17  C   UNL     1      -0.738   3.979  12.775  0.00  0.00    +0.010 A 
ATOM     18  C   UNL     1       0.542   4.304  13.081  0.00  0.00    +0.047 A 
ATOM     19  S   UNL     1       1.464   3.285  11.941  0.00  0.00    -0.077 S 
ENDBRANCH  12  15
ENDBRANCH  11  12
ENDBRANCH   8  11
ENDBRANCH   2   5
BRANCH   1  22
ATOM     20  C   UNL     1      -0.018   1.503   0.010  0.00  0.00    +0.068 C 
ATOM     21  C   UNL     1       0.002  -0.004   0.002  0.00  0.00    +0.067 C 
ATOM     22  N   UNL     1       0.022  -0.659   1.123  0.00  0.00    -0.184 NA
BRANCH  21  23
ATOM     23  C   UNL     1      -0.000  -0.734  -1.278  0.00  0.00    +0.039 A 
ATOM     24  C   UNL     1      -0.015  -0.031  -2.486  0.00  0.00    +0.017 A 
ATOM     25  C   UNL     1      -0.017  -0.717  -3.680  0.00  0.00    +0.046 A 
ATOM     26  C   UNL     1      -0.003  -2.107  -3.689  0.00  0.00    +0.120 A 
ATOM     27  C   UNL     1       0.012  -2.814  -2.495  0.00  0.00    +0.091 A 
ATOM     28  C   UNL     1       0.019  -2.136  -1.289  0.00  0.00    +0.129 A 
BRANCH  28  29
ATOM     29  O   UNL     1       0.039  -2.826  -0.119  0.00  0.00    -0.506 OA
ATOM     30  H   UNL     1      -0.839  -3.038   0.227  0.00  0.00    +0.292 HD
ENDBRANCH  28  29
BRANCH  26  31
ATOM     31  O   UNL     1      -0.005  -2.776  -4.871  0.00  0.00    -0.507 OA
ATOM     32  H   UNL     1       0.877  -2.962  -5.220  0.00  0.00    +0.292 HD
ENDBRANCH  26  31
ENDBRANCH  21  23
ENDBRANCH   1  22
TORSDOF 8
