REMARK  Name = ZINC11176383
REMARK  12 active torsions:
REMARK  status: ('A' for Active; 'I' for Inactive)
REMARK    1  A    between atoms: C_1  and  C_2
REMARK    2  A    between atoms: C_6  and  C_33
REMARK    3  A    between atoms: C_8  and  O_11
REMARK    4  A    between atoms: O_11  and  C_12
REMARK    5  A    between atoms: C_12  and  C_14
REMARK    6  A    between atoms: C_14  and  O_15
REMARK    7  A    between atoms: O_15  and  C_16
REMARK    8  A    between atoms: C_19  and  S_25
REMARK    9  A    between atoms: C_21  and  C_22
REMARK   10  A    between atoms: S_25  and  N_28
REMARK   11  A    between atoms: C_33  and  C_34
REMARK   12  A    between atoms: C_33  and  C_35
REMARK                            x       y       z     vdW  Elec       q    Type
REMARK                         _______ _______ _______ _____ _____    ______ ____
ROOT
ATOM      1  C   UNL     1       2.805   5.296   3.716  0.00  0.00    +0.133 A 
ATOM      2  C   UNL     1       1.833   6.190   3.290  0.00  0.00    +0.048 A 
ATOM      3  C   UNL     1       2.046   7.549   3.402  0.00  0.00    +0.032 A 
ATOM      4  C   UNL     1       3.229   8.031   3.939  0.00  0.00    +0.106 A 
ATOM      5  C   UNL     1       4.205   7.158   4.367  0.00  0.00    +0.045 A 
ATOM      6  C   UNL     1       4.000   5.780   4.265  0.00  0.00    +0.080 A 
ENDROOT
BRANCH   6   7
ATOM      7  C   UNL     1       5.039   4.840   4.726  0.00  0.00    +0.245 C 
ATOM      8  O   UNL     1       4.860   3.641   4.630  0.00  0.00    -0.270 OA
ATOM      9  N   UNL     1       6.187   5.309   5.254  0.00  0.00    -0.325 N 
ATOM     10  H   UNL     1       6.330   6.265   5.330  0.00  0.00    +0.145 HD
ATOM     11  H   UNL     1       6.870   4.691   5.557  0.00  0.00    +0.145 HD
ENDBRANCH   6   7
BRANCH   4  12
ATOM     12  S   UNL     1       3.486   9.769   4.074  0.00  0.00    +0.061 S 
ATOM     13  O   UNL     1       4.892   9.971   4.104  0.00  0.00    -0.153 OA
ATOM     14  O   UNL     1       2.649  10.381   3.102  0.00  0.00    -0.153 OA
BRANCH  12  15
ATOM     15  N   UNL     1       2.909  10.236   5.555  0.00  0.00    -0.177 NA
ATOM     16  C   UNL     1       1.534  10.668   5.841  0.00  0.00    +0.109 C 
ATOM     17  C   UNL     1       1.469  11.027   7.341  0.00  0.00    +0.018 C 
ATOM     18  C   UNL     1       2.952  11.318   7.692  0.00  0.00    +0.018 C 
ATOM     19  C   UNL     1       3.689  10.281   6.805  0.00  0.00    +0.109 C 
ENDBRANCH  12  15
ENDBRANCH   4  12
BRANCH   1  20
ATOM     20  O   UNL     1       2.598   3.960   3.606  0.00  0.00    -0.480 OA
BRANCH  20  21
ATOM     21  C   UNL     1       1.356   3.541   3.036  0.00  0.00    +0.349 C 
BRANCH  21  22
ATOM     22  C   UNL     1       1.304   2.036   2.995  0.00  0.00    +0.345 C 
ATOM     23  O   UNL     1       2.236   1.388   3.411  0.00  0.00    -0.247 OA
BRANCH  22  24
ATOM     24  O   UNL     1       0.224   1.414   2.497  0.00  0.00    -0.459 OA
BRANCH  24  30
ATOM     25  C   UNL     1      -0.019   1.526   0.010  0.00  0.00    +0.007 C 
ATOM     26  C   UNL     1       0.002  -0.004   0.002  0.00  0.00    -0.011 C 
ATOM     27  C   UNL     1      -1.427  -0.534   0.139  0.00  0.00    +0.004 C 
ATOM     28  C   UNL     1      -2.031  -0.040   1.454  0.00  0.00    +0.007 C 
ATOM     29  C   UNL     1      -1.185  -0.545   2.625  0.00  0.00    +0.032 C 
ATOM     30  C   UNL     1       0.244  -0.015   2.489  0.00  0.00    +0.180 C 
ATOM     31  C   UNL     1       0.848  -0.509   1.173  0.00  0.00    +0.048 C 
BRANCH  29  32
ATOM     32  C   UNL     1      -1.789  -0.050   3.941  0.00  0.00    -0.011 C 
ATOM     33  C   UNL     1      -3.218  -0.580   4.078  0.00  0.00    +0.007 C 
ATOM     34  C   UNL     1      -0.944  -0.555   5.112  0.00  0.00    +0.007 C 
ENDBRANCH  29  32
ENDBRANCH  24  30
ENDBRANCH  22  24
ENDBRANCH  21  22
ENDBRANCH  20  21
ENDBRANCH   1  20
TORSDOF 9
