REMARK  Name = ZINC12528363
REMARK  10 active torsions:
REMARK  status: ('A' for Active; 'I' for Inactive)
REMARK    1  A    between atoms: C_1  and  C_2
REMARK    2  A    between atoms: C_5  and  C_37
REMARK    3  A    between atoms: C_6  and  N_8
REMARK    4  A    between atoms: C_21  and  S_22
REMARK    5  A    between atoms: S_22  and  C_23
REMARK    6  A    between atoms: C_23  and  C_24
REMARK    7  A    between atoms: C_24  and  C_25
REMARK    8  A    between atoms: N_27  and  C_28
REMARK    9  A    between atoms: C_28  and  C_30
REMARK   10  A    between atoms: C_28  and  C_31
REMARK                            x       y       z     vdW  Elec       q    Type
REMARK                         _______ _______ _______ _____ _____    ______ ____
ROOT
ATOM      1  N   UNL     1       3.747  12.491   6.158  0.00  0.00    -0.245 N 
ATOM      2  C   UNL     1       4.901  12.499   6.857  0.00  0.00    +0.268 A 
ATOM      3  O   UNL     1       5.203  13.460   7.539  0.00  0.00    -0.267 OA
ATOM      4  C   UNL     1       5.793  11.329   6.775  0.00  0.00    +0.064 A 
ATOM      5  C   UNL     1       7.000  11.289   7.472  0.00  0.00    +0.015 A 
ATOM      6  C   UNL     1       7.808  10.176   7.371  0.00  0.00    +0.001 A 
ATOM      7  C   UNL     1       7.427   9.102   6.582  0.00  0.00    +0.002 A 
ATOM      8  C   UNL     1       6.234   9.130   5.887  0.00  0.00    +0.027 A 
ATOM      9  C   UNL     1       5.408  10.240   5.977  0.00  0.00    +0.064 A 
ATOM     10  N   UNL     1       4.202  10.297   5.290  0.00  0.00    -0.255 N 
ATOM     11  C   UNL     1       3.392  11.399   5.381  0.00  0.00    +0.245 A 
ATOM     12  N   UNL     1       2.338  11.159   4.638  0.00  0.00    -0.109 NA
ATOM     13  N   UNL     1       2.436   9.999   4.093  0.00  0.00    -0.120 NA
ATOM     14  C   UNL     1       3.559   9.425   4.453  0.00  0.00    +0.198 A 
ENDROOT
BRANCH   1  20
ATOM     15  C   UNL     1      -0.001  14.807   8.341  0.00  0.00    +0.044 C 
ATOM     16  C   UNL     1       1.064  14.744   7.277  0.00  0.00    -0.048 A 
ATOM     17  C   UNL     1       1.195  15.778   6.368  0.00  0.00    +0.004 A 
ATOM     18  C   UNL     1       2.171  15.724   5.391  0.00  0.00    +0.005 A 
ATOM     19  C   UNL     1       3.022  14.639   5.322  0.00  0.00    -0.026 A 
ATOM     20  C   UNL     1       2.890  13.595   6.228  0.00  0.00    +0.056 A 
ATOM     21  C   UNL     1       1.908  13.653   7.210  0.00  0.00    +0.030 A 
ATOM     22  C   UNL     1       4.090  14.584   4.260  0.00  0.00    +0.046 C 
ENDBRANCH   1  20
BRANCH  14  23
ATOM     23  S   UNL     1       4.129   7.832   3.960  0.00  0.00    -0.085 S 
BRANCH  23  24
ATOM     24  C   UNL     1       2.817   7.216   2.869  0.00  0.00    +0.086 C 
BRANCH  24  25
ATOM     25  C   UNL     1       3.188   5.821   2.363  0.00  0.00    +0.107 C 
BRANCH  25  26
ATOM     26  C   UNL     1       2.098   5.308   1.457  0.00  0.00    +0.214 C 
ATOM     27  O   UNL     1       1.121   5.992   1.238  0.00  0.00    -0.276 OA
ATOM     28  N   UNL     1       2.210   4.090   0.890  0.00  0.00    -0.309 N 
ATOM     29  H   UNL     1       2.992   3.544   1.065  0.00  0.00    +0.149 HD
BRANCH  28  30
ATOM     30  C   UNL     1       1.151   3.592   0.010  0.00  0.00    +0.100 C 
ATOM     31  C   UNL     1       1.381   4.113  -1.410  0.00  0.00    +0.033 C 
BRANCH  30  32
ATOM     32  C   UNL     1       1.171   2.086   0.002  0.00  0.00    -0.027 A 
ATOM     33  C   UNL     1      -0.017   1.378   0.010  0.00  0.00    +0.005 A 
ATOM     34  C   UNL     1       0.002  -0.004   0.002  0.00  0.00    +0.000 A 
ATOM     35  C   UNL     1       1.208  -0.679  -0.014  0.00  0.00    +0.000 A 
ATOM     36  C   UNL     1       2.396   0.029  -0.021  0.00  0.00    +0.000 A 
ATOM     37  C   UNL     1       2.377   1.411  -0.014  0.00  0.00    +0.005 A 
ENDBRANCH  30  32
ENDBRANCH  28  30
ENDBRANCH  25  26
ENDBRANCH  24  25
ENDBRANCH  23  24
ENDBRANCH  14  23
TORSDOF 7
