REMARK  Name = ZINC33683481
REMARK  8 active torsions:
REMARK  status: ('A' for Active; 'I' for Inactive)
REMARK    1  A    between atoms: C_1  and  C_2
REMARK    2  A    between atoms: C_2  and  C_4
REMARK    3  A    between atoms: C_4  and  O_31
REMARK    4  A    between atoms: C_9  and  C_30
REMARK    5  A    between atoms: C_17  and  O_29
REMARK    6  A    between atoms: C_19  and  O_28
REMARK    7  A    between atoms: C_20  and  C_27
REMARK    8  A    between atoms: C_23  and  O_26
REMARK                            x       y       z     vdW  Elec       q    Type
REMARK                         _______ _______ _______ _____ _____    ______ ____
ROOT
ATOM      1  C   UNL     1       2.024   0.351  -6.012  0.00  0.00    +0.129 C 
ATOM      2  C   UNL     1       2.015   1.829  -6.476  0.00  0.00    +0.043 C 
ATOM      3  C   UNL     1       1.306   2.639  -5.354  0.00  0.00    +0.008 C 
ATOM      4  C   UNL     1       1.317   1.660  -4.173  0.00  0.00    +0.002 C 
ATOM      5  C   UNL     1       0.989   0.321  -4.864  0.00  0.00    +0.007 C 
ATOM      6  C   UNL     1       1.155  -0.819  -3.896  0.00  0.00    +0.010 C 
ATOM      7  C   UNL     1       0.474  -0.528  -2.555  0.00  0.00    +0.005 C 
ATOM      8  C   UNL     1      -0.366   0.737  -2.566  0.00  0.00    +0.001 C 
ATOM      9  C   UNL     1       0.429   1.957  -3.002  0.00  0.00    -0.001 C 
ATOM     10  C   UNL     1      -0.480   3.158  -3.229  0.00  0.00    +0.038 C 
ATOM     11  C   UNL     1      -1.589   3.215  -2.170  0.00  0.00    +0.147 C 
ATOM     12  C   UNL     1      -1.139   2.467  -0.926  0.00  0.00    +0.100 C 
ATOM     13  C   UNL     1      -1.038   0.971  -1.216  0.00  0.00    +0.002 C 
ATOM     14  C   UNL     1      -0.333   0.295  -0.050  0.00  0.00    +0.012 C 
ATOM     15  C   UNL     1      -1.129   0.526   1.236  0.00  0.00    +0.032 C 
ATOM     16  C   UNL     1      -1.419   2.000   1.489  0.00  0.00    +0.117 C 
ATOM     17  C   UNL     1      -2.065   2.678   0.273  0.00  0.00    +0.069 C 
ATOM     18  C   UNL     1      -2.448   0.371  -1.337  0.00  0.00    +0.014 C 
ATOM     19  C   UNL     1      -0.389   0.307  -5.524  0.00  0.00    +0.015 C 
ENDROOT
BRANCH   1  21
ATOM     20  C   UNL     1       1.899  -2.030  -7.066  0.00  0.00    +0.089 C 
ATOM     21  C   UNL     1       1.581  -0.558  -7.124  0.00  0.00    +0.162 C 
ATOM     22  O   UNL     1       0.970  -0.108  -8.064  0.00  0.00    -0.295 OA
ENDBRANCH   1  21
BRANCH  16  23
ATOM     23  O   UNL     1      -2.304   2.118   2.610  0.00  0.00    -0.392 OA
ATOM     24  H   UNL     1      -2.632   3.112   2.949  0.00  0.00    +0.210 HD
ENDBRANCH  16  23
BRANCH  12  25
ATOM     25  O   UNL     1       0.149   2.969  -0.531  0.00  0.00    -0.385 OA
ATOM     26  H   UNL     1       0.652   2.555   0.355  0.00  0.00    +0.210 HD
ENDBRANCH  12  25
BRANCH  11  27
ATOM     27  O   UNL     1      -1.850   4.584  -1.839  0.00  0.00    -0.389 OA
ATOM     28  H   UNL     1      -2.619   4.832  -1.093  0.00  0.00    +0.210 HD
ENDBRANCH  11  27
BRANCH   1  29
ATOM     29  O   UNL     1       3.310  -0.018  -5.527  0.00  0.00    -0.381 OA
ATOM     30  H   UNL     1       3.775   0.553  -4.710  0.00  0.00    +0.211 HD
ENDBRANCH   1  29
TORSDOF 5
