REMARK  Name = ZINC38491867
REMARK  9 active torsions:
REMARK  status: ('A' for Active; 'I' for Inactive)
REMARK    1  A    between atoms: C_1  and  N_2
REMARK    2  A    between atoms: N_2  and  C_3
REMARK    3  A    between atoms: C_14  and  C_27
REMARK    4  A    between atoms: N_16  and  C_19
REMARK    5  A    between atoms: C_19  and  C_20
REMARK    6  A    between atoms: N_22  and  C_23
REMARK    7  A    between atoms: C_23  and  C_24
REMARK    8  A    between atoms: C_24  and  O_25
REMARK    9  A    between atoms: O_25  and  C_26
REMARK                            x       y       z     vdW  Elec       q    Type
REMARK                         _______ _______ _______ _____ _____    ______ ____
ROOT
ATOM      1  C   UNL     1       1.379   1.813   0.245  0.00  0.00    +0.137 C 
ATOM      2  N   UNL     1       0.990   0.400   0.263  0.00  0.00    -0.283 N 
ATOM      3  C   UNL     1       0.773  -0.272  -0.925  0.00  0.00    +0.166 A 
ATOM      4  N   UNL     1       0.527  -1.550  -1.119  0.00  0.00    -0.219 NA
ATOM      5  C   UNL     1       0.335  -2.070  -2.345  0.00  0.00    +0.148 A 
ATOM      6  C   UNL     1       0.412  -1.162  -3.417  0.00  0.00    +0.074 A 
ATOM      7  S   UNL     1       0.747   0.373  -2.593  0.00  0.00    -0.050 S 
ATOM      8  C   UNL     1       0.227  -1.584  -4.783  0.00  0.00    +0.107 A 
ATOM      9  N   UNL     1      -0.022  -2.850  -5.048  0.00  0.00    -0.167 NA
ATOM     10  N   UNL     1      -0.109  -3.791  -4.020  0.00  0.00    -0.218 N 
ATOM     11  C   UNL     1       0.052  -3.468  -2.728  0.00  0.00    +0.294 A 
ATOM     12  O   UNL     1      -0.034  -4.330  -1.869  0.00  0.00    -0.264 OA
ENDROOT
BRANCH   8  13
ATOM     13  C   UNL     1       0.315  -0.597  -5.886  0.00  0.00    +0.003 A 
ATOM     14  C   UNL     1       1.040   0.582  -5.713  0.00  0.00    +0.013 A 
ATOM     15  C   UNL     1       1.119   1.498  -6.741  0.00  0.00    +0.039 A 
ATOM     16  C   UNL     1       0.480   1.248  -7.945  0.00  0.00    +0.123 A 
ATOM     17  C   UNL     1      -0.241   0.078  -8.122  0.00  0.00    +0.039 A 
ATOM     18  C   UNL     1      -0.321  -0.846  -7.101  0.00  0.00    +0.013 A 
ATOM     19  F   UNL     1       0.561   2.148  -8.950  0.00  0.00    -0.205 F 
ENDBRANCH   8  13
BRANCH   2  20
ATOM     20  C   UNL     1       0.838  -0.267   1.481  0.00  0.00    +0.035 A 
ATOM     21  C   UNL     1       0.334  -1.561   1.508  0.00  0.00    +0.023 A 
ATOM     22  C   UNL     1       0.185  -2.218   2.714  0.00  0.00    +0.002 A 
ATOM     23  C   UNL     1       0.537  -1.589   3.894  0.00  0.00    +0.000 A 
ATOM     24  C   UNL     1       1.039  -0.300   3.871  0.00  0.00    +0.002 A 
ATOM     25  C   UNL     1       1.196   0.360   2.668  0.00  0.00    +0.023 A 
ENDBRANCH   2  20
BRANCH  10  26
ATOM     26  C   UNL     1      -0.388  -5.187  -4.367  0.00  0.00    +0.243 C 
BRANCH  26  27
ATOM     27  C   UNL     1      -1.877  -5.415  -4.374  0.00  0.00    +0.235 C 
ATOM     28  O   UNL     1      -2.632  -4.501  -4.114  0.00  0.00    -0.274 OA
ATOM     29  N   UNL     1      -2.372  -6.634  -4.668  0.00  0.00    -0.312 N 
ATOM     30  H   UNL     1      -1.768  -7.364  -4.875  0.00  0.00    +0.149 HD
BRANCH  29  31
ATOM     31  C   UNL     1      -3.820  -6.855  -4.674  0.00  0.00    +0.132 C 
BRANCH  31  32
ATOM     32  C   UNL     1      -4.111  -8.313  -5.037  0.00  0.00    +0.178 C 
BRANCH  32  33
ATOM     33  O   UNL     1      -3.602  -9.169  -4.012  0.00  0.00    -0.381 OA
ATOM     34  C   UNL     1      -3.824 -10.560  -4.254  0.00  0.00    +0.194 C 
ENDBRANCH  32  33
ENDBRANCH  31  32
ENDBRANCH  29  31
ENDBRANCH  26  27
ENDBRANCH  10  26
TORSDOF 7
