REMARK  Name = ZINC35572252
REMARK  3 active torsions:
REMARK  status: ('A' for Active; 'I' for Inactive)
REMARK    1  A    between atoms: C_8  and  C_10
REMARK    2  A    between atoms: C_12  and  S_17
REMARK    3  A    between atoms: C_15  and  N_16
REMARK                            x       y       z     vdW  Elec       q    Type
REMARK                         _______ _______ _______ _____ _____    ______ ____
ROOT
ATOM      1  C   UNL     1       3.675  -3.353   0.186  0.00  0.00    +0.059 A 
ATOM      2  C   UNL     1       3.005  -4.574   0.284  0.00  0.00    +0.044 A 
ATOM      3  C   UNL     1       3.679  -5.751   0.037  0.00  0.00    +0.120 A 
ATOM      4  C   UNL     1       5.020  -5.730  -0.308  0.00  0.00    +0.031 A 
ATOM      5  C   UNL     1       5.697  -4.530  -0.409  0.00  0.00    +0.025 A 
ATOM      6  C   UNL     1       5.032  -3.335  -0.170  0.00  0.00    +0.037 A 
ENDROOT
BRANCH   1  14
ATOM      7  C   UNL     1       0.268   1.506   0.839  0.00  0.00    +0.002 A 
ATOM      8  C   UNL     1       1.314   1.939   1.641  0.00  0.00    +0.004 A 
ATOM      9  C   UNL     1       2.423   1.141   1.836  0.00  0.00    +0.048 A 
ATOM     10  C   UNL     1       2.495  -0.102   1.228  0.00  0.00    +0.156 A 
ATOM     11  C   UNL     1       1.438  -0.545   0.416  0.00  0.00    +0.110 A 
ATOM     12  C   UNL     1       0.322   0.274   0.228  0.00  0.00    +0.031 A 
ATOM     13  N   UNL     1       1.783  -1.778  -0.036  0.00  0.00    -0.209 NA
ATOM     14  C   UNL     1       2.960  -2.090   0.449  0.00  0.00    +0.230 A 
ATOM     15  O   UNL     1       3.420  -1.089   1.223  0.00  0.00    -0.435 OA
ENDBRANCH   1  14
BRANCH   3  16
ATOM     16  S   UNL     1       2.830  -7.290   0.162  0.00  0.00    +0.140 S 
ATOM     17  O   UNL     1       3.813  -8.283   0.567  0.00  0.00    -0.140 OA
ATOM     18  O   UNL     1       1.788  -7.118   1.162  0.00  0.00    -0.140 OA
ATOM     19  O   UNL     1       2.279  -7.576  -1.154  0.00  0.00    -0.043 OA
ENDBRANCH   3  16
BRANCH   6  20
ATOM     20  N   UNL     1       5.710  -2.124  -0.277  0.00  0.00    -0.357 N 
ATOM     21  H   UNL     1       5.226  -1.288  -0.197  0.00  0.00    +0.142 HD
ATOM     22  H   UNL     1       6.668  -2.117  -0.432  0.00  0.00    +0.142 HD
ENDBRANCH   6  20
TORSDOF 3
