REMARK  Name = ZINC31045940
REMARK  12 active torsions:
REMARK  status: ('A' for Active; 'I' for Inactive)
REMARK    1  A    between atoms: C_1  and  O_2
REMARK    2  A    between atoms: O_2  and  C_3
REMARK    3  A    between atoms: C_6  and  C_13
REMARK    4  A    between atoms: C_7  and  O_11
REMARK    5  A    between atoms: C_8  and  O_9
REMARK    6  A    between atoms: O_9  and  C_10
REMARK    7  A    between atoms: O_11  and  C_12
REMARK    8  A    between atoms: C_13  and  N_14
REMARK    9  A    between atoms: C_15  and  C_17
REMARK   10  A    between atoms: N_22  and  C_24
REMARK   11  A    between atoms: C_24  and  C_25
REMARK   12  A    between atoms: C_27  and  C_30
REMARK                            x       y       z     vdW  Elec       q    Type
REMARK                         _______ _______ _______ _____ _____    ______ ____
ROOT
ATOM      1  C   UNL     1      -6.675   5.931   2.014  0.00  0.00    +0.058 C 
ATOM      2  C   UNL     1      -6.314   6.503   3.387  0.00  0.00    +0.009 C 
ATOM      3  C   UNL     1      -7.526   6.385   4.315  0.00  0.00    -0.018 C 
ATOM      4  C   UNL     1      -8.713   7.122   3.692  0.00  0.00    -0.078 C 
ATOM      5  N   UNL     1      -9.020   6.538   2.380  0.00  0.00    +0.386 N 
ATOM      6  C   UNL     1      -7.887   6.681   1.456  0.00  0.00    -0.065 C 
ATOM      7  H   UNL     1      -9.199   5.463   2.526  0.00  0.00    -0.081 HD
ENDROOT
BRANCH   1   9
ATOM      8  N   UNL     1      -4.323   5.521   1.366  0.00  0.00    -0.311 N 
ATOM      9  C   UNL     1      -5.506   6.097   1.077  0.00  0.00    +0.215 C 
ATOM     10  O   UNL     1      -5.630   6.750   0.062  0.00  0.00    -0.276 OA
ATOM     11  H   UNL     1      -4.210   4.929   2.287  0.00  0.00    +0.149 HD
BRANCH   8  12
ATOM     12  C   UNL     1      -3.187   5.682   0.456  0.00  0.00    +0.143 C 
BRANCH  12  16
ATOM     13  C   UNL     1       0.202   3.593   2.026  0.00  0.00    +0.165 A 
ATOM     14  C   UNL     1       0.094   4.967   2.184  0.00  0.00    +0.050 A 
ATOM     15  C   UNL     1      -1.003   5.638   1.677  0.00  0.00    +0.012 A 
ATOM     16  C   UNL     1      -1.993   4.945   1.006  0.00  0.00    +0.015 A 
ATOM     17  C   UNL     1      -1.889   3.572   0.838  0.00  0.00    +0.170 A 
ATOM     18  C   UNL     1      -0.787   2.894   1.346  0.00  0.00    +0.204 A 
BRANCH  13  20
ATOM     19  C   UNL     1       2.257   3.716   3.217  0.00  0.00    +0.277 C 
ATOM     20  O   UNL     1       1.279   2.933   2.530  0.00  0.00    -0.491 OA
ENDBRANCH  13  20
BRANCH  18  21
ATOM     21  O   UNL     1      -0.682   1.547   1.184  0.00  0.00    -0.488 OA
ATOM     22  C   UNL     1      -0.013   1.086   0.008  0.00  0.00    +0.277 C 
ENDBRANCH  18  21
BRANCH  17  23
ATOM     23  O   UNL     1      -2.863   2.891   0.178  0.00  0.00    -0.491 OA
ATOM     24  C   UNL     1      -3.946   2.386   0.961  0.00  0.00    +0.277 C 
ENDBRANCH  17  23
ENDBRANCH  12  16
ENDBRANCH   8  12
ENDBRANCH   1   9
BRANCH   5  25
ATOM     25  C   UNL     1     -10.239   7.129   1.812  0.00  0.00    +0.022 C 
BRANCH  25  26
ATOM     26  C   UNL     1     -11.424   6.746   2.661  0.00  0.00    +0.211 A 
ATOM     27  N   UNL     1     -11.889   7.408   3.691  0.00  0.00    -0.193 NA
ATOM     28  C   UNL     1     -12.951   6.695   4.131  0.00  0.00    +0.202 A 
ATOM     29  N   UNL     1     -13.063   5.649   3.354  0.00  0.00    -0.056 NA
ATOM     30  O   UNL     1     -12.195   5.665   2.507  0.00  0.00    -0.340 OA
BRANCH  28  31
ATOM     31  C   UNL     1     -13.824   7.035   5.282  0.00  0.00    +0.023 A 
ATOM     32  C   UNL     1     -13.581   8.187   6.027  0.00  0.00    +0.013 A 
ATOM     33  C   UNL     1     -14.400   8.502   7.093  0.00  0.00    +0.021 A 
ATOM     34  C   UNL     1     -15.453   7.668   7.430  0.00  0.00    +0.041 A 
ATOM     35  C   UNL     1     -15.694   6.519   6.696  0.00  0.00    +0.021 A 
ATOM     36  C   UNL     1     -14.885   6.199   5.625  0.00  0.00    +0.013 A 
ATOM     37 CL   UNL     1     -16.474   8.066   8.776  0.00  0.00    -0.084 Cl
ENDBRANCH  28  31
ENDBRANCH  25  26
ENDBRANCH   5  25
TORSDOF 9
