REMARK  Name = ZINC41584593
REMARK  7 active torsions:
REMARK  status: ('A' for Active; 'I' for Inactive)
REMARK    1  A    between atoms: C_1  and  C_2
REMARK    2  A    between atoms: C_4  and  O_39
REMARK    3  A    between atoms: C_5  and  C_25
REMARK    4  A    between atoms: C_11  and  C_12
REMARK    5  A    between atoms: C_15  and  C_18
REMARK    6  A    between atoms: C_25  and  N_26
REMARK    7  A    between atoms: C_31  and  C_33
REMARK                            x       y       z     vdW  Elec       q    Type
REMARK                         _______ _______ _______ _____ _____    ______ ____
ROOT
ATOM      1  C   UNL     1       0.836   1.078   0.180  0.00  0.00    +0.045 C 
ATOM      2  C   UNL     1       0.566  -0.402   0.096  0.00  0.00    -0.033 A 
ATOM      3  C   UNL     1       0.347  -0.989  -1.119  0.00  0.00    +0.050 A 
ATOM      4  C   UNL     1       0.099  -2.357  -1.199  0.00  0.00    +0.122 A 
ATOM      5  C   UNL     1       0.070  -3.137  -0.054  0.00  0.00    +0.020 A 
ATOM      6  C   UNL     1       0.291  -2.555   1.188  0.00  0.00    +0.145 A 
ATOM      7  C   UNL     1       0.545  -1.176   1.256  0.00  0.00    +0.071 A 
ATOM      8  C   UNL     1       0.743  -0.860   2.683  0.00  0.00    +0.232 C 
ATOM      9  O   UNL     1       0.982   0.227   3.180  0.00  0.00    -0.283 OA
ATOM     10  C   UNL     1       0.584  -2.150   3.371  0.00  0.00    +0.176 C 
ATOM     11  C   UNL     1       0.679  -2.363   4.708  0.00  0.00    +0.058 C 
ATOM     12  O   UNL     1       0.315  -3.085   2.430  0.00  0.00    -0.451 OA
ENDROOT
BRANCH  11  13
ATOM     13  C   UNL     1       0.642  -3.731   5.239  0.00  0.00    -0.021 A 
ATOM     14  C   UNL     1       0.645  -4.824   4.362  0.00  0.00    +0.008 A 
ATOM     15  C   UNL     1       0.612  -6.096   4.858  0.00  0.00    +0.009 A 
ATOM     16  C   UNL     1       0.574  -6.308   6.238  0.00  0.00    -0.018 A 
ATOM     17  C   UNL     1       0.571  -5.221   7.114  0.00  0.00    +0.009 A 
ATOM     18  C   UNL     1       0.610  -3.947   6.623  0.00  0.00    +0.008 A 
BRANCH  16  19
ATOM     19  C   UNL     1       0.537  -7.689   6.773  0.00  0.00    -0.018 A 
ATOM     20  C   UNL     1       0.433  -8.774   5.904  0.00  0.00    +0.008 A 
ATOM     21  C   UNL     1       0.399 -10.059   6.408  0.00  0.00    +0.001 A 
ATOM     22  C   UNL     1       0.469 -10.270   7.773  0.00  0.00    +0.000 A 
ATOM     23  C   UNL     1       0.572  -9.198   8.641  0.00  0.00    +0.001 A 
ATOM     24  C   UNL     1       0.612  -7.909   8.148  0.00  0.00    +0.008 A 
ENDBRANCH  16  19
ENDBRANCH  11  13
BRANCH   4  25
ATOM     25  O   UNL     1      -0.118  -2.931  -2.410  0.00  0.00    -0.506 OA
ATOM     26  H   UNL     1       0.686  -3.249  -2.844  0.00  0.00    +0.292 HD
ENDBRANCH   4  25
BRANCH   5  27
ATOM     27  C   UNL     1      -0.201  -4.616  -0.157  0.00  0.00    -0.035 C 
BRANCH  27  28
ATOM     28  N   UNL     1      -1.650  -4.844  -0.232  0.00  0.00    +0.387 N 
ATOM     29  C   UNL     1      -2.279  -4.400   1.017  0.00  0.00    -0.078 C 
ATOM     30  C   UNL     1      -3.797  -4.561   0.912  0.00  0.00    -0.019 C 
ATOM     31  C   UNL     1      -4.134  -6.034   0.665  0.00  0.00    -0.003 C 
ATOM     32  C   UNL     1      -3.412  -6.507  -0.600  0.00  0.00    -0.011 C 
ATOM     33  C   UNL     1      -1.908  -6.274  -0.440  0.00  0.00    -0.036 C 
ATOM     34  H   UNL     1      -2.032  -4.319  -1.004  0.00  0.00    -0.080 HD
BRANCH  33  35
ATOM     35  C   UNL     1      -1.193  -6.738  -1.682  0.00  0.00    -0.043 A 
ATOM     36  C   UNL     1      -0.477  -7.925  -1.678  0.00  0.00    +0.005 A 
ATOM     37  C   UNL     1       0.165  -8.313  -2.845  0.00  0.00    +0.020 A 
ATOM     38  C   UNL     1       0.070  -7.508  -3.965  0.00  0.00    +0.111 A 
ATOM     39  N   UNL     1      -0.620  -6.385  -3.932  0.00  0.00    -0.263 NA
ATOM     40  C   UNL     1      -1.248  -5.989  -2.842  0.00  0.00    +0.112 A 
ENDBRANCH  33  35
ENDBRANCH  27  28
ENDBRANCH   5  27
TORSDOF 6
