REMARK  Name = ZINC50102666
REMARK  6 active torsions:
REMARK  status: ('A' for Active; 'I' for Inactive)
REMARK    1  A    between atoms: C_4  and  N_19
REMARK    2  A    between atoms: C_5  and  C_7
REMARK    3  A    between atoms: C_7  and  S_8
REMARK    4  A    between atoms: S_8  and  N_11
REMARK    5  A    between atoms: N_11  and  C_12
REMARK    6  A    between atoms: C_12  and  C_13
REMARK                            x       y       z     vdW  Elec       q    Type
REMARK                         _______ _______ _______ _____ _____    ______ ____
ROOT
ATOM      1  S   UNL     1       1.250  -2.801   1.685  0.00  0.00    +0.034 S 
ATOM      2  O   UNL     1       2.487  -2.475   2.305  0.00  0.00    -0.158 OA
ATOM      3  O   UNL     1       0.018  -2.507   2.329  0.00  0.00    -0.158 OA
ENDROOT
BRANCH   1   4
ATOM      4  N   UNL     1       1.270  -4.451   1.543  0.00  0.00    -0.189 NA
ATOM      5  H   UNL     1       0.519  -4.974   1.863  0.00  0.00    +0.148 HD
BRANCH   4   6
ATOM      6  C   UNL     1       2.423  -5.120   0.935  0.00  0.00    +0.147 C 
BRANCH   6   7
ATOM      7  C   UNL     1       2.373  -6.593   1.250  0.00  0.00    +0.006 A 
ATOM      8  C   UNL     1       1.790  -7.596   0.550  0.00  0.00    +0.013 A 
ATOM      9  C   UNL     1       1.871  -8.888   1.035  0.00  0.00    +0.023 A 
ATOM     10  C   UNL     1       2.533  -9.113   2.198  0.00  0.00    +0.055 A 
ATOM     11  S   UNL     1       3.074  -7.469   2.639  0.00  0.00    -0.085 S 
ATOM     12 BR   UNL     1       2.815 -10.744   3.111  0.00  0.00    -0.043 Br
ENDBRANCH   6   7
ENDBRANCH   4   6
ENDBRANCH   1   4
BRANCH   1  13
ATOM     13  C   UNL     1       1.226  -2.187  -0.022  0.00  0.00    +0.222 C 
BRANCH  13  18
ATOM     14  C   UNL     1      -0.017   1.378   0.010  0.00  0.00    +0.000 A 
ATOM     15  C   UNL     1       1.170   2.089   0.002  0.00  0.00    +0.002 A 
ATOM     16  C   UNL     1       2.377   1.420  -0.013  0.00  0.00    +0.023 A 
ATOM     17  C   UNL     1       2.400   0.031  -0.021  0.00  0.00    +0.029 A 
ATOM     18  C   UNL     1       1.207  -0.680  -0.013  0.00  0.00    -0.004 A 
ATOM     19  C   UNL     1       0.002  -0.004   0.002  0.00  0.00    +0.007 A 
BRANCH  17  20
ATOM     20  N   UNL     1       3.620  -0.649  -0.036  0.00  0.00    -0.358 N 
ATOM     21  H   UNL     1       4.452  -0.152  -0.042  0.00  0.00    +0.142 HD
ATOM     22  H   UNL     1       3.634  -1.619  -0.042  0.00  0.00    +0.142 HD
ENDBRANCH  17  20
ENDBRANCH  13  18
ENDBRANCH   1  13
TORSDOF 6
