REMARK  Name = ZINC48325148
REMARK  3 active torsions:
REMARK  status: ('A' for Active; 'I' for Inactive)
REMARK    1  A    between atoms: C_5  and  C_7
REMARK    2  A    between atoms: C_9  and  C_12
REMARK    3  A    between atoms: C_17  and  C_19
REMARK                            x       y       z     vdW  Elec       q    Type
REMARK                         _______ _______ _______ _____ _____    ______ ____
ROOT
ATOM      1  C   UNL     1       3.239  -5.188  -0.047  0.00  0.00    +0.063 C 
ATOM      2  C   UNL     1       4.529  -4.709  -0.154  0.00  0.00    +0.154 C 
ATOM      3  C   UNL     1       4.961  -3.304  -0.159  0.00  0.00    +0.364 C 
ATOM      4  O   UNL     1       4.259  -2.313  -0.069  0.00  0.00    -0.243 OA
ATOM      5  O   UNL     1       6.305  -3.349  -0.283  0.00  0.00    -0.406 OA
ATOM      6  C   UNL     1       6.688  -4.635  -0.351  0.00  0.00    +0.207 C 
ATOM      7  N   UNL     1       5.680  -5.441  -0.274  0.00  0.00    -0.209 NA
ENDROOT
BRANCH   6   8
ATOM      8  C   UNL     1       8.120  -5.084  -0.495  0.00  0.00    +0.048 C 
ATOM      9  C   UNL     1       8.173  -6.612  -0.539  0.00  0.00    +0.020 C 
ATOM     10  C   UNL     1       9.627  -7.068  -0.684  0.00  0.00    -0.009 C 
ATOM     11  C   UNL     1      10.212  -6.499  -1.978  0.00  0.00    +0.007 C 
ATOM     12  C   UNL     1      10.159  -4.971  -1.934  0.00  0.00    -0.009 C 
ATOM     13  C   UNL     1       8.706  -4.515  -1.789  0.00  0.00    +0.020 C 
ATOM     14  C   UNL     1      10.973  -4.466  -0.741  0.00  0.00    +0.007 C 
ATOM     15  C   UNL     1      10.388  -5.035   0.553  0.00  0.00    -0.009 C 
ATOM     16  C   UNL     1      10.441  -6.563   0.509  0.00  0.00    +0.007 C 
ATOM     17  C   UNL     1       8.934  -4.579   0.698  0.00  0.00    +0.020 C 
ENDBRANCH   6   8
BRANCH   1  20
ATOM     18  C   UNL     1       1.361  -2.208   0.816  0.00  0.00    +0.127 A 
ATOM     19  N   UNL     1       2.382  -2.999   0.547  0.00  0.00    -0.238 NA
ATOM     20  C   UNL     1       2.142  -4.271   0.258  0.00  0.00    +0.074 A 
ATOM     21  C   UNL     1       0.826  -4.713   0.251  0.00  0.00    +0.075 A 
ATOM     22  S   UNL     1      -0.025  -3.320   0.660  0.00  0.00    -0.074 S 
BRANCH  18  27
ATOM     23  C   UNL     1       0.180   1.229   1.743  0.00  0.00    +0.004 A 
ATOM     24  C   UNL     1       1.405   1.878   1.801  0.00  0.00    +0.020 A 
ATOM     25  C   UNL     1       2.562   1.168   1.535  0.00  0.00    +0.111 A 
ATOM     26  N   UNL     1       2.516  -0.112   1.229  0.00  0.00    -0.253 NA
ATOM     27  C   UNL     1       1.365  -0.770   1.163  0.00  0.00    +0.096 A 
ATOM     28  C   UNL     1       0.159  -0.117   1.419  0.00  0.00    +0.030 A 
ENDBRANCH  18  27
ENDBRANCH   1  20
TORSDOF 3
