REMARK  Name = ZINC12642879
REMARK  12 active torsions:
REMARK  status: ('A' for Active; 'I' for Inactive)
REMARK    1  A    between atoms: C_1  and  C_2
REMARK    2  A    between atoms: C_4  and  N_14
REMARK    3  A    between atoms: N_5  and  C_7
REMARK    4  A    between atoms: C_15  and  C_17
REMARK    5  A    between atoms: C_17  and  S_18
REMARK    6  A    between atoms: S_18  and  C_19
REMARK    7  A    between atoms: C_22  and  C_31
REMARK    8  A    between atoms: N_23  and  C_24
REMARK    9  A    between atoms: C_31  and  C_33
REMARK   10  A    between atoms: C_31  and  N_60
REMARK   11  A    between atoms: C_34  and  N_60
REMARK   12  A    between atoms: C_35  and  N_60
REMARK                            x       y       z     vdW  Elec       q    Type
REMARK                         _______ _______ _______ _____ _____    ______ ____
ROOT
ATOM      1  S   UNL     1      -2.014   5.610   5.729  0.00  0.00    -0.076 S 
ENDROOT
BRANCH   1   2
ATOM      2  C   UNL     1      -1.996   4.519   4.345  0.00  0.00    +0.197 A 
ATOM      3  N   UNL     1      -2.891   3.601   4.063  0.00  0.00    -0.122 NA
ATOM      4  N   UNL     1      -2.567   2.993   2.978  0.00  0.00    -0.135 NA
ATOM      5  C   UNL     1      -1.451   3.475   2.510  0.00  0.00    +0.125 A 
ATOM      6  N   UNL     1      -1.047   4.468   3.362  0.00  0.00    -0.275 N 
BRANCH   6   7
ATOM      7  C   UNL     1       0.102   5.267   3.250  0.00  0.00    +0.050 A 
ATOM      8  C   UNL     1       1.361   4.692   3.353  0.00  0.00    +0.029 A 
ATOM      9  C   UNL     1       2.490   5.479   3.237  0.00  0.00    +0.040 A 
ATOM     10  C   UNL     1       2.366   6.842   3.028  0.00  0.00    +0.124 A 
ATOM     11  C   UNL     1       1.111   7.418   2.929  0.00  0.00    +0.040 A 
ATOM     12  C   UNL     1      -0.020   6.634   3.040  0.00  0.00    +0.029 A 
ATOM     13  F   UNL     1       3.472   7.611   2.920  0.00  0.00    -0.205 F 
ENDBRANCH   6   7
BRANCH   5  14
ATOM     14  C   UNL     1      -0.740   3.027   1.259  0.00  0.00    -0.003 C 
ATOM     15  C   UNL     1      -1.486   3.553   0.032  0.00  0.00    -0.005 C 
BRANCH  14  18
ATOM     16  C   UNL     1      -0.013   1.086   0.008  0.00  0.00    -0.096 C 
ATOM     17  C   UNL     1      -0.072   1.015   2.428  0.00  0.00    -0.096 C 
ATOM     18  N   UNL     1      -0.727   1.550   1.216  0.00  0.00    +0.382 N 
ATOM     19  H   UNL     1      -1.695   1.209   1.182  0.00  0.00    -0.082 HD
ENDBRANCH  14  18
ENDBRANCH   5  14
ENDBRANCH   1   2
BRANCH   1  20
ATOM     20  C   UNL     1      -3.543   5.071   6.534  0.00  0.00    +0.173 C 
BRANCH  20  22
ATOM     21  N   UNL     1      -4.855   5.662   8.546  0.00  0.00    -0.270 N 
ATOM     22  C   UNL     1      -3.770   5.889   7.779  0.00  0.00    +0.229 C 
ATOM     23  O   UNL     1      -2.976   6.751   8.092  0.00  0.00    -0.275 OA
ATOM     24  H   UNL     1      -5.490   4.972   8.296  0.00  0.00    +0.156 HD
BRANCH  21  28
ATOM     25  C   UNL     1      -4.275   9.021  12.191  0.00  0.00    +0.067 C 
ATOM     26  C   UNL     1      -4.834   7.909  11.341  0.00  0.00    +0.062 A 
ATOM     27  C   UNL     1      -4.262   7.414  10.166  0.00  0.00    +0.068 A 
ATOM     28  C   UNL     1      -5.065   6.419   9.698  0.00  0.00    +0.129 A 
ATOM     29  N   UNL     1      -6.114   6.303  10.558  0.00  0.00    -0.218 N 
ATOM     30  N   UNL     1      -5.937   7.246  11.579  0.00  0.00    -0.170 NA
BRANCH  29  31
ATOM     31  C   UNL     1      -7.180   5.399  10.443  0.00  0.00    +0.068 A 
ATOM     32  C   UNL     1      -7.672   5.060   9.190  0.00  0.00    +0.030 A 
ATOM     33  C   UNL     1      -8.719   4.166   9.080  0.00  0.00    +0.040 A 
ATOM     34  C   UNL     1      -9.285   3.616  10.218  0.00  0.00    +0.124 A 
ATOM     35  C   UNL     1      -8.798   3.957  11.469  0.00  0.00    +0.040 A 
ATOM     36  C   UNL     1      -7.748   4.846  11.583  0.00  0.00    +0.030 A 
ATOM     37  F   UNL     1     -10.313   2.746  10.108  0.00  0.00    -0.205 F 
ENDBRANCH  29  31
ENDBRANCH  21  28
ENDBRANCH  20  22
ENDBRANCH   1  20
TORSDOF 8
