REMARK  Name = ZINC41023931
REMARK  4 active torsions:
REMARK  status: ('A' for Active; 'I' for Inactive)
REMARK    1  A    between atoms: C_4  and  C_8
REMARK    2  A    between atoms: C_8  and  S_9
REMARK    3  A    between atoms: S_9  and  C_10
REMARK    4  A    between atoms: C_14  and  N_16
REMARK                            x       y       z     vdW  Elec       q    Type
REMARK                         _______ _______ _______ _____ _____    ______ ____
ROOT
ATOM      1  C   UNL     1       5.788  -1.865   1.476  0.00  0.00    +0.192 A 
ATOM      2  N   UNL     1       6.243  -2.113   0.256  0.00  0.00    -0.207 NA
ATOM      3  C   UNL     1       7.394  -2.755   0.075  0.00  0.00    +0.122 A 
ATOM      4  C   UNL     1       8.122  -3.167   1.188  0.00  0.00    +0.086 A 
ATOM      5  C   UNL     1       7.612  -2.889   2.453  0.00  0.00    +0.122 A 
ATOM      6  N   UNL     1       6.456  -2.238   2.557  0.00  0.00    -0.207 NA
ATOM      7  N   UNL     1       7.863  -3.011  -1.204  0.00  0.00    -0.343 N 
ATOM      8  H   UNL     1       7.351  -2.721  -1.975  0.00  0.00    +0.144 HD
ATOM      9  H   UNL     1       8.703  -3.479  -1.328  0.00  0.00    +0.144 HD
ENDROOT
BRANCH   5  10
ATOM     10  N   UNL     1       8.302  -3.281   3.590  0.00  0.00    -0.343 N 
ATOM     11  H   UNL     1       9.146  -3.752   3.507  0.00  0.00    +0.144 HD
ATOM     12  H   UNL     1       7.941  -3.084   4.468  0.00  0.00    +0.144 HD
ENDBRANCH   5  10
BRANCH   1  13
ATOM     13  S   UNL     1       4.258  -1.011   1.664  0.00  0.00    -0.081 S 
BRANCH  13  14
ATOM     14  C   UNL     1       3.713  -0.706  -0.039  0.00  0.00    +0.113 C 
BRANCH  14  18
ATOM     15  C   UNL     1      -0.017   1.380   0.010  0.00  0.00    +0.039 A 
ATOM     16  C   UNL     1       1.171   2.087   0.002  0.00  0.00    +0.018 A 
ATOM     17  C   UNL     1       2.378   1.412  -0.013  0.00  0.00    +0.022 A 
ATOM     18  C   UNL     1       2.397   0.029  -0.022  0.00  0.00    -0.020 A 
ATOM     19  C   UNL     1       1.211  -0.679  -0.014  0.00  0.00    +0.044 A 
ATOM     20  C   UNL     1       0.002  -0.004   0.002  0.00  0.00    +0.124 A 
ATOM     21  F   UNL     1      -1.158  -0.696   0.010  0.00  0.00    -0.205 F 
ATOM     22 BR   UNL     1       4.002   2.380  -0.025  0.00  0.00    -0.050 Br
ENDBRANCH  14  18
ENDBRANCH  13  14
ENDBRANCH   1  13
TORSDOF 4
