REMARK  Name = ZINC67527533
REMARK  10 active torsions:
REMARK  status: ('A' for Active; 'I' for Inactive)
REMARK    1  A    between atoms: C_1  and  C_2
REMARK    2  A    between atoms: C_3  and  C_9
REMARK    3  A    between atoms: C_4  and  C_8
REMARK    4  A    between atoms: N_5  and  C_7
REMARK    5  A    between atoms: C_9  and  C_11
REMARK    6  A    between atoms: C_9  and  N_12
REMARK    7  A    between atoms: N_15  and  C_16
REMARK    8  A    between atoms: C_20  and  C_22
REMARK    9  A    between atoms: C_22  and  N_23
REMARK   10  A    between atoms: C_27  and  C_29
REMARK                            x       y       z     vdW  Elec       q    Type
REMARK                         _______ _______ _______ _____ _____    ______ ____
ROOT
ATOM      1  C   UNL     1      -2.639   2.767  -5.240  0.00  0.00    +0.035 A 
ATOM      2  C   UNL     1      -2.469   1.930  -6.335  0.00  0.00    +0.023 A 
ATOM      3  C   UNL     1      -2.996   2.285  -7.561  0.00  0.00    +0.002 A 
ATOM      4  C   UNL     1      -3.692   3.472  -7.700  0.00  0.00    +0.002 A 
ATOM      5  C   UNL     1      -3.862   4.307  -6.611  0.00  0.00    -0.062 A 
ATOM      6  C   UNL     1      -3.344   3.955  -5.380  0.00  0.00    +0.025 A 
ENDROOT
BRANCH   1  10
ATOM      7  N   UNL     1      -0.372   1.496  -2.729  0.00  0.00    -0.292 N 
ATOM      8  C   UNL     1      -0.931   1.756  -3.928  0.00  0.00    +0.304 C 
ATOM      9  O   UNL     1      -0.374   1.400  -4.949  0.00  0.00    -0.252 OA
ATOM     10  N   UNL     1      -2.107   2.410  -3.995  0.00  0.00    -0.269 N 
ATOM     11  H   UNL     1      -0.816   1.780  -1.915  0.00  0.00    +0.151 HD
ATOM     12  H   UNL     1      -2.586   2.633  -3.182  0.00  0.00    +0.156 HD
BRANCH   7  13
ATOM     13  C   UNL     1       0.907   0.785  -2.656  0.00  0.00    +0.105 C 
ATOM     14  C   UNL     1       2.055   1.795  -2.710  0.00  0.00    +0.033 C 
BRANCH  13  17
ATOM     15  C   UNL     1       1.839  -2.227  -2.339  0.00  0.00    +0.068 C 
ATOM     16  C   UNL     1       1.390  -1.318  -1.224  0.00  0.00    +0.065 A 
ATOM     17  C   UNL     1       0.978   0.012  -1.365  0.00  0.00    +0.016 A 
ATOM     18  C   UNL     1       0.656   0.480  -0.137  0.00  0.00    +0.041 A 
ATOM     19  N   UNL     1       0.857  -0.517   0.750  0.00  0.00    -0.271 N 
ATOM     20  N   UNL     1       1.312  -1.637   0.043  0.00  0.00    -0.176 NA
ATOM     21  C   UNL     1       0.632  -0.443   2.195  0.00  0.00    +0.172 C 
ATOM     22  C   UNL     1       0.162   1.868   0.183  0.00  0.00    +0.065 C 
ENDBRANCH  13  17
ENDBRANCH   7  13
ENDBRANCH   1  10
BRANCH   5  23
ATOM     23  C   UNL     1      -4.621   5.600  -6.766  0.00  0.00    -0.042 C 
BRANCH  23  24
ATOM     24  N   UNL     1      -6.046   5.367  -6.500  0.00  0.00    +0.390 N 
ATOM     25  C   UNL     1      -6.255   5.057  -5.063  0.00  0.00    -0.077 C 
ATOM     26  C   UNL     1      -7.751   5.397  -4.841  0.00  0.00    -0.020 C 
ATOM     27  C   UNL     1      -7.955   6.650  -5.723  0.00  0.00    -0.008 C 
ATOM     28  C   UNL     1      -6.823   6.598  -6.765  0.00  0.00    +0.019 C 
ATOM     29  H   UNL     1      -6.388   4.610  -7.074  0.00  0.00    -0.080 HD
BRANCH  28  30
ATOM     30  C   UNL     1      -7.405   6.549  -8.154  0.00  0.00    +0.197 C 
ATOM     31  O   UNL     1      -7.200   5.587  -8.864  0.00  0.00    -0.278 OA
ATOM     32  N   UNL     1      -8.154   7.574  -8.607  0.00  0.00    -0.331 N 
ATOM     33  H   UNL     1      -8.318   8.343  -8.039  0.00  0.00    +0.145 HD
ATOM     34  H   UNL     1      -8.529   7.542  -9.501  0.00  0.00    +0.145 HD
ENDBRANCH  28  30
ENDBRANCH  23  24
ENDBRANCH   5  23
TORSDOF 6
