REMARK  Name = ZINC01375008
REMARK  14 active torsions:
REMARK  status: ('A' for Active; 'I' for Inactive)
REMARK    1  A    between atoms: C_1  and  C_2
REMARK    2  A    between atoms: C_2  and  C_3
REMARK    3  A    between atoms: C_3  and  C_5
REMARK    4  A    between atoms: C_3  and  N_14
REMARK    5  A    between atoms: N_9  and  C_10
REMARK    6  A    between atoms: C_10  and  C_11
REMARK    7  A    between atoms: C_10  and  C_12
REMARK    8  A    between atoms: C_10  and  C_13
REMARK    9  A    between atoms: N_14  and  C_15
REMARK   10  A    between atoms: N_14  and  C_25
REMARK   11  A    between atoms: C_15  and  C_16
REMARK   12  A    between atoms: C_25  and  C_26
REMARK   13  A    between atoms: C_30  and  C_39
REMARK   14  A    between atoms: C_31  and  C_38
REMARK                            x       y       z     vdW  Elec       q    Type
REMARK                         _______ _______ _______ _____ _____    ______ ____
ROOT
ATOM      1  N   UNL     1       0.798  -0.189   2.564  0.00  0.00    -0.284 NA
ENDROOT
BRANCH   1   2
ATOM      2  C   UNL     1      -0.666  -0.310   2.579  0.00  0.00    +0.127 C 
BRANCH   2   3
ATOM      3  C   UNL     1      -1.283   1.065   2.587  0.00  0.00    +0.169 A 
ATOM      4  N   UNL     1      -0.768   2.151   3.109  0.00  0.00    -0.112 NA
ATOM      5  N   UNL     1      -1.595   3.119   2.912  0.00  0.00    -0.023 NA
ATOM      6  N   UNL     1      -2.625   2.678   2.277  0.00  0.00    -0.043 NA
ATOM      7  N   UNL     1      -2.468   1.417   2.054  0.00  0.00    -0.222 N 
BRANCH   7   8
ATOM      8  C   UNL     1      -3.405   0.534   1.355  0.00  0.00    +0.059 C 
ATOM      9  C   UNL     1      -3.609  -0.743   2.173  0.00  0.00    +0.036 C 
ATOM     10  C   UNL     1      -4.747   1.248   1.181  0.00  0.00    +0.036 C 
ATOM     11  C   UNL     1      -2.837   0.173  -0.019  0.00  0.00    +0.036 C 
ENDBRANCH   7   8
ENDBRANCH   2   3
BRANCH   2  13
ATOM     12  C   UNL     1      -0.568  -2.505   3.769  0.00  0.00    +0.006 C 
ATOM     13  C   UNL     1      -1.103  -1.072   3.832  0.00  0.00    +0.023 C 
ENDBRANCH   2  13
ENDBRANCH   1   2
BRANCH   1  14
ATOM     14  C   UNL     1       1.334  -0.117   3.930  0.00  0.00    +0.120 C 
BRANCH  14  15
ATOM     15  C   UNL     1       1.065   1.251   4.503  0.00  0.00    -0.030 A 
ATOM     16  C   UNL     1       1.952   2.285   4.265  0.00  0.00    +0.009 A 
ATOM     17  C   UNL     1       1.710   3.541   4.788  0.00  0.00    +0.050 A 
ATOM     18  C   UNL     1       0.577   3.767   5.553  0.00  0.00    +0.166 A 
ATOM     19  C   UNL     1      -0.316   2.726   5.793  0.00  0.00    +0.167 A 
ATOM     20  C   UNL     1      -0.070   1.470   5.260  0.00  0.00    +0.054 A 
ATOM     21  O   UNL     1      -1.340   3.197   6.563  0.00  0.00    -0.453 OA
ATOM     22  C   UNL     1      -0.857   4.429   7.132  0.00  0.00    +0.466 C 
ATOM     23  O   UNL     1       0.113   4.891   6.173  0.00  0.00    -0.453 OA
ENDBRANCH  14  15
ENDBRANCH   1  14
BRANCH   1  24
ATOM     24  C   UNL     1       1.410  -1.296   1.817  0.00  0.00    +0.126 C 
BRANCH  24  25
ATOM     25  C   UNL     1       1.286  -1.032   0.338  0.00  0.00    +0.031 A 
ATOM     26  C   UNL     1       2.297  -0.418  -0.325  0.00  0.00    +0.020 A 
ATOM     27  C   UNL     1       2.146  -0.177  -1.762  0.00  0.00    -0.001 A 
ATOM     28  C   UNL     1       3.154   0.452  -2.500  0.00  0.00    +0.013 A 
ATOM     29  C   UNL     1       2.983   0.662  -3.838  0.00  0.00    -0.047 A 
ATOM     30  C   UNL     1       1.816   0.257  -4.473  0.00  0.00    -0.046 A 
ATOM     31  C   UNL     1       0.809  -0.364  -3.766  0.00  0.00    +0.030 A 
ATOM     32  C   UNL     1       0.962  -0.589  -2.402  0.00  0.00    +0.049 A 
ATOM     33  N   UNL     1      -0.028  -1.209  -1.670  0.00  0.00    -0.322 N 
ATOM     34  H   UNL     1      -0.844  -1.492  -2.113  0.00  0.00    +0.169 HD
ATOM     35  C   UNL     1       0.122  -1.431  -0.352  0.00  0.00    +0.254 A 
ATOM     36  O   UNL     1      -0.773  -1.986   0.262  0.00  0.00    -0.268 OA
ATOM     37  C   UNL     1       1.649   0.500  -5.951  0.00  0.00    +0.044 C 
ATOM     38  C   UNL     1       4.069   1.339  -4.633  0.00  0.00    +0.044 C 
ENDBRANCH  24  25
ENDBRANCH   1  24
TORSDOF 8
