REMARK  Name = ZINC21178139
REMARK  7 active torsions:
REMARK  status: ('A' for Active; 'I' for Inactive)
REMARK    1  A    between atoms: C_1  and  C_2
REMARK    2  A    between atoms: C_6  and  N_8
REMARK    3  A    between atoms: C_9  and  S_13
REMARK    4  A    between atoms: S_13  and  C_14
REMARK    5  A    between atoms: C_14  and  C_16
REMARK    6  A    between atoms: C_14  and  C_17
REMARK    7  A    between atoms: C_29  and  C_33
REMARK                            x       y       z     vdW  Elec       q    Type
REMARK                         _______ _______ _______ _____ _____    ______ ____
ROOT
ATOM      1  C   UNL     1      -2.937  -7.263   1.713  0.00  0.00    +0.124 A 
ATOM      2  N   UNL     1      -2.884  -7.213   0.357  0.00  0.00    -0.309 N 
ATOM      3  H   UNL     1      -2.244  -6.624  -0.072  0.00  0.00    +0.170 HD
ATOM      4  C   UNL     1      -3.702  -7.964  -0.404  0.00  0.00    +0.260 A 
ATOM      5  O   UNL     1      -3.642  -7.907  -1.621  0.00  0.00    -0.267 OA
ATOM      6  C   UNL     1      -4.644  -8.831   0.239  0.00  0.00    +0.075 A 
ATOM      7  C   UNL     1      -5.620  -9.729  -0.377  0.00  0.00    -0.023 A 
ATOM      8  C   UNL     1      -6.401 -10.448   0.456  0.00  0.00    -0.004 A 
ATOM      9  S   UNL     1      -5.890  -9.977   2.087  0.00  0.00    -0.073 S 
ATOM     10  C   UNL     1      -4.625  -8.815   1.643  0.00  0.00    +0.116 A 
ATOM     11  N   UNL     1      -3.781  -8.047   2.328  0.00  0.00    -0.225 NA
ATOM     12  C   UNL     1      -7.467 -11.431   0.079  0.00  0.00    +0.046 C 
ATOM     13  C   UNL     1      -7.295 -11.786  -1.405  0.00  0.00    -0.009 C 
ATOM     14  C   UNL     1      -7.124 -10.490  -2.203  0.00  0.00    +0.008 C 
ATOM     15  C   UNL     1      -5.764  -9.863  -1.890  0.00  0.00    +0.037 C 
ATOM     16  C   UNL     1      -8.533 -12.537  -1.900  0.00  0.00    +0.008 C 
ENDROOT
BRANCH   1  17
ATOM     17  C   UNL     1      -2.000  -6.404   2.522  0.00  0.00    +0.117 C 
ATOM     18  C   UNL     1      -0.758  -7.215   2.895  0.00  0.00    +0.027 C 
BRANCH  17  19
ATOM     19  S   UNL     1      -1.507  -4.958   1.543  0.00  0.00    -0.073 S 
BRANCH  19  21
ATOM     20  N   UNL     1       0.050  -2.798   2.395  0.00  0.00    -0.187 N 
ATOM     21  C   UNL     1      -0.549  -3.992   2.662  0.00  0.00    +0.215 A 
ATOM     22  N   UNL     1      -0.276  -4.286   3.916  0.00  0.00    -0.101 NA
ATOM     23  N   UNL     1       0.446  -3.367   4.447  0.00  0.00    -0.022 NA
ATOM     24  N   UNL     1       0.692  -2.435   3.592  0.00  0.00    -0.038 NA
BRANCH  20  30
ATOM     25  C   UNL     1      -0.018   1.503   0.010  0.00  0.00    +0.044 C 
ATOM     26  C   UNL     1       0.002  -0.004   0.002  0.00  0.00    -0.048 A 
ATOM     27  C   UNL     1       0.006  -0.688  -1.200  0.00  0.00    +0.003 A 
ATOM     28  C   UNL     1       0.024  -2.071  -1.212  0.00  0.00    +0.002 A 
ATOM     29  C   UNL     1       0.039  -2.773  -0.022  0.00  0.00    +0.028 A 
ATOM     30  C   UNL     1       0.035  -2.089   1.186  0.00  0.00    +0.070 A 
ATOM     31  C   UNL     1       0.023  -0.700   1.194  0.00  0.00    +0.031 A 
ENDBRANCH  20  30
ENDBRANCH  19  21
ENDBRANCH  17  19
ENDBRANCH   1  17
TORSDOF 4
