REMARK  Name = ZINC00749320
REMARK  11 active torsions:
REMARK  status: ('A' for Active; 'I' for Inactive)
REMARK    1  A    between atoms: C_1  and  C_2
REMARK    2  A    between atoms: C_2  and  C_3
REMARK    3  A    between atoms: C_6  and  N_9
REMARK    4  A    between atoms: N_12  and  C_13
REMARK    5  A    between atoms: C_13  and  C_14
REMARK    6  A    between atoms: C_17  and  S_28
REMARK    7  A    between atoms: N_18  and  C_19
REMARK    8  A    between atoms: C_22  and  N_25
REMARK    9  A    between atoms: S_28  and  C_29
REMARK   10  A    between atoms: C_29  and  C_30
REMARK   11  A    between atoms: C_35  and  C_36
REMARK                            x       y       z     vdW  Elec       q    Type
REMARK                         _______ _______ _______ _____ _____    ______ ____
ROOT
ATOM      1  C   UNL     1      -3.157   5.849   8.386  0.00  0.00    +0.156 A 
ATOM      2  N   UNL     1      -4.276   6.505   8.509  0.00  0.00    -0.132 NA
ATOM      3  N   UNL     1      -4.675   6.475   9.731  0.00  0.00    -0.122 NA
ATOM      4  C   UNL     1      -3.820   5.799  10.463  0.00  0.00    +0.196 A 
ATOM      5  N   UNL     1      -2.822   5.377   9.628  0.00  0.00    -0.273 N 
ENDROOT
BRANCH   5   6
ATOM      6  C   UNL     1      -1.693   4.620   9.970  0.00  0.00    +0.050 A 
ATOM      7  C   UNL     1      -1.536   3.337   9.463  0.00  0.00    +0.028 A 
ATOM      8  C   UNL     1      -0.420   2.596   9.799  0.00  0.00    +0.035 A 
ATOM      9  C   UNL     1       0.535   3.125  10.647  0.00  0.00    +0.126 A 
ATOM     10  C   UNL     1       0.378   4.400  11.159  0.00  0.00    +0.035 A 
ATOM     11  C   UNL     1      -0.733   5.149  10.822  0.00  0.00    +0.028 A 
BRANCH   9  12
ATOM     12  N   UNL     1       1.726   2.325  11.010  0.00  0.00    +0.056 N 
ATOM     13  O   UNL     1       2.567   2.791  11.758  0.00  0.00    -0.126 OA
ATOM     14  O   UNL     1       1.865   1.202  10.560  0.00  0.00    -0.126 OA
ENDBRANCH   9  12
ENDBRANCH   5   6
BRANCH   1  15
ATOM     15  C   UNL     1      -2.373   5.652   7.114  0.00  0.00    +0.182 C 
BRANCH  15  19
ATOM     16  N   UNL     1      -2.668   2.916   4.675  0.00  0.00    -0.269 N 
ATOM     17  C   UNL     1      -2.257   4.044   5.287  0.00  0.00    +0.304 C 
ATOM     18  O   UNL     1      -1.376   4.718   4.789  0.00  0.00    -0.252 OA
ATOM     19  N   UNL     1      -2.821   4.425   6.450  0.00  0.00    -0.292 N 
ATOM     20  H   UNL     1      -3.523   2.353   5.078  0.00  0.00    +0.156 HD
ATOM     21  H   UNL     1      -3.617   3.815   6.900  0.00  0.00    +0.151 HD
BRANCH  16  25
ATOM     22  C   UNL     1      -0.705   1.560   1.260  0.00  0.00    -0.048 A 
ATOM     23  C   UNL     1      -2.066   1.361   1.398  0.00  0.00    +0.005 A 
ATOM     24  C   UNL     1      -2.719   1.805   2.531  0.00  0.00    +0.023 A 
ATOM     25  C   UNL     1      -2.009   2.461   3.528  0.00  0.00    +0.035 A 
ATOM     26  C   UNL     1      -0.643   2.664   3.384  0.00  0.00    +0.023 A 
ATOM     27  C   UNL     1       0.005   2.213   2.251  0.00  0.00    +0.005 A 
BRANCH  22  29
ATOM     28  C   UNL     1       0.502  -0.359   0.255  0.00  0.00    +0.009 C 
ATOM     29  C   UNL     1       0.005   1.069   0.025  0.00  0.00    +0.032 C 
ENDBRANCH  22  29
ENDBRANCH  16  25
ENDBRANCH  15  19
ENDBRANCH   1  15
BRANCH   4  30
ATOM     30  S   UNL     1      -3.935   5.494  12.195  0.00  0.00    -0.081 S 
BRANCH  30  31
ATOM     31  C   UNL     1      -5.486   6.352  12.563  0.00  0.00    +0.112 C 
BRANCH  31  32
ATOM     32  C   UNL     1      -5.796   6.221  14.032  0.00  0.00    -0.034 A 
ATOM     33  C   UNL     1      -6.552   5.157  14.487  0.00  0.00    +0.005 A 
ATOM     34  C   UNL     1      -6.832   5.035  15.835  0.00  0.00    +0.000 A 
ATOM     35  C   UNL     1      -6.366   5.982  16.726  0.00  0.00    +0.000 A 
ATOM     36  C   UNL     1      -5.615   7.050  16.271  0.00  0.00    +0.003 A 
ATOM     37  C   UNL     1      -5.330   7.169  14.923  0.00  0.00    -0.046 A 
ATOM     38  C   UNL     1      -4.511   8.332  14.426  0.00  0.00    +0.044 C 
ENDBRANCH  31  32
ENDBRANCH  30  31
ENDBRANCH   4  30
TORSDOF 9
