REMARK  Name = ZINC02917993
REMARK  4 active torsions:
REMARK  status: ('A' for Active; 'I' for Inactive)
REMARK    1  A    between atoms: C_4  and  O_24
REMARK    2  A    between atoms: C_5  and  C_7
REMARK    3  A    between atoms: C_10  and  C_17
REMARK    4  A    between atoms: O_24  and  C_25
REMARK                            x       y       z     vdW  Elec       q    Type
REMARK                         _______ _______ _______ _____ _____    ______ ____
ROOT
ATOM      1  C   UNL     1       1.227  -2.187  -0.022  0.00  0.00    +0.150 C 
ATOM      2  C   UNL     1       0.484  -2.708  -1.258  0.00  0.00    +0.088 C 
ATOM      3  C   UNL     1      -1.004  -2.615  -1.074  0.00  0.00    +0.055 C 
ATOM      4  N   UNL     1      -1.581  -2.778   0.087  0.00  0.00    -0.215 NA
ATOM      5  C   UNL     1      -0.800  -2.967   1.184  0.00  0.00    +0.249 A 
ATOM      6  N   UNL     1       0.542  -2.697   1.166  0.00  0.00    -0.222 N 
ATOM      7  N   UNL     1       1.028  -3.000   2.433  0.00  0.00    -0.156 NA
ATOM      8  C   UNL     1       0.002  -3.405   3.145  0.00  0.00    +0.247 A 
ATOM      9  N   UNL     1      -1.101  -3.378   2.391  0.00  0.00    -0.198 NA
ENDROOT
BRANCH   3  10
ATOM     10  C   UNL     1      -1.845  -2.329  -2.247  0.00  0.00    -0.003 A 
ATOM     11  C   UNL     1      -1.259  -2.155  -3.505  0.00  0.00    +0.011 A 
ATOM     12  C   UNL     1      -2.053  -1.888  -4.600  0.00  0.00    +0.020 A 
ATOM     13  C   UNL     1      -3.428  -1.792  -4.456  0.00  0.00    +0.041 A 
ATOM     14  C   UNL     1      -4.015  -1.963  -3.212  0.00  0.00    +0.020 A 
ATOM     15  C   UNL     1      -3.234  -2.236  -2.110  0.00  0.00    +0.011 A 
ATOM     16 CL   UNL     1      -4.420  -1.454  -5.840  0.00  0.00    -0.084 Cl
ENDBRANCH   3  10
BRANCH   1  21
ATOM     17  C   UNL     1      -0.017   1.378   0.010  0.00  0.00    +0.001 A 
ATOM     18  C   UNL     1       1.170   2.088   0.002  0.00  0.00    +0.004 A 
ATOM     19  C   UNL     1       2.377   1.417  -0.013  0.00  0.00    +0.046 A 
ATOM     20  C   UNL     1       2.399   0.030  -0.021  0.00  0.00    +0.132 A 
ATOM     21  C   UNL     1       1.207  -0.680  -0.013  0.00  0.00    +0.019 A 
ATOM     22  C   UNL     1       0.002  -0.004   0.002  0.00  0.00    +0.009 A 
BRANCH  20  23
ATOM     23  O   UNL     1       3.586  -0.632  -0.037  0.00  0.00    -0.434 OA
BRANCH  23  24
ATOM     24  C   UNL     1       4.772   0.164  -0.045  0.00  0.00    +0.541 C 
ATOM     25  F   UNL     1       4.781   0.977  -1.183  0.00  0.00    -0.166 F 
ATOM     26  F   UNL     1       4.804   0.965   1.101  0.00  0.00    -0.166 F 
ENDBRANCH  23  24
ENDBRANCH  20  23
ENDBRANCH   1  21
TORSDOF 4
