REMARK  Name = ZINC01372611
REMARK  12 active torsions:
REMARK  status: ('A' for Active; 'I' for Inactive)
REMARK    1  A    between atoms: C_1  and  C_2
REMARK    2  A    between atoms: C_2  and  C_3
REMARK    3  A    between atoms: C_8  and  N_9
REMARK    4  A    between atoms: N_9  and  C_10
REMARK    5  A    between atoms: C_10  and  C_12
REMARK    6  A    between atoms: C_10  and  C_20
REMARK    7  A    between atoms: C_16  and  O_18
REMARK    8  A    between atoms: O_18  and  C_19
REMARK    9  A    between atoms: N_22  and  C_23
REMARK   10  A    between atoms: C_23  and  C_24
REMARK   11  A    between atoms: C_30  and  C_32
REMARK   12  A    between atoms: C_32  and  N_33
REMARK                            x       y       z     vdW  Elec       q    Type
REMARK                         _______ _______ _______ _____ _____    ______ ____
ROOT
ATOM      1  N   UNL     1      -2.223   0.130  -2.955  0.00  0.00    -0.254 N 
ATOM      2  C   UNL     1      -1.725  -0.720  -3.875  0.00  0.00    +0.242 C 
ATOM      3  O   UNL     1      -0.599  -0.565  -4.298  0.00  0.00    -0.273 OA
ENDROOT
BRANCH   1   9
ATOM      4  C   UNL     1      -4.595   0.580  -2.935  0.00  0.00    -0.026 A 
ATOM      5  C   UNL     1      -5.851   0.358  -2.405  0.00  0.00    +0.005 A 
ATOM      6  C   UNL     1      -6.013  -0.527  -1.355  0.00  0.00    +0.000 A 
ATOM      7  C   UNL     1      -4.919  -1.192  -0.832  0.00  0.00    +0.002 A 
ATOM      8  C   UNL     1      -3.661  -0.974  -1.358  0.00  0.00    +0.024 A 
ATOM      9  C   UNL     1      -3.495  -0.089  -2.416  0.00  0.00    +0.041 A 
BRANCH   4  11
ATOM     10  C   UNL     1      -4.255   0.763  -5.385  0.00  0.00    +0.009 C 
ATOM     11  C   UNL     1      -4.420   1.545  -4.080  0.00  0.00    +0.033 C 
ENDBRANCH   4  11
ENDBRANCH   1   9
BRANCH   1  12
ATOM     12  C   UNL     1      -1.431   1.283  -2.519  0.00  0.00    +0.197 C 
BRANCH  12  13
ATOM     13  C   UNL     1      -0.117   0.806  -1.956  0.00  0.00    -0.014 A 
ATOM     14  C   UNL     1      -0.084  -0.284  -1.105  0.00  0.00    +0.006 A 
ATOM     15  C   UNL     1       1.120  -0.723  -0.588  0.00  0.00    +0.004 A 
ATOM     16  C   UNL     1       2.294  -0.074  -0.919  0.00  0.00    +0.045 A 
ATOM     17  C   UNL     1       2.264   1.019  -1.772  0.00  0.00    +0.120 A 
ATOM     18  C   UNL     1       1.054   1.455  -2.295  0.00  0.00    +0.051 A 
BRANCH  17  19
ATOM     19  O   UNL     1       3.417   1.659  -2.099  0.00  0.00    -0.495 OA
ATOM     20  C   UNL     1       4.625   1.152  -1.528  0.00  0.00    +0.277 C 
ENDBRANCH  17  19
ENDBRANCH  12  13
BRANCH  12  21
ATOM     21  C   UNL     1      -2.188   2.038  -1.457  0.00  0.00    +0.239 C 
ATOM     22  O   UNL     1      -2.753   1.435  -0.569  0.00  0.00    -0.273 OA
ATOM     23  N   UNL     1      -2.236   3.385  -1.493  0.00  0.00    -0.309 N 
ATOM     24  H   UNL     1      -1.784   3.867  -2.203  0.00  0.00    +0.149 HD
BRANCH  23  25
ATOM     25  C   UNL     1      -2.971   4.120  -0.461  0.00  0.00    +0.139 C 
BRANCH  25  26
ATOM     26  C   UNL     1      -2.871   5.599  -0.729  0.00  0.00    -0.030 A 
ATOM     27  C   UNL     1      -1.830   6.330  -0.189  0.00  0.00    +0.005 A 
ATOM     28  C   UNL     1      -1.737   7.687  -0.435  0.00  0.00    +0.000 A 
ATOM     29  C   UNL     1      -2.686   8.313  -1.222  0.00  0.00    +0.000 A 
ATOM     30  C   UNL     1      -3.726   7.582  -1.763  0.00  0.00    +0.000 A 
ATOM     31  C   UNL     1      -3.816   6.224  -1.521  0.00  0.00    +0.005 A 
ENDBRANCH  25  26
ENDBRANCH  23  25
ENDBRANCH  12  21
ENDBRANCH   1  12
BRANCH   2  32
ATOM     32  C   UNL     1      -2.567  -1.864  -4.378  0.00  0.00    +0.242 C 
BRANCH  32  33
ATOM     33  N   UNL     1      -1.765  -2.708  -5.267  0.00  0.00    -0.235 N 
ATOM     34  C   UNL     1      -1.623  -2.568  -6.627  0.00  0.00    +0.090 A 
ATOM     35  C   UNL     1      -2.132  -1.675  -7.565  0.00  0.00    +0.029 A 
ATOM     36  C   UNL     1      -1.792  -1.808  -8.882  0.00  0.00    +0.002 A 
ATOM     37  C   UNL     1      -0.944  -2.827  -9.294  0.00  0.00    +0.002 A 
ATOM     38  C   UNL     1      -0.432  -3.715  -8.395  0.00  0.00    +0.032 A 
ATOM     39  C   UNL     1      -0.764  -3.601  -7.038  0.00  0.00    +0.113 A 
ATOM     40  N   UNL     1      -0.424  -4.310  -5.943  0.00  0.00    -0.129 NA
ATOM     41  N   UNL     1      -0.984  -3.813  -4.897  0.00  0.00    -0.064 NA
ENDBRANCH  32  33
ENDBRANCH   2  32
TORSDOF 10
