REMARK  Name = ZINC09588572
REMARK  13 active torsions:
REMARK  status: ('A' for Active; 'I' for Inactive)
REMARK    1  A    between atoms: C_1  and  C_2
REMARK    2  A    between atoms: C_2  and  N_3
REMARK    3  A    between atoms: N_3  and  C_4
REMARK    4  A    between atoms: N_3  and  S_6
REMARK    5  A    between atoms: C_4  and  C_5
REMARK    6  A    between atoms: S_6  and  C_9
REMARK    7  A    between atoms: C_12  and  C_33
REMARK    8  A    between atoms: C_13  and  N_15
REMARK    9  A    between atoms: C_16  and  C_18
REMARK   10  A    between atoms: C_18  and  O_19
REMARK   11  A    between atoms: O_19  and  C_20
REMARK   12  A    between atoms: C_20  and  C_22
REMARK   13  A    between atoms: C_31  and  O_32
REMARK                            x       y       z     vdW  Elec       q    Type
REMARK                         _______ _______ _______ _____ _____    ______ ____
ROOT
ATOM      1  N   UNL     1       4.806   1.562  -0.035  0.00  0.00    -0.282 N 
ATOM      2  C   UNL     1       3.654   1.938   0.553  0.00  0.00    +0.255 C 
ATOM      3  O   UNL     1       3.571   3.024   1.087  0.00  0.00    -0.272 OA
ATOM      4  H   UNL     1       4.899   0.665  -0.391  0.00  0.00    +0.155 HD
ENDROOT
BRANCH   1   9
ATOM      5  C   UNL     1       6.674   4.724  -0.214  0.00  0.00    +0.107 A 
ATOM      6  C   UNL     1       7.970   4.257  -0.328  0.00  0.00    +0.029 A 
ATOM      7  C   UNL     1       8.219   2.897  -0.345  0.00  0.00    +0.007 A 
ATOM      8  C   UNL     1       7.172   2.001  -0.248  0.00  0.00    -0.029 A 
ATOM      9  C   UNL     1       5.869   2.467  -0.134  0.00  0.00    +0.038 A 
ATOM     10  C   UNL     1       5.622   3.834  -0.122  0.00  0.00    +0.052 A 
ATOM     11  C   UNL     1       7.443   0.518  -0.267  0.00  0.00    +0.045 C 
BRANCH   5  12
ATOM     12  S   UNL     1       6.363   6.459  -0.193  0.00  0.00    +0.061 S 
ATOM     13  O   UNL     1       5.119   6.640   0.470  0.00  0.00    -0.153 OA
ATOM     14  O   UNL     1       7.561   7.081   0.251  0.00  0.00    -0.153 OA
BRANCH  12  15
ATOM     15  N   UNL     1       6.136   6.935  -1.763  0.00  0.00    -0.177 NA
BRANCH  15  17
ATOM     16  C   UNL     1       4.166   8.311  -2.217  0.00  0.00    +0.022 C 
ATOM     17  C   UNL     1       4.792   6.921  -2.345  0.00  0.00    +0.106 C 
ENDBRANCH  15  17
BRANCH  15  18
ATOM     18  C   UNL     1       7.279   7.370  -2.569  0.00  0.00    +0.106 C 
ATOM     19  C   UNL     1       7.806   6.189  -3.387  0.00  0.00    +0.022 C 
ENDBRANCH  15  18
ENDBRANCH  12  15
ENDBRANCH   5  12
ENDBRANCH   1   9
BRANCH   2  20
ATOM     20  C   UNL     1       2.468   1.008   0.549  0.00  0.00    +0.328 C 
BRANCH  20  21
ATOM     21  O   UNL     1       1.357   1.638   1.241  0.00  0.00    -0.452 OA
BRANCH  21  22
ATOM     22  C   UNL     1       0.211   0.933   1.327  0.00  0.00    +0.343 C 
ATOM     23  O   UNL     1       0.143  -0.177   0.837  0.00  0.00    -0.245 OA
BRANCH  22  24
ATOM     24  C   UNL     1      -0.961   1.512   2.009  0.00  0.00    +0.101 A 
ATOM     25  C   UNL     1      -0.876   2.776   2.572  0.00  0.00    +0.027 A 
ATOM     26  C   UNL     1      -1.995   3.322   3.215  0.00  0.00    -0.017 A 
ATOM     27  C   UNL     1      -1.946   4.605   3.792  0.00  0.00    +0.008 A 
ATOM     28  C   UNL     1      -3.047   5.106   4.414  0.00  0.00    +0.001 A 
ATOM     29  C   UNL     1      -4.227   4.367   4.490  0.00  0.00    +0.001 A 
ATOM     30  C   UNL     1      -4.312   3.124   3.943  0.00  0.00    +0.008 A 
ATOM     31  C   UNL     1      -3.196   2.571   3.292  0.00  0.00    -0.014 A 
ATOM     32  C   UNL     1      -3.255   1.290   2.719  0.00  0.00    +0.054 A 
ATOM     33  C   UNL     1      -2.160   0.772   2.092  0.00  0.00    +0.131 A 
BRANCH  33  34
ATOM     34  O   UNL     1      -2.224  -0.467   1.541  0.00  0.00    -0.506 OA
ATOM     35  H   UNL     1      -1.973  -1.179   2.145  0.00  0.00    +0.292 HD
ENDBRANCH  33  34
ENDBRANCH  22  24
ENDBRANCH  21  22
ENDBRANCH  20  21
ENDBRANCH   2  20
TORSDOF 10
