REMARK  Name = ZINC22061246
REMARK  16 active torsions:
REMARK  status: ('A' for Active; 'I' for Inactive)
REMARK    1  A    between atoms: C_1  and  C_2
REMARK    2  A    between atoms: C_2  and  C_3
REMARK    3  A    between atoms: C_2  and  C_4
REMARK    4  A    between atoms: C_2  and  C_23
REMARK    5  A    between atoms: C_4  and  O_5
REMARK    6  A    between atoms: O_5  and  C_6
REMARK    7  A    between atoms: C_8  and  O_22
REMARK    8  A    between atoms: C_10  and  O_21
REMARK    9  A    between atoms: C_12  and  O_20
REMARK   10  A    between atoms: C_14  and  C_17
REMARK   11  A    between atoms: C_24  and  C_25
REMARK   12  A    between atoms: C_26  and  C_27
REMARK   13  A    between atoms: C_27  and  N_28
REMARK   14  A    between atoms: N_28  and  C_29
REMARK   15  A    between atoms: N_28  and  C_30
REMARK   16  A    between atoms: C_30  and  C_31
REMARK                            x       y       z     vdW  Elec       q    Type
REMARK                         _______ _______ _______ _____ _____    ______ ____
ROOT
ATOM      1  C   UNL     1      -1.897  11.017  -7.538  0.00  0.00    +0.027 C 
ATOM      2  C   UNL     1      -0.974   9.913  -7.016  0.00  0.00    +0.050 C 
ATOM      3  C   UNL     1       0.457  10.447  -6.922  0.00  0.00    +0.027 C 
ENDROOT
BRANCH   2   4
ATOM      4  C   UNL     1      -1.427   9.485  -5.683  0.00  0.00    -0.089 C 
ATOM      5  C   UNL     1      -1.788   9.143  -4.620  0.00  0.00    -0.074 C 
BRANCH   5   6
ATOM      6  C   UNL     1      -2.229   8.726  -3.322  0.00  0.00    +0.054 C 
ATOM      7  C   UNL     1      -1.572   7.771  -2.673  0.00  0.00    -0.037 C 
BRANCH   7   8
ATOM      8  C   UNL     1      -2.036   7.332  -1.308  0.00  0.00    -0.050 C 
BRANCH   8   9
ATOM      9  N   UNL     1      -2.259   5.880  -1.310  0.00  0.00    +0.383 N 
ATOM     10  C   UNL     1      -3.377   5.520  -2.191  0.00  0.00    -0.095 C 
ATOM     11  H   UNL     1      -1.351   5.399  -1.703  0.00  0.00    -0.081 HD
BRANCH   9  12
ATOM     12  C   UNL     1      -2.480   5.380   0.054  0.00  0.00    -0.042 C 
BRANCH  12  13
ATOM     13  C   UNL     1      -2.460   3.873   0.045  0.00  0.00    -0.056 A 
ATOM     14  C   UNL     1      -3.628   3.173   0.036  0.00  0.00    +0.002 A 
ATOM     15  C   UNL     1      -3.629   1.779   0.029  0.00  0.00    +0.001 A 
ATOM     16  C   UNL     1      -2.462   1.078   0.019  0.00  0.00    +0.008 A 
ATOM     17  C   UNL     1      -1.237   1.766   0.018  0.00  0.00    -0.018 A 
ATOM     18  C   UNL     1      -1.236   3.183   0.031  0.00  0.00    -0.017 A 
ATOM     19  C   UNL     1      -0.011   3.871   0.023  0.00  0.00    +0.009 A 
ATOM     20  C   UNL     1       1.155   3.170   0.008  0.00  0.00    +0.001 A 
ATOM     21  C   UNL     1       1.155   1.776   0.001  0.00  0.00    +0.001 A 
ATOM     22  C   UNL     1      -0.013   1.076   0.008  0.00  0.00    +0.008 A 
ENDBRANCH  12  13
ENDBRANCH   9  12
ENDBRANCH   8   9
ENDBRANCH   7   8
ENDBRANCH   5   6
ENDBRANCH   2   4
BRANCH   2  23
ATOM     23  C   UNL     1      -1.012   8.722  -7.975  0.00  0.00    +0.182 C 
BRANCH  23  24
ATOM     24  O   UNL     1      -0.572   9.138  -9.270  0.00  0.00    -0.347 OA
BRANCH  24  25
ATOM     25  C   UNL     1      -0.569   8.094 -10.246  0.00  0.00    +0.282 C 
ATOM     26  C   UNL     1      -0.203   8.676 -11.614  0.00  0.00    +0.201 C 
ATOM     27  C   UNL     1      -0.143   7.542 -12.642  0.00  0.00    +0.179 C 
ATOM     28  C   UNL     1       0.865   6.490 -12.169  0.00  0.00    +0.185 C 
ATOM     29  C   UNL     1       0.457   5.993 -10.779  0.00  0.00    +0.265 C 
ATOM     30  O   UNL     1       0.391   7.101  -9.879  0.00  0.00    -0.331 OA
BRANCH  29  31
ATOM     31  C   UNL     1       1.477   5.002 -10.281  0.00  0.00    +0.387 C 
ATOM     32  O   UNL     1       2.149   5.261  -9.311  0.00  0.00    -0.243 OA
ATOM     33  O   UNL     1       1.639   3.830 -10.916  0.00  0.00    -0.243 OA
ENDBRANCH  29  31
BRANCH  28  34
ATOM     34  O   UNL     1       2.169   7.072 -12.104  0.00  0.00    -0.386 OA
ATOM     35  H   UNL     1       3.027   6.464 -11.783  0.00  0.00    +0.210 HD
ENDBRANCH  28  34
BRANCH  27  36
ATOM     36  O   UNL     1      -1.434   6.943 -12.771  0.00  0.00    -0.386 OA
ATOM     37  H   UNL     1      -1.585   6.106 -13.469  0.00  0.00    +0.210 HD
ENDBRANCH  27  36
BRANCH  26  38
ATOM     38  O   UNL     1      -1.194   9.627 -12.009  0.00  0.00    -0.384 OA
ATOM     39  H   UNL     1      -1.099  10.152 -12.971  0.00  0.00    +0.210 HD
ENDBRANCH  26  38
ENDBRANCH  24  25
ENDBRANCH  23  24
ENDBRANCH   2  23
TORSDOF 13
