REMARK  Name = ZINC32125130
REMARK  10 active torsions:
REMARK  status: ('A' for Active; 'I' for Inactive)
REMARK    1  A    between atoms: C_1  and  C_2
REMARK    2  A    between atoms: C_2  and  C_3
REMARK    3  A    between atoms: C_2  and  C_4
REMARK    4  A    between atoms: N_9  and  C_12
REMARK    5  A    between atoms: C_15  and  N_18
REMARK    6  A    between atoms: N_18  and  C_19
REMARK    7  A    between atoms: C_19  and  N_21
REMARK    8  A    between atoms: C_22  and  C_24
REMARK    9  A    between atoms: C_33  and  O_34
REMARK   10  A    between atoms: O_34  and  C_35
REMARK                            x       y       z     vdW  Elec       q    Type
REMARK                         _______ _______ _______ _____ _____    ______ ____
ROOT
ATOM      1  N   UNL     1      -5.074   4.804   0.703  0.00  0.00    -0.297 N 
ATOM      2  H   UNL     1      -4.906   3.957   0.023  0.00  0.00    +0.154 HD
ENDROOT
BRANCH   1   6
ATOM      3  C   UNL     1      -8.715   6.837   0.641  0.00  0.00    +0.030 A 
ATOM      4  C   UNL     1      -7.524   7.548   0.683  0.00  0.00    +0.025 A 
ATOM      5  C   UNL     1      -6.318   6.875   0.704  0.00  0.00    +0.025 A 
ATOM      6  C   UNL     1      -6.297   5.487   0.682  0.00  0.00    +0.033 A 
ATOM      7  C   UNL     1      -7.489   4.776   0.634  0.00  0.00    +0.025 A 
ATOM      8  C   UNL     1      -8.695   5.448   0.620  0.00  0.00    +0.025 A 
BRANCH   3  14
ATOM      9  C   UNL     1     -13.572   8.516   2.166  0.00  0.00    +0.218 C 
ATOM     10  O   UNL     1     -14.463   7.698   2.074  0.00  0.00    -0.275 OA
ATOM     11  N   UNL     1     -12.462   8.392   1.412  0.00  0.00    -0.298 N 
ATOM     12  C   UNL     1     -12.368   7.357   0.372  0.00  0.00    +0.126 C 
ATOM     13  C   UNL     1     -11.064   6.578   0.576  0.00  0.00    +0.124 C 
ATOM     14  N   UNL     1      -9.937   7.519   0.620  0.00  0.00    -0.327 N 
ATOM     15  C   UNL     1     -10.050   8.432   1.764  0.00  0.00    +0.124 C 
ATOM     16  C   UNL     1     -11.312   9.287   1.609  0.00  0.00    +0.126 C 
BRANCH   9  18
ATOM     17  C   UNL     1     -15.187  10.018   3.301  0.00  0.00    +0.017 C 
ATOM     18  C   UNL     1     -13.707   9.671   3.125  0.00  0.00    +0.069 C 
ATOM     19  C   UNL     1     -13.109   9.283   4.479  0.00  0.00    +0.017 C 
ENDBRANCH   9  18
ENDBRANCH   3  14
ENDBRANCH   1   6
BRANCH   1  20
ATOM     20  C   UNL     1      -4.103   5.187   1.556  0.00  0.00    +0.141 C 
ATOM     21  S   UNL     1      -4.332   6.560   2.553  0.00  0.00    -0.018 S 
BRANCH  20  22
ATOM     22  N   UNL     1      -2.953   4.488   1.625  0.00  0.00    -0.263 N 
ATOM     23  C   UNL     1      -1.982   4.870   2.478  0.00  0.00    +0.253 C 
ATOM     24  O   UNL     1      -2.144   5.846   3.186  0.00  0.00    -0.270 OA
ATOM     25  H   UNL     1      -2.806   3.606   0.984  0.00  0.00    +0.157 HD
BRANCH  23  26
ATOM     26  C   UNL     1      -0.723   4.106   2.553  0.00  0.00    +0.079 A 
ATOM     27  C   UNL     1      -0.540   2.998   1.740  0.00  0.00    +0.025 A 
ATOM     28  C   UNL     1       0.656   2.272   1.820  0.00  0.00    -0.017 A 
ATOM     29  C   UNL     1       0.873   1.140   1.014  0.00  0.00    +0.008 A 
ATOM     30  C   UNL     1       2.048   0.459   1.110  0.00  0.00    +0.001 A 
ATOM     31  C   UNL     1       3.042   0.867   1.998  0.00  0.00    +0.001 A 
ATOM     32  C   UNL     1       2.868   1.957   2.794  0.00  0.00    +0.008 A 
ATOM     33  C   UNL     1       1.669   2.687   2.724  0.00  0.00    -0.014 A 
ATOM     34  C   UNL     1       1.462   3.816   3.533  0.00  0.00    +0.055 A 
ATOM     35  C   UNL     1       0.290   4.510   3.448  0.00  0.00    +0.133 A 
BRANCH  35  36
ATOM     36  O   UNL     1       0.098   5.600   4.233  0.00  0.00    -0.494 OA
ATOM     37  C   UNL     1       1.160   5.959   5.119  0.00  0.00    +0.277 C 
ENDBRANCH  35  36
ENDBRANCH  23  26
ENDBRANCH  20  22
ENDBRANCH   1  20
TORSDOF 7
