REMARK  Name = ZINC15359226
REMARK  5 active torsions:
REMARK  status: ('A' for Active; 'I' for Inactive)
REMARK    1  A    between atoms: C_1  and  C_2
REMARK    2  A    between atoms: C_5  and  C_7
REMARK    3  A    between atoms: C_10  and  O_13
REMARK    4  A    between atoms: O_13  and  S_14
REMARK    5  A    between atoms: S_14  and  C_17
REMARK                            x       y       z     vdW  Elec       q    Type
REMARK                         _______ _______ _______ _____ _____    ______ ____
ROOT
ATOM      1  C   UNL     1       0.053  -2.913   2.312  0.00  0.00    +0.007 A 
ATOM      2  C   UNL     1       0.046  -2.404   3.612  0.00  0.00    +0.014 A 
ATOM      3  C   UNL     1       0.063  -3.265   4.688  0.00  0.00    +0.049 A 
ATOM      4  C   UNL     1       0.086  -4.638   4.480  0.00  0.00    +0.157 A 
ATOM      5  C   UNL     1       0.093  -5.149   3.189  0.00  0.00    +0.049 A 
ATOM      6  C   UNL     1       0.071  -4.294   2.108  0.00  0.00    +0.014 A 
ENDROOT
BRANCH   1  11
ATOM      7  C   UNL     1      -0.018   1.503   0.010  0.00  0.00    +0.066 C 
ATOM      8  C   UNL     1       0.002  -0.004   0.002  0.00  0.00    +0.046 A 
ATOM      9  C   UNL     1       0.005  -0.678  -1.178  0.00  0.00    +0.070 A 
ATOM     10  S   UNL     1       0.031  -2.368  -0.593  0.00  0.00    -0.075 S 
ATOM     11  C   UNL     1       0.035  -1.993   1.155  0.00  0.00    +0.108 A 
ATOM     12  N   UNL     1       0.022  -0.667   1.135  0.00  0.00    -0.244 NA
ENDBRANCH   1  11
BRANCH   4  13
ATOM     13  O   UNL     1       0.103  -5.484   5.543  0.00  0.00    -0.342 OA
BRANCH  13  14
ATOM     14  S   UNL     1      -1.280  -5.893   6.030  0.00  0.00    +0.151 S 
ATOM     15  O   UNL     1      -1.090  -6.594   7.252  0.00  0.00    -0.131 OA
ATOM     16  O   UNL     1      -2.103  -4.738   5.935  0.00  0.00    -0.131 OA
BRANCH  14  17
ATOM     17  C   UNL     1      -1.915  -7.061   4.873  0.00  0.00    +0.131 A 
ATOM     18  C   UNL     1      -2.647  -6.626   3.784  0.00  0.00    +0.031 A 
ATOM     19  C   UNL     1      -3.145  -7.541   2.875  0.00  0.00    +0.005 A 
ATOM     20  C   UNL     1      -2.914  -8.891   3.056  0.00  0.00    +0.038 A 
ATOM     21  C   UNL     1      -2.182  -9.328   4.147  0.00  0.00    +0.125 A 
ATOM     22  C   UNL     1      -1.677  -8.410   5.053  0.00  0.00    +0.068 A 
ATOM     23  F   UNL     1      -1.955 -10.648   4.325  0.00  0.00    -0.205 F 
ENDBRANCH  14  17
ENDBRANCH  13  14
ENDBRANCH   4  13
TORSDOF 4
