REMARK  Name = ZINC39683726
REMARK  5 active torsions:
REMARK  status: ('A' for Active; 'I' for Inactive)
REMARK    1  A    between atoms: C_5  and  C_7
REMARK    2  A    between atoms: C_7  and  C_8
REMARK    3  A    between atoms: C_8  and  N_9
REMARK    4  A    between atoms: C_10  and  C_12
REMARK    5  A    between atoms: C_23  and  C_25
REMARK                            x       y       z     vdW  Elec       q    Type
REMARK                         _______ _______ _______ _____ _____    ______ ____
ROOT
ATOM      1  C   UNL     1       1.508  -7.066   2.255  0.00  0.00    +0.100 C 
ATOM      2  C   UNL     1       2.805  -7.207   1.426  0.00  0.00    +0.121 C 
ATOM      3  N   UNL     1       3.877  -7.380   2.434  0.00  0.00    -0.296 N 
ATOM      4  C   UNL     1       3.273  -8.253   3.469  0.00  0.00    +0.115 C 
ATOM      5  C   UNL     1       1.819  -7.757   3.593  0.00  0.00    -0.004 C 
ATOM      6  C   UNL     1       1.699  -6.760   4.742  0.00  0.00    -0.010 C 
ATOM      7  C   UNL     1       1.956  -7.483   6.068  0.00  0.00    -0.082 C 
ATOM      8  N   UNL     1       0.982  -8.569   6.232  0.00  0.00    +0.379 N 
ATOM      9  C   UNL     1       1.165  -9.570   5.174  0.00  0.00    -0.082 C 
ATOM     10  C   UNL     1       0.875  -8.935   3.811  0.00  0.00    -0.010 C 
ATOM     11  C   UNL     1       5.121  -6.861   2.415  0.00  0.00    +0.247 C 
ATOM     12  O   UNL     1       5.430  -6.056   1.559  0.00  0.00    -0.270 OA
ATOM     13  H   UNL     1       1.114  -9.005   7.132  0.00  0.00    -0.086 HD
ATOM     14  H   UNL     1       0.048  -8.192   6.178  0.00  0.00    -0.086 HD
ENDROOT
BRANCH  11  15
ATOM     15  C   UNL     1       6.111  -7.271   3.438  0.00  0.00    +0.040 A 
ATOM     16  C   UNL     1       5.939  -8.449   4.171  0.00  0.00    +0.033 A 
ATOM     17  C   UNL     1       6.888  -8.794   5.115  0.00  0.00    +0.111 A 
ATOM     18  N   UNL     1       7.940  -8.029   5.328  0.00  0.00    -0.263 NA
ATOM     19  C   UNL     1       8.139  -6.911   4.659  0.00  0.00    +0.111 A 
ATOM     20  C   UNL     1       7.245  -6.494   3.693  0.00  0.00    +0.033 A 
ENDBRANCH  11  15
BRANCH   1  22
ATOM     21  N   UNL     1      -0.083  -5.237   2.743  0.00  0.00    -0.315 N 
ATOM     22  C   UNL     1       1.184  -5.611   2.478  0.00  0.00    +0.218 C 
ATOM     23  O   UNL     1       2.063  -4.778   2.419  0.00  0.00    -0.275 OA
ATOM     24  H   UNL     1      -0.786  -5.903   2.790  0.00  0.00    +0.149 HD
BRANCH  21  25
ATOM     25  C   UNL     1      -0.399  -3.822   2.960  0.00  0.00    +0.109 C 
BRANCH  25  26
ATOM     26  C   UNL     1      -1.896  -3.671   3.239  0.00  0.00    +0.055 C 
BRANCH  26  31
ATOM     27  C   UNL     1      -2.564  -0.373   4.952  0.00  0.00    +0.000 A 
ATOM     28  C   UNL     1      -2.817   0.453   3.872  0.00  0.00    +0.001 A 
ATOM     29  C   UNL     1      -2.772  -0.056   2.588  0.00  0.00    +0.015 A 
ATOM     30  C   UNL     1      -2.474  -1.391   2.382  0.00  0.00    +0.021 A 
ATOM     31  C   UNL     1      -2.220  -2.216   3.462  0.00  0.00    -0.032 A 
ATOM     32  C   UNL     1      -2.265  -1.707   4.747  0.00  0.00    +0.005 A 
ATOM     33 BR   UNL     1      -2.413  -2.087   0.625  0.00  0.00    -0.050 Br
ENDBRANCH  26  31
ENDBRANCH  25  26
ENDBRANCH  21  25
ENDBRANCH   1  22
TORSDOF 5
