REMARK  Name = ZINC16526241
REMARK  5 active torsions:
REMARK  status: ('A' for Active; 'I' for Inactive)
REMARK    1  A    between atoms: C_10  and  C_11
REMARK    2  A    between atoms: N_13  and  C_14
REMARK    3  A    between atoms: C_14  and  N_16
REMARK    4  A    between atoms: N_19  and  C_22
REMARK    5  A    between atoms: C_23  and  N_29
REMARK                            x       y       z     vdW  Elec       q    Type
REMARK                         _______ _______ _______ _____ _____    ______ ____
ROOT
ATOM      1  C   UNL     1       5.782   5.552   0.047  0.00  0.00    +0.139 C 
ATOM      2  S   UNL     1       5.957   6.354   1.550  0.00  0.00    -0.018 S 
ENDROOT
BRANCH   1   3
ATOM      3  N   UNL     1       5.368   4.270   0.012  0.00  0.00    -0.309 N 
ATOM      4  C   UNL     1       5.101   3.598  -1.269  0.00  0.00    +0.125 C 
ATOM      5  C   UNL     1       3.708   2.962  -1.204  0.00  0.00    +0.124 C 
ATOM      6  N   UNL     1       3.623   2.097  -0.019  0.00  0.00    -0.324 N 
ATOM      7  C   UNL     1       3.776   2.873   1.219  0.00  0.00    +0.124 C 
ATOM      8  C   UNL     1       5.171   3.506   1.253  0.00  0.00    +0.125 C 
BRANCH   6   9
ATOM      9  C   UNL     1       2.428   1.373  -0.013  0.00  0.00    +0.079 A 
ATOM     10  C   UNL     1       2.456  -0.015  -0.019  0.00  0.00    +0.149 A 
ATOM     11  C   UNL     1       1.273  -0.729  -0.012  0.00  0.00    +0.035 A 
ATOM     12  C   UNL     1       0.062  -0.062   0.001  0.00  0.00    +0.004 A 
ATOM     13  C   UNL     1       0.030   1.321   0.008  0.00  0.00    +0.022 A 
ATOM     14  C   UNL     1       1.209   2.041   0.001  0.00  0.00    +0.064 A 
ATOM     15 CL   UNL     1       1.169   3.776   0.008  0.00  0.00    -0.082 Cl
BRANCH  10  16
ATOM     16  N   UNL     1       3.752  -0.731  -0.033  0.00  0.00    +0.058 N 
ATOM     17  O   UNL     1       3.775  -1.948  -0.038  0.00  0.00    -0.126 OA
ATOM     18  O   UNL     1       4.795  -0.101  -0.039  0.00  0.00    -0.126 OA
ENDBRANCH  10  16
ENDBRANCH   6   9
ENDBRANCH   1   3
BRANCH   1  21
ATOM     19  C   UNL     1       6.574   7.447  -1.062  0.00  0.00    +0.250 C 
ATOM     20  O   UNL     1       6.790   7.983   0.008  0.00  0.00    -0.270 OA
ATOM     21  N   UNL     1       6.059   6.203  -1.100  0.00  0.00    -0.264 N 
ATOM     22  H   UNL     1       5.886   5.776  -1.954  0.00  0.00    +0.157 HD
BRANCH  19  32
ATOM     23  C   UNL     1       8.798  11.929  -2.322  0.00  0.00    +0.001 A 
ATOM     24  C   UNL     1       8.529  11.288  -1.115  0.00  0.00    +0.001 A 
ATOM     25  C   UNL     1       7.910  10.073  -1.091  0.00  0.00    +0.009 A 
ATOM     26  C   UNL     1       7.536   9.463  -2.294  0.00  0.00    -0.006 A 
ATOM     27  C   UNL     1       7.813  10.110  -3.523  0.00  0.00    -0.017 A 
ATOM     28  C   UNL     1       8.452  11.362  -3.510  0.00  0.00    +0.008 A 
ATOM     29  C   UNL     1       7.440   9.492  -4.728  0.00  0.00    +0.008 A 
ATOM     30  C   UNL     1       6.822   8.280  -4.725  0.00  0.00    +0.001 A 
ATOM     31  C   UNL     1       6.535   7.607  -3.545  0.00  0.00    +0.014 A 
ATOM     32  C   UNL     1       6.877   8.159  -2.316  0.00  0.00    +0.045 A 
ENDBRANCH  19  32
ENDBRANCH   1  21
TORSDOF 5
