REMARK  Name = ZINC21798336
REMARK  6 active torsions:
REMARK  status: ('A' for Active; 'I' for Inactive)
REMARK    1  A    between atoms: C_1  and  C_2
REMARK    2  A    between atoms: C_2  and  C_4
REMARK    3  A    between atoms: C_2  and  N_12
REMARK    4  A    between atoms: C_7  and  O_11
REMARK    5  A    between atoms: C_9  and  O_10
REMARK    6  A    between atoms: N_12  and  C_13
REMARK                            x       y       z     vdW  Elec       q    Type
REMARK                         _______ _______ _______ _____ _____    ______ ____
ROOT
ATOM      1  C   UNL     1      -1.761   2.554   1.421  0.00  0.00    +0.033 C 
ATOM      2  C   UNL     1      -1.332   2.113   0.020  0.00  0.00    +0.101 C 
ENDROOT
BRANCH   2   3
ATOM      3  C   UNL     1      -0.042   1.340   0.110  0.00  0.00    +0.014 A 
ATOM      4  C   UNL     1      -0.068  -0.037   0.225  0.00  0.00    +0.012 A 
ATOM      5  C   UNL     1       1.113  -0.749   0.302  0.00  0.00    +0.046 A 
ATOM      6  C   UNL     1       2.330  -0.083   0.263  0.00  0.00    +0.120 A 
ATOM      7  C   UNL     1       2.359   1.298   0.147  0.00  0.00    +0.091 A 
ATOM      8  C   UNL     1       1.172   2.010   0.071  0.00  0.00    +0.125 A 
BRANCH   8   9
ATOM      9  O   UNL     1       1.198   3.364  -0.043  0.00  0.00    -0.506 OA
ATOM     10  H   UNL     1       2.161   3.896  -0.073  0.00  0.00    +0.292 HD
ENDBRANCH   8   9
BRANCH   6  11
ATOM     11  O   UNL     1       3.492  -0.784   0.338  0.00  0.00    -0.507 OA
ATOM     12  H   UNL     1       4.456  -0.256   0.307  0.00  0.00    +0.292 HD
ENDBRANCH   6  11
ENDBRANCH   2   3
BRANCH   2  13
ATOM     13  N   UNL     1      -2.372   1.261  -0.564  0.00  0.00    -0.336 N 
ATOM     14  H   UNL     1      -2.301   0.167  -0.473  0.00  0.00    +0.147 HD
BRANCH  13  15
ATOM     15  C   UNL     1      -3.454   1.839  -1.235  0.00  0.00    +0.048 A 
ATOM     16  C   UNL     1      -3.544   3.220  -1.349  0.00  0.00    +0.045 A 
ATOM     17  C   UNL     1      -4.614   3.789  -2.013  0.00  0.00    +0.061 A 
ATOM     18  C   UNL     1      -5.596   2.983  -2.565  0.00  0.00    +0.061 A 
ATOM     19  C   UNL     1      -5.509   1.607  -2.452  0.00  0.00    +0.043 A 
ATOM     20  C   UNL     1      -4.438   1.033  -1.794  0.00  0.00    +0.063 A 
ATOM     21 CL   UNL     1      -4.325  -0.694  -1.659  0.00  0.00    -0.082 Cl
ATOM     22 CL   UNL     1      -6.939   3.700  -3.399  0.00  0.00    -0.082 Cl
ATOM     23 CL   UNL     1      -4.728   5.516  -2.157  0.00  0.00    -0.082 Cl
ENDBRANCH  13  15
ENDBRANCH   2  13
TORSDOF 5
