REMARK  Name = ZINC02769566
REMARK  6 active torsions:
REMARK  status: ('A' for Active; 'I' for Inactive)
REMARK    1  A    between atoms: C_5  and  O_7
REMARK    2  A    between atoms: O_7  and  C_8
REMARK    3  A    between atoms: C_8  and  C_9
REMARK    4  A    between atoms: C_12  and  C_14
REMARK    5  A    between atoms: C_16  and  C_27
REMARK    6  A    between atoms: C_17  and  N_26
REMARK                            x       y       z     vdW  Elec       q    Type
REMARK                         _______ _______ _______ _____ _____    ______ ____
ROOT
ATOM      1  C   UNL     1       3.838   1.841  -0.521  0.00  0.00    +0.137 C 
ATOM      2  C   UNL     1       4.712   1.148  -1.529  0.00  0.00    +0.101 C 
ATOM      3  C   UNL     1       4.342  -0.046  -2.052  0.00  0.00    +0.198 C 
ATOM      4  O   UNL     1       3.197  -0.643  -1.688  0.00  0.00    -0.445 OA
ATOM      5  C   UNL     1       2.201   0.087  -1.153  0.00  0.00    +0.115 C 
ATOM      6  C   UNL     1       2.438   1.279  -0.575  0.00  0.00    +0.049 C 
ATOM      7  C   UNL     1       1.398   2.034  -0.000  0.00  0.00    +0.163 C 
ATOM      8  O   UNL     1       1.649   3.115   0.495  0.00  0.00    -0.292 OA
ATOM      9  C   UNL     1      -0.019   1.528   0.010  0.00  0.00    +0.080 C 
ATOM     10  C   UNL     1       0.002  -0.004   0.002  0.00  0.00    +0.016 C 
ATOM     11  C   UNL     1       0.798  -0.471  -1.218  0.00  0.00    +0.075 C 
ENDROOT
BRANCH   1  15
ATOM     12  C   UNL     1       5.117   0.640   2.682  0.00  0.00    +0.142 A 
ATOM     13  C   UNL     1       5.280   1.962   2.869  0.00  0.00    +0.048 A 
ATOM     14  C   UNL     1       4.828   2.601   1.691  0.00  0.00    +0.046 A 
ATOM     15  C   UNL     1       4.408   1.632   0.858  0.00  0.00    +0.118 A 
ATOM     16  O   UNL     1       4.588   0.446   1.462  0.00  0.00    -0.460 OA
BRANCH  12  17
ATOM     17  C   UNL     1       5.467  -0.440   3.672  0.00  0.00    +0.303 C 
BRANCH  17  18
ATOM     18  O   UNL     1       4.340  -0.703   4.510  0.00  0.00    -0.483 OA
BRANCH  18  23
ATOM     19  C   UNL     1       5.847  -3.300   6.564  0.00  0.00    +0.004 A 
ATOM     20  C   UNL     1       4.795  -3.603   7.409  0.00  0.00    +0.001 A 
ATOM     21  C   UNL     1       3.591  -2.937   7.284  0.00  0.00    +0.019 A 
ATOM     22  C   UNL     1       3.435  -1.965   6.313  0.00  0.00    +0.059 A 
ATOM     23  C   UNL     1       4.490  -1.658   5.465  0.00  0.00    +0.135 A 
ATOM     24  C   UNL     1       5.696  -2.333   5.589  0.00  0.00    +0.047 A 
ATOM     25 BR   UNL     1       1.787  -1.054   6.142  0.00  0.00    -0.047 Br
ENDBRANCH  18  23
ENDBRANCH  17  18
ENDBRANCH  12  17
ENDBRANCH   1  15
BRANCH   3  26
ATOM     26  N   UNL     1       5.155  -0.657  -2.974  0.00  0.00    -0.328 N 
ATOM     27  H   UNL     1       5.985  -0.234  -3.244  0.00  0.00    +0.145 HD
ATOM     28  H   UNL     1       4.900  -1.512  -3.354  0.00  0.00    +0.145 HD
ENDBRANCH   3  26
BRANCH   2  29
ATOM     29  C   UNL     1       5.944   1.754  -1.939  0.00  0.00    +0.101 C 
ATOM     30  N   UNL     1       6.920   2.234  -2.264  0.00  0.00    -0.191 NA
ENDBRANCH   2  29
TORSDOF 6
