REMARK  Name = ZINC12243041
REMARK  11 active torsions:
REMARK  status: ('A' for Active; 'I' for Inactive)
REMARK    1  A    between atoms: C_1  and  C_2
REMARK    2  A    between atoms: C_2  and  N_3
REMARK    3  A    between atoms: N_3  and  C_4
REMARK    4  A    between atoms: C_4  and  C_5
REMARK    5  A    between atoms: C_5  and  N_74
REMARK    6  A    between atoms: C_6  and  N_74
REMARK    7  A    between atoms: C_7  and  N_74
REMARK    8  A    between atoms: C_8  and  C_10
REMARK    9  A    between atoms: N_13  and  C_16
REMARK   10  A    between atoms: N_24  and  C_27
REMARK   11  A    between atoms: C_27  and  C_28
REMARK                            x       y       z     vdW  Elec       q    Type
REMARK                         _______ _______ _______ _____ _____    ______ ____
ROOT
ATOM      1  C   UNL     1       0.863   2.336  -0.713  0.00  0.00    +0.043 A 
ATOM      2  C   UNL     1       2.026   1.561  -0.693  0.00  0.00    +0.024 A 
ATOM      3  C   UNL     1       1.952   0.191  -0.821  0.00  0.00    +0.003 A 
ATOM      4  C   UNL     1       0.724  -0.440  -0.970  0.00  0.00    +0.014 A 
ATOM      5  C   UNL     1      -0.439   0.308  -0.992  0.00  0.00    +0.051 A 
ATOM      6  C   UNL     1      -0.374   1.712  -0.863  0.00  0.00    +0.070 A 
ATOM      7  C   UNL     1      -1.766   2.189  -0.926  0.00  0.00    +0.256 C 
ATOM      8  O   UNL     1      -2.122   3.349  -0.850  0.00  0.00    -0.269 OA
ATOM      9  N   UNL     1      -2.578   1.128  -1.083  0.00  0.00    -0.230 N 
ATOM     10  C   UNL     1      -1.874  -0.017  -1.130  0.00  0.00    +0.254 C 
ATOM     11  O   UNL     1      -2.339  -1.131  -1.265  0.00  0.00    -0.270 OA
ENDROOT
BRANCH   1  15
ATOM     12  C   UNL     1       1.859   6.385  -1.185  0.00  0.00    +0.078 C 
ATOM     13  C   UNL     1       0.466   5.897  -1.591  0.00  0.00    +0.031 C 
ATOM     14  C   UNL     1       0.507   4.384  -1.817  0.00  0.00    +0.106 C 
ATOM     15  N   UNL     1       0.940   3.715  -0.584  0.00  0.00    -0.329 N 
ATOM     16  C   UNL     1       2.294   4.133  -0.200  0.00  0.00    +0.106 C 
ATOM     17  C   UNL     1       2.306   5.638   0.074  0.00  0.00    +0.031 C 
BRANCH  12  19
ATOM     18  N   UNL     1       2.954   8.546  -0.685  0.00  0.00    -0.303 N 
ATOM     19  C   UNL     1       1.812   7.865  -0.905  0.00  0.00    +0.219 C 
ATOM     20  O   UNL     1       0.746   8.443  -0.876  0.00  0.00    -0.275 OA
BRANCH  18  22
ATOM     21  C   UNL     1       4.760   7.985  -2.235  0.00  0.00    +0.024 C 
ATOM     22  C   UNL     1       4.246   7.866  -0.799  0.00  0.00    +0.104 C 
ENDBRANCH  18  22
BRANCH  18  23
ATOM     23  C   UNL     1       2.903   9.967  -0.333  0.00  0.00    +0.089 C 
BRANCH  23  24
ATOM     24  C   UNL     1       2.825  10.113   1.188  0.00  0.00    -0.060 C 
BRANCH  24  27
ATOM     25  C   UNL     1       1.527  12.154   1.067  0.00  0.00    -0.097 C 
ATOM     26  C   UNL     1       2.937  11.727   2.990  0.00  0.00    -0.097 C 
ATOM     27  N   UNL     1       2.796  11.551   1.529  0.00  0.00    +0.377 N 
ATOM     28  H   UNL     1       3.578  12.021   1.059  0.00  0.00    -0.083 HD
ENDBRANCH  24  27
ENDBRANCH  23  24
ENDBRANCH  18  23
ENDBRANCH  12  19
ENDBRANCH   1  15
BRANCH   9  29
ATOM     29  C   UNL     1      -4.037   1.209  -1.187  0.00  0.00    +0.152 C 
BRANCH  29  30
ATOM     30  C   UNL     1      -4.650   0.998   0.174  0.00  0.00    -0.022 A 
ATOM     31  C   UNL     1      -3.855   0.886   1.273  0.00  0.00    +0.006 A 
ATOM     32  C   UNL     1      -4.404   0.691   2.539  0.00  0.00    +0.001 A 
ATOM     33  C   UNL     1      -5.751   0.606   2.713  0.00  0.00    +0.008 A 
ATOM     34  C   UNL     1      -6.604   0.717   1.602  0.00  0.00    -0.018 A 
ATOM     35  C   UNL     1      -6.046   0.921   0.315  0.00  0.00    -0.013 A 
ATOM     36  C   UNL     1      -6.899   1.028  -0.797  0.00  0.00    +0.009 A 
ATOM     37  C   UNL     1      -8.246   0.942  -0.623  0.00  0.00    +0.001 A 
ATOM     38  C   UNL     1      -8.795   0.746   0.643  0.00  0.00    +0.001 A 
ATOM     39  C   UNL     1      -8.000   0.634   1.742  0.00  0.00    +0.008 A 
ENDBRANCH  29  30
ENDBRANCH   9  29
TORSDOF 8
