REMARK  Name = ZINC36221910
REMARK  3 active torsions:
REMARK  status: ('A' for Active; 'I' for Inactive)
REMARK    1  A    between atoms: C_5  and  C_11
REMARK    2  A    between atoms: C_11  and  C_12
REMARK    3  A    between atoms: C_12  and  N_14
REMARK                            x       y       z     vdW  Elec       q    Type
REMARK                         _______ _______ _______ _____ _____    ______ ____
ROOT
ATOM      1  C   UNL     1      -0.017   1.401   0.010  0.00  0.00    +0.020 A 
ATOM      2  C   UNL     1       1.155   2.091   0.002  0.00  0.00    +0.048 A 
ATOM      3  C   UNL     1       2.373   1.382  -0.013  0.00  0.00    +0.138 A 
ATOM      4  N   UNL     1       3.638   1.781  -0.024  0.00  0.00    -0.232 NA
ATOM      5  C   UNL     1       4.435   0.710  -0.037  0.00  0.00    +0.066 A 
ATOM      6  C   UNL     1       3.665  -0.401  -0.036  0.00  0.00    +0.116 A 
ATOM      7  N   UNL     1       2.361   0.012  -0.020  0.00  0.00    -0.305 N 
ATOM      8  C   UNL     1       1.177  -0.669  -0.013  0.00  0.00    +0.108 A 
ATOM      9  C   UNL     1       0.002  -0.004   0.002  0.00  0.00    +0.034 A 
ATOM     10 BR   UNL     1      -1.625  -0.968   0.012  0.00  0.00    -0.049 Br
ENDROOT
BRANCH   5  11
ATOM     11  C   UNL     1       5.941   0.736  -0.053  0.00  0.00    +0.115 C 
BRANCH  11  12
ATOM     12  C   UNL     1       6.418   1.565  -1.217  0.00  0.00    +0.052 C 
ATOM     13  S   UNL     1       5.357   2.250  -2.198  0.00  0.00    -0.040 S 
BRANCH  12  14
ATOM     14  N   UNL     1       7.738   1.730  -1.432  0.00  0.00    -0.355 N 
ATOM     15  H   UNL     1       8.382   1.315  -0.837  0.00  0.00    +0.143 HD
ATOM     16  H   UNL     1       8.045   2.264  -2.181  0.00  0.00    +0.143 HD
ENDBRANCH  12  14
ENDBRANCH  11  12
ENDBRANCH   5  11
TORSDOF 3
