REMARK  Name = ZINC18274217
REMARK  11 active torsions:
REMARK  status: ('A' for Active; 'I' for Inactive)
REMARK    1  A    between atoms: C_1  and  C_2
REMARK    2  A    between atoms: C_2  and  N_3
REMARK    3  A    between atoms: C_7  and  C_32
REMARK    4  A    between atoms: C_11  and  S_12
REMARK    5  A    between atoms: S_12  and  C_13
REMARK    6  A    between atoms: C_13  and  C_15
REMARK    7  A    between atoms: C_13  and  C_16
REMARK    8  A    between atoms: C_22  and  C_27
REMARK    9  A    between atoms: C_32  and  O_34
REMARK   10  A    between atoms: O_34  and  C_35
REMARK   11  A    between atoms: C_35  and  C_36
REMARK                            x       y       z     vdW  Elec       q    Type
REMARK                         _______ _______ _______ _____ _____    ______ ____
ROOT
ATOM      1  C   UNL     1      -4.728   2.576   0.933  0.00  0.00    +0.117 C 
ATOM      2  C   UNL     1      -5.025   1.579   2.054  0.00  0.00    +0.027 C 
ENDROOT
BRANCH   1   3
ATOM      3  C   UNL     1      -5.889   2.611  -0.029  0.00  0.00    +0.124 A 
ATOM      4  N   UNL     1      -5.855   1.837  -1.144  0.00  0.00    -0.309 N 
ATOM      5  H   UNL     1      -5.084   1.271  -1.307  0.00  0.00    +0.170 HD
ATOM      6  C   UNL     1      -6.870   1.839  -2.027  0.00  0.00    +0.260 A 
ATOM      7  O   UNL     1      -6.824   1.138  -3.023  0.00  0.00    -0.267 OA
ATOM      8  C   UNL     1      -8.004   2.675  -1.779  0.00  0.00    +0.083 A 
ATOM      9  C   UNL     1      -9.214   2.850  -2.575  0.00  0.00    +0.039 A 
ATOM     10  C   UNL     1     -10.166   3.711  -2.133  0.00  0.00    +0.059 A 
ATOM     11  S   UNL     1      -9.481   4.336  -0.611  0.00  0.00    -0.076 S 
ATOM     12  C   UNL     1      -7.950   3.439  -0.602  0.00  0.00    +0.116 A 
ATOM     13  N   UNL     1      -6.912   3.381   0.228  0.00  0.00    -0.225 NA
BRANCH   9  14
ATOM     14  C   UNL     1      -9.399   2.106  -3.838  0.00  0.00    +0.136 A 
ATOM     15  C   UNL     1     -10.497   1.382  -4.184  0.00  0.00    +0.050 A 
ATOM     16  C   UNL     1     -10.244   0.849  -5.465  0.00  0.00    +0.042 A 
ATOM     17  C   UNL     1      -9.016   1.263  -5.830  0.00  0.00    +0.196 A 
ATOM     18  O   UNL     1      -8.508   2.023  -4.844  0.00  0.00    -0.463 OA
ENDBRANCH   9  14
ENDBRANCH   1   3
BRANCH   1  19
ATOM     19  S   UNL     1      -3.231   2.067   0.053  0.00  0.00    -0.077 S 
BRANCH  19  28
ATOM     20  N   UNL     1      -0.704   1.998   1.216  0.00  0.00    -0.319 N 
ATOM     21  C   UNL     1      -0.118   2.272   2.437  0.00  0.00    +0.069 A 
ATOM     22  C   UNL     1       1.186   2.207   2.911  0.00  0.00    +0.029 A 
ATOM     23  C   UNL     1       1.464   2.552   4.203  0.00  0.00    +0.017 A 
ATOM     24  C   UNL     1       0.441   2.974   5.061  0.00  0.00    +0.061 A 
ATOM     25  C   UNL     1      -0.873   3.046   4.602  0.00  0.00    +0.045 A 
ATOM     26  C   UNL     1      -1.159   2.694   3.284  0.00  0.00    +0.091 A 
ATOM     27  N   UNL     1      -2.307   2.659   2.557  0.00  0.00    -0.222 NA
ATOM     28  C   UNL     1      -2.041   2.255   1.339  0.00  0.00    +0.171 A 
BRANCH  20  30
ATOM     29  C   UNL     1       0.002  -0.004   0.002  0.00  0.00    +0.027 C 
ATOM     30  C   UNL     1      -0.019   1.526   0.010  0.00  0.00    +0.121 C 
ENDBRANCH  20  30
BRANCH  24  31
ATOM     31  C   UNL     1       0.754   3.344   6.454  0.00  0.00    +0.339 C 
ATOM     32  O   UNL     1      -0.133   3.711   7.200  0.00  0.00    -0.245 OA
BRANCH  31  33
ATOM     33  O   UNL     1       2.024   3.276   6.900  0.00  0.00    -0.461 OA
BRANCH  33  34
ATOM     34  C   UNL     1       2.259   3.656   8.282  0.00  0.00    +0.229 C 
ATOM     35  C   UNL     1       3.748   3.515   8.603  0.00  0.00    +0.048 C 
ENDBRANCH  33  34
ENDBRANCH  31  33
ENDBRANCH  24  31
ENDBRANCH  19  28
ENDBRANCH   1  19
TORSDOF 8
