REMARK  Name = ZINC45330058
REMARK  13 active torsions:
REMARK  status: ('A' for Active; 'I' for Inactive)
REMARK    1  A    between atoms: C_1  and  C_2
REMARK    2  A    between atoms: C_2  and  N_3
REMARK    3  A    between atoms: N_3  and  C_4
REMARK    4  A    between atoms: N_3  and  S_6
REMARK    5  A    between atoms: C_4  and  C_5
REMARK    6  A    between atoms: S_6  and  C_9
REMARK    7  A    between atoms: C_13  and  C_15
REMARK    8  A    between atoms: N_17  and  N_18
REMARK    9  A    between atoms: C_19  and  C_20
REMARK   10  A    between atoms: C_23  and  O_30
REMARK   11  A    between atoms: C_25  and  O_26
REMARK   12  A    between atoms: O_26  and  C_27
REMARK   13  A    between atoms: O_30  and  C_31
REMARK                            x       y       z     vdW  Elec       q    Type
REMARK                         _______ _______ _______ _____ _____    ______ ____
ROOT
ATOM      1  C   UNL     1       1.506   2.348  -6.283  0.00  0.00    +0.263 C 
ATOM      2  O   UNL     1       2.447   1.598  -6.459  0.00  0.00    -0.268 OA
ATOM      3  N   UNL     1       1.387   3.466  -7.026  0.00  0.00    -0.203 N 
ATOM      4  H   UNL     1       0.636   4.064  -6.885  0.00  0.00    +0.178 HD
ENDROOT
BRANCH   1   9
ATOM      5  C   UNL     1      -0.337   0.586  -3.526  0.00  0.00    +0.106 A 
ATOM      6  C   UNL     1      -1.407   1.441  -3.328  0.00  0.00    +0.028 A 
ATOM      7  C   UNL     1      -1.532   2.590  -4.088  0.00  0.00    +0.003 A 
ATOM      8  C   UNL     1      -0.589   2.890  -5.050  0.00  0.00    +0.013 A 
ATOM      9  C   UNL     1       0.492   2.032  -5.254  0.00  0.00    +0.040 A 
ATOM     10  C   UNL     1       0.615   0.877  -4.480  0.00  0.00    +0.041 A 
BRANCH   5  11
ATOM     11  S   UNL     1      -0.188  -0.875  -2.551  0.00  0.00    +0.061 S 
ATOM     12  O   UNL     1       0.610  -1.782  -3.300  0.00  0.00    -0.153 OA
ATOM     13  O   UNL     1      -1.496  -1.201  -2.104  0.00  0.00    -0.153 OA
BRANCH  11  14
ATOM     14  N   UNL     1       0.688  -0.476  -1.203  0.00  0.00    -0.177 NA
BRANCH  14  16
ATOM     15  C   UNL     1      -0.019   1.526   0.010  0.00  0.00    +0.022 C 
ATOM     16  C   UNL     1       0.002  -0.004   0.002  0.00  0.00    +0.106 C 
ENDBRANCH  14  16
BRANCH  14  17
ATOM     17  C   UNL     1       2.148  -0.597  -1.216  0.00  0.00    +0.106 C 
ATOM     18  C   UNL     1       2.553  -1.951  -0.632  0.00  0.00    +0.022 C 
ENDBRANCH  14  17
ENDBRANCH  11  14
ENDBRANCH   5  11
ENDBRANCH   1   9
BRANCH   3  19
ATOM     19  N   UNL     1       2.348   3.765  -8.001  0.00  0.00    -0.187 NA
ATOM     20  C   UNL     1       2.233   4.842  -8.716  0.00  0.00    +0.142 C 
BRANCH  20  21
ATOM     21  C   UNL     1       3.243   5.157  -9.741  0.00  0.00    +0.037 A 
ATOM     22  C   UNL     1       3.125   6.318 -10.509  0.00  0.00    +0.016 A 
ATOM     23  C   UNL     1       4.072   6.608 -11.467  0.00  0.00    +0.047 A 
ATOM     24  C   UNL     1       5.145   5.749 -11.673  0.00  0.00    +0.130 A 
ATOM     25  C   UNL     1       5.271   4.593 -10.916  0.00  0.00    +0.092 A 
ATOM     26  C   UNL     1       4.329   4.294  -9.947  0.00  0.00    +0.139 A 
BRANCH  26  27
ATOM     27  O   UNL     1       4.454   3.166  -9.201  0.00  0.00    -0.433 OA
BRANCH  27  28
ATOM     28  C   UNL     1       5.587   2.335  -9.466  0.00  0.00    +0.541 C 
ATOM     29  F   UNL     1       5.547   1.904 -10.796  0.00  0.00    -0.166 F 
ATOM     30  F   UNL     1       6.761   3.063  -9.246  0.00  0.00    -0.166 F 
ENDBRANCH  27  28
ENDBRANCH  26  27
BRANCH  24  31
ATOM     31  O   UNL     1       6.075   6.042 -12.619  0.00  0.00    -0.434 OA
BRANCH  31  32
ATOM     32  C   UNL     1       5.885   7.248 -13.363  0.00  0.00    +0.541 C 
ATOM     33  F   UNL     1       4.663   7.190 -14.041  0.00  0.00    -0.166 F 
ATOM     34  F   UNL     1       5.882   8.340 -12.488  0.00  0.00    -0.166 F 
ENDBRANCH  31  32
ENDBRANCH  24  31
ENDBRANCH  20  21
ENDBRANCH   3  19
TORSDOF 11
