REMARK  Name = ZINC36637436
REMARK  16 active torsions:
REMARK  status: ('A' for Active; 'I' for Inactive)
REMARK    1  A    between atoms: C_1  and  C_2
REMARK    2  A    between atoms: C_2  and  C_3
REMARK    3  A    between atoms: C_3  and  C_4
REMARK    4  A    between atoms: C_4  and  N_5
REMARK    5  A    between atoms: N_5  and  C_6
REMARK    6  A    between atoms: N_5  and  S_8
REMARK    7  A    between atoms: C_6  and  C_7
REMARK    8  A    between atoms: S_8  and  C_11
REMARK    9  A    between atoms: C_14  and  C_17
REMARK   10  A    between atoms: N_19  and  C_20
REMARK   11  A    between atoms: C_20  and  C_21
REMARK   12  A    between atoms: C_21  and  N_22
REMARK   13  A    between atoms: N_22  and  C_23
REMARK   14  A    between atoms: N_22  and  C_24
REMARK   15  A    between atoms: C_28  and  O_34
REMARK   16  A    between atoms: O_34  and  C_35
REMARK                            x       y       z     vdW  Elec       q    Type
REMARK                         _______ _______ _______ _____ _____    ______ ____
ROOT
ATOM      1  C   UNL     1      -0.019   2.014  -7.061  0.00  0.00    +0.252 C 
ATOM      2  O   UNL     1      -1.018   2.703  -6.981  0.00  0.00    -0.270 OA
ATOM      3  N   UNL     1       0.941   2.321  -7.956  0.00  0.00    -0.248 N 
ATOM      4  C   UNL     1       0.857   3.496  -8.686  0.00  0.00    +0.168 A 
ATOM      5  N   UNL     1      -0.066   4.427  -8.643  0.00  0.00    -0.221 NA
ATOM      6  C   UNL     1      -0.019   5.532  -9.421  0.00  0.00    +0.122 A 
ATOM      7  C   UNL     1      -0.944   6.605  -9.473  0.00  0.00    +0.146 A 
ATOM      8  C   UNL     1      -0.744   7.661 -10.330  0.00  0.00    +0.048 A 
ATOM      9  C   UNL     1       0.361   7.715 -11.167  0.00  0.00    +0.005 A 
ATOM     10  C   UNL     1       1.282   6.684 -11.140  0.00  0.00    +0.017 A 
ATOM     11  C   UNL     1       1.092   5.623 -10.288  0.00  0.00    +0.044 A 
ATOM     12  S   UNL     1       1.984   4.132  -9.919  0.00  0.00    -0.052 S 
ENDROOT
BRANCH   1  16
ATOM     13  C   UNL     1       0.441  -1.361  -4.525  0.00  0.00    +0.106 A 
ATOM     14  C   UNL     1      -0.243  -0.248  -4.072  0.00  0.00    +0.029 A 
ATOM     15  C   UNL     1      -0.397   0.852  -4.891  0.00  0.00    +0.015 A 
ATOM     16  C   UNL     1       0.141   0.840  -6.179  0.00  0.00    +0.037 A 
ATOM     17  C   UNL     1       0.831  -0.287  -6.630  0.00  0.00    +0.015 A 
ATOM     18  C   UNL     1       0.982  -1.378  -5.799  0.00  0.00    +0.029 A 
BRANCH  13  19
ATOM     19  S   UNL     1       0.632  -2.762  -3.473  0.00  0.00    +0.061 S 
ATOM     20  O   UNL     1       0.845  -3.881  -4.322  0.00  0.00    -0.153 OA
ATOM     21  O   UNL     1      -0.431  -2.711  -2.532  0.00  0.00    -0.153 OA
BRANCH  19  22
ATOM     22  N   UNL     1       2.033  -2.544  -2.617  0.00  0.00    -0.177 NA
BRANCH  22  23
ATOM     23  C   UNL     1       3.302  -3.044  -3.150  0.00  0.00    +0.106 C 
ATOM     24  C   UNL     1       3.591  -4.428  -2.566  0.00  0.00    +0.022 C 
ENDBRANCH  22  23
BRANCH  22  25
ATOM     25  C   UNL     1       2.002  -1.851  -1.327  0.00  0.00    +0.109 C 
BRANCH  25  26
ATOM     26  C   UNL     1       2.329  -0.371  -1.534  0.00  0.00    +0.017 C 
BRANCH  26  28
ATOM     27  C   UNL     1       2.624   1.832  -0.394  0.00  0.00    +0.004 C 
ATOM     28  C   UNL     1       2.297   0.352  -0.186  0.00  0.00    -0.002 C 
ENDBRANCH  26  28
ENDBRANCH  25  26
ENDBRANCH  22  25
ENDBRANCH  19  22
ENDBRANCH  13  19
ENDBRANCH   1  16
BRANCH   7  29
ATOM     29  O   UNL     1      -2.040   6.590  -8.668  0.00  0.00    -0.493 OA
ATOM     30  C   UNL     1      -2.934   7.700  -8.768  0.00  0.00    +0.277 C 
ENDBRANCH   7  29
BRANCH   3  31
ATOM     31  C   UNL     1       2.073   1.413  -8.156  0.00  0.00    +0.097 C 
BRANCH  31  32
ATOM     32  C   UNL     1       1.866   0.618  -9.446  0.00  0.00    -0.060 C 
BRANCH  32  33
ATOM     33  N   UNL     1       3.062  -0.191  -9.720  0.00  0.00    +0.377 N 
ATOM     34  C   UNL     1       3.221  -1.201  -8.665  0.00  0.00    -0.097 C 
ATOM     35  C   UNL     1       2.914  -0.860 -11.020  0.00  0.00    -0.097 C 
ATOM     36  H   UNL     1       3.875   0.406  -9.739  0.00  0.00    -0.083 HD
ENDBRANCH  32  33
ENDBRANCH  31  32
ENDBRANCH   3  31
TORSDOF 11
