REMARK  Name = ZINC41035900
REMARK  3 active torsions:
REMARK  status: ('A' for Active; 'I' for Inactive)
REMARK    1  A    between atoms: C_1  and  C_2
REMARK    2  A    between atoms: C_7  and  C_9
REMARK    3  A    between atoms: C_7  and  N_12
REMARK                            x       y       z     vdW  Elec       q    Type
REMARK                         _______ _______ _______ _____ _____    ______ ____
ROOT
ATOM      1  N   UNL     1       1.448  -2.513   0.028  0.00  0.00    -0.283 N 
ATOM      2  C   UNL     1       1.588  -3.835  -0.194  0.00  0.00    +0.304 C 
ATOM      3  O   UNL     1       1.144  -4.636   0.606  0.00  0.00    -0.253 OA
ATOM      4  N   UNL     1       2.218  -4.270  -1.303  0.00  0.00    -0.275 N 
ATOM      5  C   UNL     1       2.382  -5.707  -1.578  0.00  0.00    +0.128 C 
ATOM      6  C   UNL     1       1.657  -6.029  -2.886  0.00  0.00    +0.123 C 
ATOM      7  N   UNL     1       1.988  -5.051  -3.914  0.00  0.00    -0.313 N 
ATOM      8  C   UNL     1       2.448  -3.823  -3.670  0.00  0.00    +0.231 C 
ATOM      9  O   UNL     1       2.613  -3.071  -4.607  0.00  0.00    -0.274 OA
ATOM     10  C   UNL     1       2.766  -3.328  -2.290  0.00  0.00    +0.205 C 
ATOM     11  H   UNL     1       1.802  -1.875  -0.611  0.00  0.00    +0.151 HD
ATOM     12  H   UNL     1       1.866  -5.312  -4.840  0.00  0.00    +0.149 HD
ENDROOT
BRANCH   1  18
ATOM     13  C   UNL     1      -0.019   1.526   0.010  0.00  0.00    +0.007 C 
ATOM     14  C   UNL     1       0.002  -0.004   0.002  0.00  0.00    -0.012 C 
ATOM     15  C   UNL     1      -1.433  -0.534   0.013  0.00  0.00    +0.003 C 
ATOM     16  C   UNL     1      -1.413  -2.063   0.004  0.00  0.00    +0.003 C 
ATOM     17  C   UNL     1      -0.673  -2.570   1.244  0.00  0.00    +0.037 C 
ATOM     18  C   UNL     1       0.763  -2.041   1.233  0.00  0.00    +0.137 C 
ATOM     19  C   UNL     1       0.742  -0.511   1.242  0.00  0.00    +0.040 C 
BRANCH  18  20
ATOM     20  C   UNL     1       1.492  -2.540   2.454  0.00  0.00    +0.379 C 
ATOM     21  O   UNL     1       2.491  -3.227   2.329  0.00  0.00    -0.244 OA
ATOM     22  O   UNL     1       1.082  -2.257   3.567  0.00  0.00    -0.244 OA
ENDBRANCH  18  20
ENDBRANCH   1  18
TORSDOF 2
