REMARK  Name = ZINC43509980
REMARK  13 active torsions:
REMARK  status: ('A' for Active; 'I' for Inactive)
REMARK    1  A    between atoms: C_1  and  C_2
REMARK    2  A    between atoms: C_2  and  C_3
REMARK    3  A    between atoms: C_3  and  C_5
REMARK    4  A    between atoms: C_3  and  C_6
REMARK    5  A    between atoms: C_6  and  C_8
REMARK    6  A    between atoms: C_6  and  N_11
REMARK    7  A    between atoms: C_16  and  O_41
REMARK    8  A    between atoms: C_22  and  C_40
REMARK    9  A    between atoms: C_28  and  C_39
REMARK   10  A    between atoms: C_30  and  O_38
REMARK   11  A    between atoms: C_32  and  O_37
REMARK   12  A    between atoms: C_34  and  C_35
REMARK   13  A    between atoms: C_34  and  C_36
REMARK                            x       y       z     vdW  Elec       q    Type
REMARK                         _______ _______ _______ _____ _____    ______ ____
ROOT
ATOM      1  N   UNL     1      -6.298  -3.008  -2.152  0.00  0.00    -0.279 N 
ATOM      2  C   UNL     1      -6.165  -3.734  -0.884  0.00  0.00    +0.148 C 
ATOM      3  C   UNL     1      -7.456  -4.492  -0.696  0.00  0.00    +0.024 A 
ATOM      4  C   UNL     1      -8.241  -4.223  -1.817  0.00  0.00    +0.049 A 
ATOM      5  C   UNL     1      -9.506  -4.801  -1.928  0.00  0.00    +0.059 A 
ATOM      6  C   UNL     1      -9.973  -5.626  -0.917  0.00  0.00    +0.124 A 
ATOM      7  C   UNL     1      -9.190  -5.876   0.197  0.00  0.00    +0.040 A 
ATOM      8  C   UNL     1      -7.919  -5.324   0.312  0.00  0.00    +0.134 A 
ATOM      9  O   UNL     1      -7.305  -5.733   1.455  0.00  0.00    -0.484 OA
ATOM     10  C   UNL     1      -8.260  -6.306   2.355  0.00  0.00    +0.123 C 
ATOM     11  C   UNL     1      -9.444  -6.691   1.451  0.00  0.00    +0.091 C 
ATOM     12  C   UNL     1      -8.701  -5.305   3.409  0.00  0.00    +0.031 C 
ATOM     13  C   UNL     1      -7.461  -4.887   4.207  0.00  0.00    +0.007 C 
ATOM     14  C   UNL     1      -6.940  -6.125   4.944  0.00  0.00    +0.005 C 
ATOM     15  C   UNL     1      -6.518  -7.214   3.953  0.00  0.00    +0.007 C 
ATOM     16  C   UNL     1      -7.651  -7.564   2.997  0.00  0.00    +0.014 C 
ATOM     17  C   UNL     1      -8.763  -8.331   3.697  0.00  0.00    +0.044 C 
ATOM     18  C   UNL     1      -8.253  -9.549   4.452  0.00  0.00    +0.144 C 
ATOM     19  C   UNL     1      -7.133  -9.184   5.411  0.00  0.00    +0.149 C 
ATOM     20  C   UNL     1      -6.001  -8.414   4.741  0.00  0.00    -0.003 C 
ATOM     21  C   UNL     1      -5.145  -9.352   3.887  0.00  0.00    +0.014 C 
ATOM     22  C   UNL     1      -5.064  -7.919   5.868  0.00  0.00    +0.014 C 
ATOM     23  C   UNL     1      -7.112  -8.391   1.814  0.00  0.00    +0.015 C 
ATOM     24  C   UNL     1      -9.327  -4.064   2.777  0.00  0.00    +0.011 C 
ATOM     25  C   UNL     1      -7.490  -3.305  -2.697  0.00  0.00    +0.248 C 
ATOM     26  O   UNL     1      -7.894  -2.878  -3.761  0.00  0.00    -0.270 OA
ENDROOT
BRANCH  19  27
ATOM     27  O   UNL     1      -6.602 -10.380   6.000  0.00  0.00    -0.389 OA
ATOM     28  H   UNL     1      -7.251 -10.894   6.499  0.00  0.00    +0.210 HD
ENDBRANCH  19  27
BRANCH  18  29
ATOM     29  O   UNL     1      -7.862 -10.593   3.565  0.00  0.00    -0.389 OA
ATOM     30  H   UNL     1      -7.532 -11.385   4.011  0.00  0.00    +0.210 HD
ENDBRANCH  18  29
BRANCH   6  31
ATOM     31  O   UNL     1     -11.204  -6.193  -1.019  0.00  0.00    -0.506 OA
ATOM     32  H   UNL     1     -11.204  -7.057  -1.454  0.00  0.00    +0.292 HD
ENDBRANCH   6  31
BRANCH   1  33
ATOM     33  C   UNL     1      -5.296  -2.109  -2.730  0.00  0.00    +0.192 C 
BRANCH  33  34
ATOM     34  C   UNL     1      -4.870  -2.631  -4.078  0.00  0.00    +0.376 C 
ATOM     35  O   UNL     1      -3.914  -2.135  -4.649  0.00  0.00    -0.244 OA
ATOM     36  O   UNL     1      -5.482  -3.549  -4.597  0.00  0.00    -0.244 OA
ENDBRANCH  33  34
BRANCH  33  37
ATOM     37  C   UNL     1      -5.897  -0.711  -2.891  0.00  0.00    +0.017 C 
ATOM     38  C   UNL     1      -6.329  -0.181  -1.522  0.00  0.00    +0.010 C 
BRANCH  37  40
ATOM     39  C   UNL     1      -5.487   1.591  -3.771  0.00  0.00    +0.004 C 
ATOM     40  C   UNL     1      -4.850   0.228  -3.494  0.00  0.00    +0.002 C 
ENDBRANCH  37  40
ENDBRANCH  33  37
ENDBRANCH   1  33
TORSDOF 7
