REMARK  Name = ZINC12704148
REMARK  10 active torsions:
REMARK  status: ('A' for Active; 'I' for Inactive)
REMARK    1  A    between atoms: C_1  and  C_2
REMARK    2  A    between atoms: C_5  and  C_8
REMARK    3  A    between atoms: N_11  and  C_13
REMARK    4  A    between atoms: C_13  and  C_14
REMARK    5  A    between atoms: N_16  and  C_17
REMARK    6  A    between atoms: N_16  and  C_24
REMARK    7  A    between atoms: C_17  and  C_18
REMARK    8  A    between atoms: C_24  and  C_26
REMARK    9  A    between atoms: C_24  and  C_31
REMARK   10  A    between atoms: N_33  and  C_34
REMARK                            x       y       z     vdW  Elec       q    Type
REMARK                         _______ _______ _______ _____ _____    ______ ____
ROOT
ATOM      1  C   UNL     1       4.038   1.835  -2.004  0.00  0.00    +0.240 C 
ATOM      2  O   UNL     1       3.882   0.721  -2.459  0.00  0.00    -0.273 OA
ATOM      3  N   UNL     1       3.475   2.165  -0.825  0.00  0.00    -0.281 N 
ENDROOT
BRANCH   1   4
ATOM      4  C   UNL     1       4.860   2.848  -2.757  0.00  0.00    +0.264 C 
BRANCH   4   8
ATOM      5  C   UNL     1       5.501   1.634  -6.007  0.00  0.00    +0.205 A 
ATOM      6  N   UNL     1       6.594   1.226  -5.348  0.00  0.00    -0.108 NA
ATOM      7  N   UNL     1       6.475   1.623  -4.127  0.00  0.00    -0.045 NA
ATOM      8  N   UNL     1       5.358   2.249  -3.998  0.00  0.00    -0.154 N 
ATOM      9  N   UNL     1       4.748   2.271  -5.133  0.00  0.00    -0.130 NA
BRANCH   5  14
ATOM     10  C   UNL     1       4.321   0.771 -11.579  0.00  0.00    +0.044 C 
ATOM     11  C   UNL     1       4.630   0.997 -10.121  0.00  0.00    -0.050 A 
ATOM     12  C   UNL     1       5.808   0.512  -9.583  0.00  0.00    +0.004 A 
ATOM     13  C   UNL     1       6.095   0.716  -8.248  0.00  0.00    +0.012 A 
ATOM     14  C   UNL     1       5.197   1.412  -7.443  0.00  0.00    +0.023 A 
ATOM     15  C   UNL     1       4.009   1.894  -7.989  0.00  0.00    +0.012 A 
ATOM     16  C   UNL     1       3.734   1.689  -9.326  0.00  0.00    +0.004 A 
ENDBRANCH   5  14
ENDBRANCH   4   8
ENDBRANCH   1   4
BRANCH   3  17
ATOM     17  C   UNL     1       3.663   3.510  -0.275  0.00  0.00    +0.140 C 
BRANCH  17  18
ATOM     18  C   UNL     1       4.822   3.496   0.723  0.00  0.00    +0.136 C 
ATOM     19  C   UNL     1       4.960   4.874   1.407  0.00  0.00    +0.035 C 
ATOM     20  C   UNL     1       6.486   5.069   1.554  0.00  0.00    +0.031 C 
ATOM     21  C   UNL     1       7.089   3.786   0.941  0.00  0.00    +0.160 C 
ATOM     22  O   UNL     1       6.076   3.298   0.034  0.00  0.00    -0.375 OA
ENDBRANCH  17  18
ENDBRANCH   3  17
BRANCH   3  23
ATOM     23  C   UNL     1       2.675   1.180  -0.093  0.00  0.00    +0.199 C 
BRANCH  23  24
ATOM     24  C   UNL     1       3.558   0.038   0.340  0.00  0.00    +0.019 A 
ATOM     25  C   UNL     1       3.619  -0.586   1.542  0.00  0.00    +0.013 A 
ATOM     26  C   UNL     1       4.521  -1.618   1.717  0.00  0.00    +0.008 A 
ATOM     27  C   UNL     1       5.311  -1.984   0.677  0.00  0.00    +0.045 A 
ATOM     28  S   UNL     1       4.797  -0.843  -0.596  0.00  0.00    -0.099 S 
ENDBRANCH  23  24
BRANCH  23  29
ATOM     29  C   UNL     1       1.581   0.657  -0.987  0.00  0.00    +0.239 C 
ATOM     30  O   UNL     1       1.530   1.002  -2.149  0.00  0.00    -0.273 OA
ATOM     31  N   UNL     1       0.659  -0.195  -0.496  0.00  0.00    -0.311 N 
ATOM     32  H   UNL     1       0.700  -0.471   0.432  0.00  0.00    +0.149 HD
BRANCH  31  33
ATOM     33  C   UNL     1      -0.405  -0.703  -1.366  0.00  0.00    +0.073 C 
ATOM     34  C   UNL     1      -1.607   0.264  -1.351  0.00  0.00    +0.022 C 
ATOM     35  C   UNL     1      -2.844  -0.667  -1.408  0.00  0.00    +0.002 C 
ATOM     36  C   UNL     1      -2.417  -1.859  -0.516  0.00  0.00    +0.002 C 
ATOM     37  C   UNL     1      -0.920  -2.053  -0.835  0.00  0.00    +0.022 C 
ENDBRANCH  31  33
ENDBRANCH  23  29
ENDBRANCH   3  23
TORSDOF 9
