REMARK  Name = ZINC13500132
REMARK  13 active torsions:
REMARK  status: ('A' for Active; 'I' for Inactive)
REMARK    1  A    between atoms: C_1  and  C_2
REMARK    2  A    between atoms: C_2  and  C_3
REMARK    3  A    between atoms: C_3  and  C_4
REMARK    4  A    between atoms: C_4  and  C_6
REMARK    5  A    between atoms: C_4  and  N_68
REMARK    6  A    between atoms: N_10  and  C_11
REMARK    7  A    between atoms: C_11  and  C_12
REMARK    8  A    between atoms: C_11  and  C_13
REMARK    9  A    between atoms: C_11  and  C_14
REMARK   10  A    between atoms: C_15  and  C_16
REMARK   11  A    between atoms: C_15  and  N_68
REMARK   12  A    between atoms: C_20  and  C_28
REMARK   13  A    between atoms: C_29  and  N_68
REMARK                            x       y       z     vdW  Elec       q    Type
REMARK                         _______ _______ _______ _____ _____    ______ ____
ROOT
ATOM      1  N   UNL     1      -1.022  -2.275  -0.746  0.00  0.00    +0.391 N 
ATOM      2  H   UNL     1      -0.162  -2.709  -0.390  0.00  0.00    -0.080 HD
ENDROOT
BRANCH   1   3
ATOM      3  C   UNL     1      -0.945  -2.196  -2.220  0.00  0.00    -0.067 C 
ATOM      4  C   UNL     1      -0.904  -3.620  -2.812  0.00  0.00    -0.015 C 
ATOM      5  C   UNL     1       0.087  -3.509  -3.998  0.00  0.00    -0.002 C 
ATOM      6  C   UNL     1       1.168  -2.545  -3.452  0.00  0.00    -0.002 C 
ATOM      7  C   UNL     1       0.373  -1.512  -2.627  0.00  0.00    -0.015 C 
ENDBRANCH   1   3
BRANCH   1   8
ATOM      8  C   UNL     1      -1.147  -0.918  -0.173  0.00  0.00    +0.003 C 
BRANCH   8   9
ATOM      9  C   UNL     1      -0.440  -0.892   1.157  0.00  0.00    +0.139 A 
ATOM     10  N   UNL     1      -0.429  -1.845   2.057  0.00  0.00    -0.115 NA
ATOM     11  N   UNL     1       0.284  -1.445   3.052  0.00  0.00    -0.023 NA
ATOM     12  N   UNL     1       0.730  -0.261   2.810  0.00  0.00    -0.043 NA
ATOM     13  N   UNL     1       0.305   0.114   1.651  0.00  0.00    -0.226 N 
BRANCH  13  14
ATOM     14  C   UNL     1       0.586   1.393   0.994  0.00  0.00    +0.059 C 
ATOM     15  C   UNL     1      -0.731   2.064   0.599  0.00  0.00    +0.036 C 
ATOM     16  C   UNL     1       1.354   2.303   1.955  0.00  0.00    +0.036 C 
ATOM     17  C   UNL     1       1.430   1.148  -0.259  0.00  0.00    +0.036 C 
ENDBRANCH  13  14
ENDBRANCH   8   9
BRANCH   8  18
ATOM     18  C   UNL     1      -2.621  -0.559   0.026  0.00  0.00    -0.008 C 
BRANCH  18  20
ATOM     19  C   UNL     1      -4.767  -0.037  -1.143  0.00  0.00    +0.004 C 
ATOM     20  C   UNL     1      -3.317  -0.488  -1.335  0.00  0.00    -0.005 C 
ENDBRANCH  18  20
ENDBRANCH   8  18
ENDBRANCH   1   8
BRANCH   1  21
ATOM     21  C   UNL     1      -2.179  -3.102  -0.344  0.00  0.00    -0.036 C 
BRANCH  21  22
ATOM     22  C   UNL     1      -1.986  -3.539   1.085  0.00  0.00    +0.001 A 
ATOM     23  C   UNL     1      -2.745  -2.992   2.067  0.00  0.00    +0.017 A 
ATOM     24  C   UNL     1      -2.537  -3.443   3.444  0.00  0.00    -0.001 A 
ATOM     25  C   UNL     1      -3.293  -2.920   4.498  0.00  0.00    +0.013 A 
ATOM     26  C   UNL     1      -3.073  -3.358   5.773  0.00  0.00    -0.050 A 
ATOM     27  C   UNL     1      -2.104  -4.319   6.032  0.00  0.00    +0.005 A 
ATOM     28  C   UNL     1      -1.347  -4.848   5.009  0.00  0.00    +0.026 A 
ATOM     29  C   UNL     1      -1.555  -4.417   3.703  0.00  0.00    +0.049 A 
ATOM     30  N   UNL     1      -0.813  -4.930   2.660  0.00  0.00    -0.322 N 
ATOM     31  H   UNL     1      -0.136  -5.601   2.840  0.00  0.00    +0.169 HD
ATOM     32  C   UNL     1      -1.014  -4.514   1.398  0.00  0.00    +0.251 A 
ATOM     33  O   UNL     1      -0.340  -4.989   0.501  0.00  0.00    -0.268 OA
ATOM     34  C   UNL     1      -3.887  -2.794   6.909  0.00  0.00    +0.044 C 
ENDBRANCH  21  22
ENDBRANCH   1  21
TORSDOF 8
