REMARK  Name = ZINC39446748
REMARK  7 active torsions:
REMARK  status: ('A' for Active; 'I' for Inactive)
REMARK    1  A    between atoms: C_1  and  C_2
REMARK    2  A    between atoms: C_4  and  C_14
REMARK    3  A    between atoms: C_5  and  C_13
REMARK    4  A    between atoms: C_14  and  C_15
REMARK    5  A    between atoms: N_17  and  C_18
REMARK    6  A    between atoms: C_18  and  C_19
REMARK    7  A    between atoms: C_19  and  C_20
REMARK                            x       y       z     vdW  Elec       q    Type
REMARK                         _______ _______ _______ _____ _____    ______ ____
ROOT
ATOM      1  C   UNL     1       0.080  -0.060  -2.632  0.00  0.00    +0.130 C 
ENDROOT
BRANCH   1   4
ATOM      2  C   UNL     1      -0.019   1.526   0.010  0.00  0.00    +0.035 C 
ATOM      3  C   UNL     1       0.002  -0.004   0.002  0.00  0.00    +0.122 C 
ATOM      4  C   UNL     1       0.646  -0.461  -1.294  0.00  0.00    -0.020 C 
ATOM      5  C   UNL     1       1.732  -1.230  -1.206  0.00  0.00    +0.017 C 
ATOM      6  N   UNL     1       2.257  -1.601  -0.021  0.00  0.00    -0.330 N 
ATOM      7  C   UNL     1       1.769  -1.256   1.152  0.00  0.00    +0.216 C 
ATOM      8  N   UNL     1       0.648  -0.459   1.238  0.00  0.00    -0.213 N 
ATOM      9  N   UNL     1       0.391  -0.273   2.598  0.00  0.00    -0.233 N 
ATOM     10  C   UNL     1       1.364  -0.961   3.272  0.00  0.00    +0.197 C 
ATOM     11  N   UNL     1       2.161  -1.534   2.408  0.00  0.00    -0.184 NA
ATOM     12  N   UNL     1       1.481  -1.041   4.631  0.00  0.00    -0.330 N 
ATOM     13  C   UNL     1       2.396  -1.701  -2.474  0.00  0.00    +0.063 C 
ATOM     14  H   UNL     1       0.841  -0.587   5.200  0.00  0.00    +0.145 HD
ATOM     15  H   UNL     1       2.205  -1.553   5.026  0.00  0.00    +0.145 HD
ATOM     16  H   UNL     1      -0.334   0.241   2.988  0.00  0.00    +0.173 HD
ATOM     17  H   UNL     1       3.049  -2.162  -0.033  0.00  0.00    +0.168 HD
ENDBRANCH   1   4
BRANCH   1  18
ATOM     18  C   UNL     1      -1.017  -1.018  -3.021  0.00  0.00    +0.217 C 
ATOM     19  O   UNL     1      -1.309  -1.936  -2.284  0.00  0.00    -0.275 OA
ATOM     20  N   UNL     1      -1.673  -0.855  -4.187  0.00  0.00    -0.315 N 
ATOM     21  H   UNL     1      -1.439  -0.121  -4.776  0.00  0.00    +0.149 HD
BRANCH  20  22
ATOM     22  C   UNL     1      -2.738  -1.787  -4.564  0.00  0.00    +0.109 C 
BRANCH  22  23
ATOM     23  C   UNL     1      -3.314  -1.380  -5.922  0.00  0.00    +0.056 C 
BRANCH  23  24
ATOM     24  C   UNL     1      -4.410  -2.338  -6.311  0.00  0.00    -0.021 A 
ATOM     25  C   UNL     1      -5.817  -2.261  -5.910  0.00  0.00    +0.003 A 
ATOM     26  C   UNL     1      -6.554  -1.378  -5.120  0.00  0.00    +0.010 A 
ATOM     27  C   UNL     1      -7.891  -1.587  -4.934  0.00  0.00    +0.001 A 
ATOM     28  C   UNL     1      -8.524  -2.673  -5.524  0.00  0.00    +0.002 A 
ATOM     29  C   UNL     1      -7.815  -3.558  -6.308  0.00  0.00    +0.026 A 
ATOM     30  C   UNL     1      -6.453  -3.363  -6.511  0.00  0.00    +0.047 A 
ATOM     31  N   UNL     1      -5.493  -4.049  -7.220  0.00  0.00    -0.360 N 
ATOM     32  C   UNL     1      -4.284  -3.421  -7.094  0.00  0.00    +0.087 A 
ATOM     33  H   UNL     1      -5.651  -4.855  -7.736  0.00  0.00    +0.165 HD
ENDBRANCH  23  24
ENDBRANCH  22  23
ENDBRANCH  20  22
ENDBRANCH   1  18
TORSDOF 5
