REMARK  Name = ZINC12140799
REMARK  11 active torsions:
REMARK  status: ('A' for Active; 'I' for Inactive)
REMARK    1  A    between atoms: C_1  and  N_64
REMARK    2  A    between atoms: C_2  and  N_64
REMARK    3  A    between atoms: C_3  and  C_4
REMARK    4  A    between atoms: C_3  and  N_64
REMARK    5  A    between atoms: C_4  and  N_5
REMARK    6  A    between atoms: C_16  and  C_18
REMARK    7  A    between atoms: C_21  and  S_24
REMARK    8  A    between atoms: S_24  and  N_27
REMARK    9  A    between atoms: N_27  and  C_28
REMARK   10  A    between atoms: N_27  and  C_29
REMARK   11  A    between atoms: C_29  and  C_30
REMARK                            x       y       z     vdW  Elec       q    Type
REMARK                         _______ _______ _______ _____ _____    ______ ____
ROOT
ATOM      1  N   UNL     1       1.348   3.059   0.645  0.00  0.00    -0.248 N 
ATOM      2  C   UNL     1       1.508   1.707   0.397  0.00  0.00    +0.168 A 
ATOM      3  N   UNL     1       0.629   0.842  -0.053  0.00  0.00    -0.224 NA
ATOM      4  C   UNL     1       0.927  -0.461  -0.250  0.00  0.00    +0.080 A 
ATOM      5  C   UNL     1       0.079  -1.488  -0.726  0.00  0.00    +0.032 A 
ATOM      6  C   UNL     1       0.543  -2.769  -0.869  0.00  0.00    +0.040 A 
ATOM      7  C   UNL     1       1.853  -3.106  -0.554  0.00  0.00    +0.125 A 
ATOM      8  C   UNL     1       2.711  -2.125  -0.085  0.00  0.00    +0.055 A 
ATOM      9  C   UNL     1       2.253  -0.839   0.061  0.00  0.00    +0.043 A 
ATOM     10  S   UNL     1       2.966   0.694   0.607  0.00  0.00    -0.052 S 
ATOM     11  F   UNL     1       2.287  -4.377  -0.704  0.00  0.00    -0.205 F 
ATOM     12  C   UNL     1       0.157   3.649   0.420  0.00  0.00    +0.252 C 
ATOM     13  O   UNL     1      -0.740   3.025  -0.113  0.00  0.00    -0.270 OA
ENDROOT
BRANCH  12  14
ATOM     14  C   UNL     1      -0.060   5.055   0.822  0.00  0.00    +0.037 A 
ATOM     15  C   UNL     1       1.010   5.952   0.837  0.00  0.00    +0.015 A 
ATOM     16  C   UNL     1       0.800   7.264   1.208  0.00  0.00    +0.029 A 
ATOM     17  C   UNL     1      -0.465   7.688   1.576  0.00  0.00    +0.106 A 
ATOM     18  C   UNL     1      -1.528   6.803   1.569  0.00  0.00    +0.029 A 
ATOM     19  C   UNL     1      -1.333   5.489   1.195  0.00  0.00    +0.015 A 
BRANCH  17  20
ATOM     20  S   UNL     1      -0.723   9.364   2.056  0.00  0.00    +0.061 S 
ATOM     21  O   UNL     1       0.318  10.123   1.456  0.00  0.00    -0.153 OA
ATOM     22  O   UNL     1      -2.097   9.644   1.830  0.00  0.00    -0.153 OA
BRANCH  20  23
ATOM     23  N   UNL     1      -0.485   9.447   3.692  0.00  0.00    -0.177 NA
ATOM     24  C   UNL     1       0.850   9.728   4.226  0.00  0.00    +0.131 C 
BRANCH  23  25
ATOM     25  C   UNL     1      -1.611   9.240   4.607  0.00  0.00    +0.140 C 
BRANCH  25  26
ATOM     26  C   UNL     1      -1.643   7.777   5.054  0.00  0.00    +0.134 C 
ATOM     27  C   UNL     1      -2.824   7.549   6.017  0.00  0.00    +0.035 C 
ATOM     28  C   UNL     1      -3.669   6.451   5.327  0.00  0.00    +0.031 C 
ATOM     29  C   UNL     1      -2.639   5.803   4.367  0.00  0.00    +0.160 C 
ATOM     30  O   UNL     1      -1.847   6.923   3.916  0.00  0.00    -0.375 OA
ENDBRANCH  25  26
ENDBRANCH  23  25
ENDBRANCH  20  23
ENDBRANCH  17  20
ENDBRANCH  12  14
BRANCH   1  31
ATOM     31  C   UNL     1       2.472   3.850   1.151  0.00  0.00    +0.097 C 
BRANCH  31  32
ATOM     32  C   UNL     1       3.404   4.212  -0.007  0.00  0.00    -0.060 C 
BRANCH  32  35
ATOM     33  C   UNL     1       5.602   5.079  -0.535  0.00  0.00    -0.097 C 
ATOM     34  C   UNL     1       4.231   6.185   1.126  0.00  0.00    -0.097 C 
ATOM     35  N   UNL     1       4.604   4.882   0.537  0.00  0.00    +0.377 N 
ATOM     36  H   UNL     1       5.013   4.290   1.269  0.00  0.00    -0.083 HD
ENDBRANCH  32  35
ENDBRANCH  31  32
ENDBRANCH   1  31
TORSDOF 8
