REMARK  Name = ZINC12250434
REMARK  7 active torsions:
REMARK  status: ('A' for Active; 'I' for Inactive)
REMARK    1  A    between atoms: C_1  and  O_2
REMARK    2  A    between atoms: O_2  and  C_3
REMARK    3  A    between atoms: C_6  and  C_9
REMARK    4  A    between atoms: C_9  and  C_11
REMARK    5  A    between atoms: C_12  and  N_32
REMARK    6  A    between atoms: C_14  and  C_27
REMARK    7  A    between atoms: C_16  and  C_20
REMARK                            x       y       z     vdW  Elec       q    Type
REMARK                         _______ _______ _______ _____ _____    ______ ____
ROOT
ATOM      1  C   UNL     1      -3.416   0.198   2.755  0.00  0.00    +0.083 A 
ATOM      2  C   UNL     1      -2.159   0.089   2.184  0.00  0.00    +0.053 A 
ATOM      3  C   UNL     1      -1.887  -0.992   1.326  0.00  0.00    +0.040 A 
ATOM      4  C   UNL     1      -0.665  -1.289   0.638  0.00  0.00    +0.031 A 
ATOM      5  C   UNL     1      -0.606  -2.421  -0.164  0.00  0.00    +0.040 A 
ATOM      6  C   UNL     1      -1.722  -3.244  -0.296  0.00  0.00    +0.073 A 
ATOM      7  N   UNL     1      -2.850  -2.954   0.344  0.00  0.00    -0.239 NA
ATOM      8  C   UNL     1      -2.955  -1.894   1.114  0.00  0.00    +0.112 A 
ATOM      9  S   UNL     1      -4.275  -1.219   2.094  0.00  0.00    -0.064 S 
ENDROOT
BRANCH   6  10
ATOM     10  C   UNL     1      -1.651  -4.451  -1.154  0.00  0.00    +0.000 A 
ATOM     11  C   UNL     1      -0.473  -4.758  -1.833  0.00  0.00    +0.011 A 
ATOM     12  C   UNL     1      -0.410  -5.885  -2.626  0.00  0.00    +0.020 A 
ATOM     13  C   UNL     1      -1.519  -6.704  -2.758  0.00  0.00    +0.041 A 
ATOM     14  C   UNL     1      -2.694  -6.400  -2.091  0.00  0.00    +0.020 A 
ATOM     15  C   UNL     1      -2.765  -5.279  -1.291  0.00  0.00    +0.011 A 
ATOM     16 CL   UNL     1      -1.436  -8.117  -3.764  0.00  0.00    -0.084 Cl
ENDBRANCH   6  10
BRANCH   4  17
ATOM     17  C   UNL     1       0.509  -0.411   0.784  0.00  0.00    +0.136 A 
ATOM     18  C   UNL     1       1.208   0.166  -0.234  0.00  0.00    +0.050 A 
ATOM     19  C   UNL     1       2.242   0.914   0.359  0.00  0.00    +0.042 A 
ATOM     20  C   UNL     1       2.127   0.761   1.694  0.00  0.00    +0.196 A 
ATOM     21  O   UNL     1       1.080  -0.040   1.947  0.00  0.00    -0.463 OA
ENDBRANCH   4  17
BRANCH   2  22
ATOM     22  N   UNL     1      -1.181   1.034   2.455  0.00  0.00    -0.356 N 
ATOM     23  H   UNL     1      -0.437   1.152   1.843  0.00  0.00    +0.142 HD
ATOM     24  H   UNL     1      -1.240   1.578   3.256  0.00  0.00    +0.142 HD
ENDBRANCH   2  22
BRANCH   1  25
ATOM     25  C   UNL     1      -3.901   1.191   3.636  0.00  0.00    +0.202 C 
ATOM     26  O   UNL     1      -3.213   2.163   3.897  0.00  0.00    -0.286 OA
BRANCH  25  30
ATOM     27  C   UNL     1      -7.756   0.788   5.376  0.00  0.00    +0.120 A 
ATOM     28  C   UNL     1      -7.072  -0.340   4.937  0.00  0.00    +0.046 A 
ATOM     29  C   UNL     1      -5.822  -0.213   4.372  0.00  0.00    +0.015 A 
ATOM     30  C   UNL     1      -5.242   1.051   4.241  0.00  0.00    +0.023 A 
ATOM     31  C   UNL     1      -5.930   2.182   4.689  0.00  0.00    +0.015 A 
ATOM     32  C   UNL     1      -7.181   2.047   5.247  0.00  0.00    +0.046 A 
BRANCH  27  34
ATOM     33  C   UNL     1      -9.634   1.859   6.361  0.00  0.00    +0.277 C 
ATOM     34  O   UNL     1      -8.988   0.659   5.931  0.00  0.00    -0.495 OA
ENDBRANCH  27  34
ENDBRANCH  25  30
ENDBRANCH   1  25
TORSDOF 6
