REMARK  Name = ZINC32435795
REMARK  9 active torsions:
REMARK  status: ('A' for Active; 'I' for Inactive)
REMARK    1  A    between atoms: C_1  and  O_2
REMARK    2  A    between atoms: O_2  and  C_3
REMARK    3  A    between atoms: C_5  and  N_30
REMARK    4  A    between atoms: C_8  and  S_9
REMARK    5  A    between atoms: S_9  and  N_12
REMARK    6  A    between atoms: N_12  and  C_13
REMARK    7  A    between atoms: C_13  and  C_14
REMARK    8  A    between atoms: C_17  and  C_20
REMARK    9  A    between atoms: C_20  and  N_21
REMARK                            x       y       z     vdW  Elec       q    Type
REMARK                         _______ _______ _______ _____ _____    ______ ____
ROOT
ATOM      1  C   UNL     1      -7.238   2.501  -1.122  0.00  0.00    +0.141 C 
ENDROOT
BRANCH   1   2
ATOM      2  C   UNL     1      -8.000   2.509  -2.422  0.00  0.00    -0.032 A 
ATOM      3  C   UNL     1      -9.383   2.492  -2.413  0.00  0.00    +0.005 A 
ATOM      4  C   UNL     1     -10.082   2.504  -3.606  0.00  0.00    +0.005 A 
ATOM      5  C   UNL     1      -9.398   2.525  -4.808  0.00  0.00    -0.030 A 
ATOM      6  C   UNL     1      -8.016   2.537  -4.816  0.00  0.00    +0.005 A 
ATOM      7  C   UNL     1      -7.317   2.529  -3.624  0.00  0.00    +0.005 A 
BRANCH   5   8
ATOM      8  C   UNL     1     -10.160   2.534  -6.108  0.00  0.00    +0.140 C 
BRANCH   8   9
ATOM      9  N   UNL     1     -10.502   1.156  -6.485  0.00  0.00    -0.325 N 
ATOM     10  C   UNL     1      -9.284   0.369  -6.776  0.00  0.00    +0.110 C 
ATOM     11  C   UNL     1      -9.776  -0.632  -7.846  0.00  0.00    +0.056 C 
ATOM     12  C   UNL     1     -10.945   0.098  -8.477  0.00  0.00    -0.025 A 
ATOM     13  C   UNL     1     -11.312   1.134  -7.627  0.00  0.00    +0.033 A 
ATOM     14  C   UNL     1     -12.368   1.967  -7.991  0.00  0.00    +0.023 A 
ATOM     15  C   UNL     1     -13.041   1.758  -9.177  0.00  0.00    +0.002 A 
ATOM     16  C   UNL     1     -12.672   0.720 -10.013  0.00  0.00    +0.000 A 
ATOM     17  C   UNL     1     -11.622  -0.110  -9.660  0.00  0.00    +0.005 A 
ENDBRANCH   8   9
ENDBRANCH   5   8
ENDBRANCH   1   2
BRANCH   1  18
ATOM     18  N   UNL     1      -7.003   3.879  -0.685  0.00  0.00    -0.186 NA
ATOM     19  H   UNL     1      -6.982   4.694  -1.423  0.00  0.00    +0.148 HD
BRANCH  18  20
ATOM     20  S   UNL     1      -6.526   4.184   0.872  0.00  0.00    +0.062 S 
ATOM     21  O   UNL     1      -7.408   3.457   1.716  0.00  0.00    -0.153 OA
ATOM     22  O   UNL     1      -6.357   5.591   0.976  0.00  0.00    -0.153 OA
BRANCH  20  28
ATOM     23  C   UNL     1      -4.770   2.092   1.000  0.00  0.00    +0.148 A 
ATOM     24  C   UNL     1      -3.511   1.532   1.161  0.00  0.00    +0.080 A 
ATOM     25  C   UNL     1      -2.420   2.345   1.398  0.00  0.00    +0.130 A 
ATOM     26  C   UNL     1      -2.582   3.716   1.479  0.00  0.00    +0.035 A 
ATOM     27  C   UNL     1      -3.834   4.277   1.313  0.00  0.00    +0.034 A 
ATOM     28  C   UNL     1      -4.929   3.468   1.077  0.00  0.00    +0.147 A 
BRANCH  25  29
ATOM     29  N   UNL     1      -1.076   1.748   1.571  0.00  0.00    +0.057 N 
ATOM     30  O   UNL     1      -0.934   0.540   1.504  0.00  0.00    -0.126 OA
ATOM     31  O   UNL     1      -0.113   2.465   1.774  0.00  0.00    -0.126 OA
ENDBRANCH  25  29
BRANCH  23  33
ATOM     32  C   UNL     1      -5.606  -0.113   0.699  0.00  0.00    +0.277 C 
ATOM     33  O   UNL     1      -5.845   1.295   0.766  0.00  0.00    -0.493 OA
ENDBRANCH  23  33
ENDBRANCH  20  28
ENDBRANCH  18  20
ENDBRANCH   1  18
TORSDOF 8
