REMARK  Name = ZINC45781667
REMARK  8 active torsions:
REMARK  status: ('A' for Active; 'I' for Inactive)
REMARK    1  A    between atoms: C_1  and  C_2
REMARK    2  A    between atoms: C_5  and  C_9
REMARK    3  A    between atoms: C_6  and  C_8
REMARK    4  A    between atoms: C_10  and  C_11
REMARK    5  A    between atoms: N_13  and  C_14
REMARK    6  A    between atoms: C_14  and  C_16
REMARK    7  A    between atoms: C_14  and  C_17
REMARK    8  A    between atoms: C_20  and  N_23
REMARK                            x       y       z     vdW  Elec       q    Type
REMARK                         _______ _______ _______ _____ _____    ______ ____
ROOT
ATOM      1  C   UNL     1       0.080  -8.517  -2.388  0.00  0.00    +0.100 C 
ATOM      2  C   UNL     1      -1.264  -9.214  -2.163  0.00  0.00    +0.033 C 
ENDROOT
BRANCH   1   3
ATOM      3  C   UNL     1       0.687  -9.002  -3.679  0.00  0.00    -0.027 A 
ATOM      4  C   UNL     1       0.256  -8.478  -4.884  0.00  0.00    +0.007 A 
ATOM      5  C   UNL     1       0.811  -8.920  -6.069  0.00  0.00    +0.023 A 
ATOM      6  C   UNL     1       1.801  -9.893  -6.050  0.00  0.00    +0.035 A 
ATOM      7  C   UNL     1       2.231 -10.418  -4.838  0.00  0.00    +0.023 A 
ATOM      8  C   UNL     1       1.677  -9.967  -3.656  0.00  0.00    +0.007 A 
BRANCH   6   9
ATOM      9  N   UNL     1       2.365 -10.345  -7.249  0.00  0.00    -0.270 N 
ATOM     10  C   UNL     1       2.507  -9.498  -8.287  0.00  0.00    +0.301 C 
ATOM     11  O   UNL     1       2.236  -8.320  -8.153  0.00  0.00    -0.253 OA
ATOM     12  N   UNL     1       2.949  -9.956  -9.475  0.00  0.00    -0.313 N 
ATOM     13  H   UNL     1       2.653 -11.267  -7.332  0.00  0.00    +0.156 HD
ATOM     14  H   UNL     1       3.165 -10.895  -9.582  0.00  0.00    +0.146 HD
ATOM     15  H   UNL     1       3.051  -9.346 -10.223  0.00  0.00    +0.146 HD
ENDBRANCH   6   9
ENDBRANCH   1   3
BRANCH   1  18
ATOM     16  C   UNL     1      -0.171  -6.337  -1.330  0.00  0.00    +0.237 C 
ATOM     17  O   UNL     1      -0.038  -6.879  -0.248  0.00  0.00    -0.271 OA
ATOM     18  N   UNL     1      -0.128  -7.068  -2.461  0.00  0.00    -0.305 N 
ATOM     19  H   UNL     1      -0.234  -6.636  -3.322  0.00  0.00    +0.150 HD
BRANCH  16  21
ATOM     20  C   UNL     1      -0.422  -4.157  -0.271  0.00  0.00    +0.013 C 
ATOM     21  C   UNL     1      -0.379  -4.889  -1.402  0.00  0.00    +0.068 C 
BRANCH  20  26
ATOM     22  C   UNL     1      -1.238   1.527  -0.554  0.00  0.00    +0.044 C 
ATOM     23  C   UNL     1      -1.024   0.037  -0.480  0.00  0.00    -0.050 A 
ATOM     24  C   UNL     1      -0.980  -0.711  -1.643  0.00  0.00    +0.004 A 
ATOM     25  C   UNL     1      -0.784  -2.074  -1.584  0.00  0.00    +0.008 A 
ATOM     26  C   UNL     1      -0.630  -2.701  -0.343  0.00  0.00    -0.022 A 
ATOM     27  C   UNL     1      -0.676  -1.939   0.828  0.00  0.00    -0.043 A 
ATOM     28  C   UNL     1      -0.867  -0.575   0.751  0.00  0.00    +0.007 A 
ATOM     29  C   UNL     1      -0.511  -2.604   2.170  0.00  0.00    +0.044 C 
ENDBRANCH  20  26
ENDBRANCH  16  21
ENDBRANCH   1  18
TORSDOF 5
