REMARK  Name = ZINC12601185
REMARK  8 active torsions:
REMARK  status: ('A' for Active; 'I' for Inactive)
REMARK    1  A    between atoms: C_4  and  N_31
REMARK    2  A    between atoms: C_5  and  C_7
REMARK    3  A    between atoms: C_7  and  O_9
REMARK    4  A    between atoms: O_9  and  C_10
REMARK    5  A    between atoms: C_10  and  C_11
REMARK    6  A    between atoms: C_14  and  C_26
REMARK    7  A    between atoms: C_17  and  C_19
REMARK    8  A    between atoms: C_32  and  C_34
REMARK                            x       y       z     vdW  Elec       q    Type
REMARK                         _______ _______ _______ _____ _____    ______ ____
ROOT
ATOM      1  C   UNL     1      -1.341   1.977  -3.519  0.00  0.00    +0.330 C 
ENDROOT
BRANCH   1   2
ATOM      2  C   UNL     1      -0.462   1.391  -2.444  0.00  0.00    +0.273 C 
ATOM      3  O   UNL     1       0.516   0.741  -2.748  0.00  0.00    -0.270 OA
ATOM      4  N   UNL     1      -0.762   1.589  -1.146  0.00  0.00    -0.179 N 
ATOM      5  C   UNL     1       0.007   1.076  -0.001  0.00  0.00    +0.173 C 
ATOM      6  C   UNL     1      -0.772   1.595   1.224  0.00  0.00    +0.090 C 
ATOM      7  C   UNL     1      -1.929   2.363   0.617  0.00  0.00    +0.069 C 
ATOM      8  N   UNL     1      -1.852   2.314  -0.667  0.00  0.00    -0.181 NA
BRANCH   7   9
ATOM      9  C   UNL     1      -2.979   3.061   1.381  0.00  0.00    -0.002 A 
ATOM     10  C   UNL     1      -2.962   3.041   2.778  0.00  0.00    +0.011 A 
ATOM     11  C   UNL     1      -3.945   3.701   3.486  0.00  0.00    +0.020 A 
ATOM     12  C   UNL     1      -4.953   4.373   2.816  0.00  0.00    +0.041 A 
ATOM     13  C   UNL     1      -4.979   4.392   1.431  0.00  0.00    +0.020 A 
ATOM     14  C   UNL     1      -4.000   3.741   0.711  0.00  0.00    +0.011 A 
ATOM     15 CL   UNL     1      -6.189   5.195   3.715  0.00  0.00    -0.084 Cl
ENDBRANCH   7   9
BRANCH   5  16
ATOM     16  C   UNL     1       1.408   1.630  -0.012  0.00  0.00    +0.128 A 
ATOM     17  C   UNL     1       2.519   0.967   0.356  0.00  0.00    +0.046 A 
ATOM     18  C   UNL     1       3.603   1.860   0.188  0.00  0.00    +0.041 A 
ATOM     19  C   UNL     1       3.089   3.015  -0.272  0.00  0.00    +0.195 A 
ATOM     20  O   UNL     1       1.760   2.868  -0.397  0.00  0.00    -0.466 OA
ENDBRANCH   5  16
ENDBRANCH   1   2
BRANCH   1  21
ATOM     21  O   UNL     1      -0.809   1.625  -4.824  0.00  0.00    -0.452 OA
BRANCH  21  22
ATOM     22  C   UNL     1      -1.483   2.075  -5.901  0.00  0.00    +0.341 C 
ATOM     23  O   UNL     1      -2.488   2.743  -5.753  0.00  0.00    -0.245 OA
BRANCH  22  28
ATOM     24  C   UNL     1       0.650   0.785  -8.704  0.00  0.00    +0.001 A 
ATOM     25  C   UNL     1      -0.096   1.159  -9.810  0.00  0.00    +0.002 A 
ATOM     26  C   UNL     1      -1.291   1.829  -9.652  0.00  0.00    +0.024 A 
ATOM     27  C   UNL     1      -1.756   2.135  -8.380  0.00  0.00    +0.048 A 
ATOM     28  C   UNL     1      -1.003   1.757  -7.257  0.00  0.00    +0.080 A 
ATOM     29  C   UNL     1       0.209   1.083  -7.433  0.00  0.00    +0.017 A 
BRANCH  27  30
ATOM     30  N   UNL     1      -2.960   2.811  -8.218  0.00  0.00    -0.278 N 
ATOM     31  C   UNL     1      -3.981   2.583  -9.069  0.00  0.00    +0.284 C 
ATOM     32  O   UNL     1      -3.883   1.716  -9.917  0.00  0.00    -0.266 OA
ATOM     33  H   UNL     1      -3.066   3.448  -7.494  0.00  0.00    +0.155 HD
BRANCH  31  34
ATOM     34  C   UNL     1      -5.209   3.378  -8.971  0.00  0.00    +0.189 A 
ATOM     35  C   UNL     1      -6.313   3.250  -9.765  0.00  0.00    +0.054 A 
ATOM     36  C   UNL     1      -7.241   4.204  -9.321  0.00  0.00    +0.042 A 
ATOM     37  C   UNL     1      -6.671   4.864  -8.288  0.00  0.00    +0.196 A 
ATOM     38  O   UNL     1      -5.448   4.359  -8.077  0.00  0.00    -0.458 OA
ENDBRANCH  31  34
ENDBRANCH  27  30
ENDBRANCH  22  28
ENDBRANCH  21  22
ENDBRANCH   1  21
TORSDOF 8
