REMARK  Name = ZINC20243881
REMARK  7 active torsions:
REMARK  status: ('A' for Active; 'I' for Inactive)
REMARK    1  A    between atoms: C_1  and  C_2
REMARK    2  A    between atoms: C_3  and  C_15
REMARK    3  A    between atoms: C_5  and  C_13
REMARK    4  A    between atoms: N_6  and  C_7
REMARK    5  A    between atoms: N_16  and  N_17
REMARK    6  A    between atoms: C_18  and  C_20
REMARK    7  A    between atoms: C_25  and  O_26
REMARK                            x       y       z     vdW  Elec       q    Type
REMARK                         _______ _______ _______ _____ _____    ______ ____
ROOT
ATOM      1  C   UNL     1      -0.018   1.503   0.010  0.00  0.00    +0.064 C 
ATOM      2  C   UNL     1       0.002  -0.004   0.002  0.00  0.00    +0.031 A 
ATOM      3  C   UNL     1       0.008  -0.798  -1.109  0.00  0.00    +0.030 A 
ATOM      4  C   UNL     1       0.029  -2.182  -0.625  0.00  0.00    +0.048 A 
ATOM      5  C   UNL     1       0.034  -2.119   0.719  0.00  0.00    +0.036 A 
ATOM      6  N   UNL     1       0.023  -0.807   1.100  0.00  0.00    -0.316 N 
ATOM      7  C   UNL     1       0.053  -3.303   1.652  0.00  0.00    +0.065 C 
ATOM      8 BR   UNL     1       0.045  -3.749  -1.684  0.00  0.00    -0.048 Br
ENDROOT
BRANCH   6   9
ATOM      9  C   UNL     1       0.030  -0.355   2.427  0.00  0.00    +0.047 A 
ATOM     10  C   UNL     1       1.113   0.369   2.909  0.00  0.00    +0.026 A 
ATOM     11  C   UNL     1       1.117   0.813   4.217  0.00  0.00    +0.002 A 
ATOM     12  C   UNL     1       0.045   0.537   5.046  0.00  0.00    +0.000 A 
ATOM     13  C   UNL     1      -1.034  -0.184   4.568  0.00  0.00    +0.002 A 
ATOM     14  C   UNL     1      -1.047  -0.625   3.260  0.00  0.00    +0.026 A 
ENDBRANCH   6   9
BRANCH   3  15
ATOM     15  C   UNL     1      -0.004  -0.353  -2.514  0.00  0.00    +0.141 C 
ATOM     16  N   UNL     1       0.004  -1.228  -3.473  0.00  0.00    -0.187 NA
BRANCH  16  17
ATOM     17  N   UNL     1      -0.008  -0.805  -4.808  0.00  0.00    -0.203 N 
ATOM     18  C   UNL     1       0.001  -1.714  -5.803  0.00  0.00    +0.267 C 
ATOM     19  O   UNL     1       0.018  -2.902  -5.542  0.00  0.00    -0.268 OA
ATOM     20  H   UNL     1      -0.022   0.142  -5.017  0.00  0.00    +0.178 HD
BRANCH  18  21
ATOM     21  C   UNL     1      -0.011  -1.268  -7.209  0.00  0.00    +0.080 A 
ATOM     22  C   UNL     1      -0.026   0.095  -7.514  0.00  0.00    +0.017 A 
ATOM     23  C   UNL     1      -0.037   0.505  -8.830  0.00  0.00    +0.001 A 
ATOM     24  C   UNL     1      -0.035  -0.429  -9.853  0.00  0.00    +0.004 A 
ATOM     25  C   UNL     1      -0.021  -1.779  -9.566  0.00  0.00    +0.046 A 
ATOM     26  C   UNL     1      -0.003  -2.210  -8.247  0.00  0.00    +0.129 A 
BRANCH  26  27
ATOM     27  O   UNL     1       0.017  -3.536  -7.964  0.00  0.00    -0.506 OA
ATOM     28  H   UNL     1      -0.860  -3.933  -7.878  0.00  0.00    +0.292 HD
ENDBRANCH  26  27
ENDBRANCH  18  21
ENDBRANCH  16  17
ENDBRANCH   3  15
TORSDOF 5
