REMARK  Name = ZINC37382517
REMARK  11 active torsions:
REMARK  status: ('A' for Active; 'I' for Inactive)
REMARK    1  A    between atoms: C_1  and  O_2
REMARK    2  A    between atoms: O_2  and  C_3
REMARK    3  A    between atoms: C_6  and  C_9
REMARK    4  A    between atoms: C_17  and  N_19
REMARK    5  A    between atoms: N_19  and  C_20
REMARK    6  A    between atoms: N_19  and  C_31
REMARK    7  A    between atoms: C_20  and  C_21
REMARK    8  A    between atoms: C_21  and  C_22
REMARK    9  A    between atoms: N_24  and  C_25
REMARK   10  A    between atoms: C_25  and  C_26
REMARK   11  A    between atoms: C_31  and  C_32
REMARK                            x       y       z     vdW  Elec       q    Type
REMARK                         _______ _______ _______ _____ _____    ______ ____
ROOT
ATOM      1  N   UNL     1       3.115  -5.847  -5.452  0.00  0.00    -0.307 N 
ENDROOT
BRANCH   1  10
ATOM      2  C   UNL     1       4.056  -2.460  -4.774  0.00  0.00    +0.162 A 
ATOM      3  N   UNL     1       3.097  -1.734  -5.318  0.00  0.00    -0.227 NA
ATOM      4  C   UNL     1       2.072  -2.326  -5.946  0.00  0.00    +0.077 A 
ATOM      5  C   UNL     1       1.036  -1.585  -6.534  0.00  0.00    +0.028 A 
ATOM      6  C   UNL     1       0.016  -2.236  -7.162  0.00  0.00    +0.002 A 
ATOM      7  C   UNL     1      -0.014  -3.626  -7.229  0.00  0.00    +0.001 A 
ATOM      8  C   UNL     1       0.977  -4.377  -6.668  0.00  0.00    +0.013 A 
ATOM      9  C   UNL     1       2.039  -3.740  -6.016  0.00  0.00    +0.040 A 
ATOM     10  C   UNL     1       3.096  -4.468  -5.415  0.00  0.00    +0.133 A 
ATOM     11  N   UNL     1       4.067  -3.791  -4.821  0.00  0.00    -0.212 NA
BRANCH   2  15
ATOM     12  C   UNL     1       7.255  -0.466  -2.807  0.00  0.00    +0.120 A 
ATOM     13  C   UNL     1       6.228   0.272  -3.383  0.00  0.00    +0.046 A 
ATOM     14  C   UNL     1       5.190  -0.372  -4.022  0.00  0.00    +0.015 A 
ATOM     15  C   UNL     1       5.171  -1.765  -4.089  0.00  0.00    +0.019 A 
ATOM     16  C   UNL     1       6.204  -2.502  -3.509  0.00  0.00    +0.015 A 
ATOM     17  C   UNL     1       7.242  -1.853  -2.877  0.00  0.00    +0.046 A 
BRANCH  12  19
ATOM     18  C   UNL     1       8.227   1.599  -2.143  0.00  0.00    +0.277 C 
ATOM     19  O   UNL     1       8.276   0.172  -2.178  0.00  0.00    -0.495 OA
ENDBRANCH  12  19
ENDBRANCH   2  15
ENDBRANCH   1  10
BRANCH   1  20
ATOM     20  C   UNL     1       2.596  -6.617  -4.319  0.00  0.00    +0.116 C 
BRANCH  20  21
ATOM     21  C   UNL     1       1.104  -6.888  -4.527  0.00  0.00    +0.114 C 
BRANCH  21  22
ATOM     22  C   UNL     1       0.570  -7.680  -3.362  0.00  0.00    +0.215 C 
ATOM     23  O   UNL     1       1.309  -7.997  -2.455  0.00  0.00    -0.276 OA
ATOM     24  N   UNL     1      -0.730  -8.036  -3.329  0.00  0.00    -0.308 N 
ATOM     25  H   UNL     1      -1.321  -7.783  -4.055  0.00  0.00    +0.149 HD
BRANCH  24  26
ATOM     26  C   UNL     1      -1.249  -8.807  -2.197  0.00  0.00    +0.178 C 
BRANCH  26  27
ATOM     27  C   UNL     1      -2.718  -9.073  -2.402  0.00  0.00    +0.122 A 
ATOM     28  C   UNL     1      -3.244 -10.143  -3.025  0.00  0.00    +0.046 A 
ATOM     29  C   UNL     1      -4.649  -9.988  -2.990  0.00  0.00    +0.041 A 
ATOM     30  C   UNL     1      -4.897  -8.833  -2.348  0.00  0.00    +0.195 A 
ATOM     31  O   UNL     1      -3.725  -8.286  -1.989  0.00  0.00    -0.466 OA
ENDBRANCH  26  27
ENDBRANCH  24  26
ENDBRANCH  21  22
ENDBRANCH  20  21
ENDBRANCH   1  20
BRANCH   1  32
ATOM     32  C   UNL     1       3.656  -6.541  -6.623  0.00  0.00    +0.180 C 
BRANCH  32  33
ATOM     33  C   UNL     1       5.103  -6.883  -6.381  0.00  0.00    +0.122 A 
ATOM     34  C   UNL     1       5.560  -8.022  -5.830  0.00  0.00    +0.046 A 
ATOM     35  C   UNL     1       6.970  -7.922  -5.793  0.00  0.00    +0.041 A 
ATOM     36  C   UNL     1       7.290  -6.729  -6.324  0.00  0.00    +0.195 A 
ATOM     37  O   UNL     1       6.155  -6.106  -6.684  0.00  0.00    -0.466 OA
ENDBRANCH  32  33
ENDBRANCH   1  32
TORSDOF 10
