REMARK  Name = ZINC60091150
REMARK  7 active torsions:
REMARK  status: ('A' for Active; 'I' for Inactive)
REMARK    1  A    between atoms: C_1  and  C_2
REMARK    2  A    between atoms: C_2  and  C_3
REMARK    3  A    between atoms: C_3  and  C_4
REMARK    4  A    between atoms: C_4  and  C_6
REMARK    5  A    between atoms: C_4  and  N_20
REMARK    6  A    between atoms: N_8  and  C_9
REMARK    7  A    between atoms: C_13  and  C_15
REMARK                            x       y       z     vdW  Elec       q    Type
REMARK                         _______ _______ _______ _____ _____    ______ ____
ROOT
ATOM      1  C   UNL     1      -2.820  -2.584   0.139  0.00  0.00    +0.238 C 
ATOM      2  O   UNL     1      -3.426  -2.954  -0.845  0.00  0.00    -0.273 OA
ATOM      3  N   UNL     1      -3.408  -2.634   1.351  0.00  0.00    -0.284 N 
ATOM      4  H   UNL     1      -2.901  -2.402   2.145  0.00  0.00    +0.155 HD
ENDROOT
BRANCH   3   5
ATOM      5  C   UNL     1      -4.748  -3.019   1.463  0.00  0.00    +0.034 A 
ATOM      6  C   UNL     1      -5.267  -3.989   0.615  0.00  0.00    +0.024 A 
ATOM      7  C   UNL     1      -6.590  -4.368   0.728  0.00  0.00    +0.017 A 
ATOM      8  C   UNL     1      -7.399  -3.782   1.686  0.00  0.00    +0.030 A 
ATOM      9  C   UNL     1      -6.885  -2.816   2.532  0.00  0.00    +0.070 A 
ATOM     10  C   UNL     1      -5.561  -2.438   2.427  0.00  0.00    +0.036 A 
ATOM     11 BR   UNL     1      -9.211  -4.303   1.837  0.00  0.00    -0.050 Br
BRANCH   9  12
ATOM     12  C   UNL     1      -7.769  -2.180   3.574  0.00  0.00    +0.418 C 
ATOM     13  F   UNL     1      -7.031  -1.242   4.302  0.00  0.00    -0.166 F 
ATOM     14  F   UNL     1      -8.845  -1.543   2.947  0.00  0.00    -0.166 F 
ATOM     15  F   UNL     1      -8.253  -3.167   4.440  0.00  0.00    -0.166 F 
ENDBRANCH   9  12
ENDBRANCH   3   5
BRANCH   1  16
ATOM     16  C   UNL     1      -1.410  -2.070   0.006  0.00  0.00    +0.161 C 
BRANCH  16  17
ATOM     17  N   UNL     1      -0.835  -2.542  -1.256  0.00  0.00    -0.288 N 
ATOM     18  C   UNL     1      -1.415  -2.210  -2.427  0.00  0.00    +0.298 C 
ATOM     19  O   UNL     1      -2.415  -1.519  -2.436  0.00  0.00    -0.253 OA
ATOM     20  N   UNL     1      -0.886  -2.644  -3.588  0.00  0.00    -0.313 N 
ATOM     21  H   UNL     1      -0.037  -3.094  -1.250  0.00  0.00    +0.151 HD
ATOM     22  H   UNL     1      -0.088  -3.196  -3.581  0.00  0.00    +0.146 HD
ATOM     23  H   UNL     1      -1.303  -2.405  -4.431  0.00  0.00    +0.146 HD
ENDBRANCH  16  17
BRANCH  16  24
ATOM     24  C   UNL     1      -1.422  -0.540   0.020  0.00  0.00    +0.031 C 
BRANCH  24  26
ATOM     25  C   UNL     1       0.004   1.511   0.024  0.00  0.00    +0.004 C 
ATOM     26  C   UNL     1       0.016  -0.019   0.010  0.00  0.00    -0.001 C 
ENDBRANCH  24  26
ENDBRANCH  16  24
ENDBRANCH   1  16
TORSDOF 6
