REMARK  Name = ZINC11371679
REMARK  11 active torsions:
REMARK  status: ('A' for Active; 'I' for Inactive)
REMARK    1  A    between atoms: C_1  and  C_2
REMARK    2  A    between atoms: C_2  and  O_3
REMARK    3  A    between atoms: O_3  and  C_4
REMARK    4  A    between atoms: C_9  and  N_10
REMARK    5  A    between atoms: C_11  and  C_13
REMARK    6  A    between atoms: C_13  and  C_15
REMARK    7  A    between atoms: C_13  and  O_16
REMARK    8  A    between atoms: O_16  and  C_17
REMARK    9  A    between atoms: C_17  and  C_19
REMARK   10  A    between atoms: C_21  and  C_31
REMARK   11  A    between atoms: N_22  and  C_24
REMARK                            x       y       z     vdW  Elec       q    Type
REMARK                         _______ _______ _______ _____ _____    ______ ____
ROOT
ATOM      1  C   UNL     1       1.461   4.707  -0.015  0.00  0.00    +0.379 C 
ATOM      2  O   UNL     1       2.673   4.625  -0.034  0.00  0.00    -0.241 OA
ENDROOT
BRANCH   1   3
ATOM      3  C   UNL     1       0.637   3.481  -0.015  0.00  0.00    +0.260 A 
ATOM      4  N   UNL     1      -0.702   3.446   0.004  0.00  0.00    -0.200 NA
ATOM      5  C   UNL     1      -1.114   2.195  -0.009  0.00  0.00    +0.171 A 
ATOM      6  N   UNL     1      -0.009   1.390  -0.029  0.00  0.00    -0.211 N 
ATOM      7  N   UNL     1       1.103   2.248  -0.036  0.00  0.00    -0.137 NA
BRANCH   6   8
ATOM      8  C   UNL     1       0.010  -0.010  -0.045  0.00  0.00    +0.068 A 
ATOM      9  C   UNL     1      -0.951  -0.727   0.655  0.00  0.00    +0.030 A 
ATOM     10  C   UNL     1      -0.933  -2.107   0.634  0.00  0.00    +0.040 A 
ATOM     11  C   UNL     1       0.049  -2.777  -0.076  0.00  0.00    +0.124 A 
ATOM     12  C   UNL     1       1.012  -2.064  -0.771  0.00  0.00    +0.040 A 
ATOM     13  C   UNL     1       0.994  -0.683  -0.757  0.00  0.00    +0.030 A 
ATOM     14  F   UNL     1       0.068  -4.128  -0.092  0.00  0.00    -0.205 F 
ENDBRANCH   6   8
BRANCH   5  15
ATOM     15  C   UNL     1      -2.515   1.743  -0.001  0.00  0.00    +0.056 A 
ATOM     16  C   UNL     1      -3.651   2.454   0.294  0.00  0.00    +0.019 A 
ATOM     17  C   UNL     1      -4.866   1.813   0.233  0.00  0.00    +0.008 A 
ATOM     18  C   UNL     1      -4.905   0.499  -0.115  0.00  0.00    +0.046 A 
ATOM     19  S   UNL     1      -3.179   0.130  -0.380  0.00  0.00    -0.094 S 
ENDBRANCH   5  15
ENDBRANCH   1   3
BRANCH   1  20
ATOM     20  O   UNL     1       0.869   5.917   0.008  0.00  0.00    -0.446 OA
BRANCH  20  21
ATOM     21  C   UNL     1       1.741   7.078   0.007  0.00  0.00    +0.259 C 
ATOM     22  C   UNL     1       2.069   7.471   1.449  0.00  0.00    +0.062 C 
BRANCH  21  24
ATOM     23  N   UNL     1       1.706   9.383  -0.890  0.00  0.00    -0.280 N 
ATOM     24  C   UNL     1       1.048   8.226  -0.681  0.00  0.00    +0.258 C 
ATOM     25  O   UNL     1      -0.103   8.109  -1.045  0.00  0.00    -0.271 OA
ATOM     26  H   UNL     1       2.598   9.506  -0.528  0.00  0.00    +0.155 HD
BRANCH  23  32
ATOM     27  C   UNL     1       1.498  11.731  -1.442  0.00  0.00    +0.142 A 
ATOM     28  C   UNL     1       0.898  12.741  -2.177  0.00  0.00    +0.047 A 
ATOM     29  C   UNL     1      -0.089  12.436  -3.095  0.00  0.00    +0.004 A 
ATOM     30  C   UNL     1      -0.481  11.123  -3.282  0.00  0.00    +0.002 A 
ATOM     31  C   UNL     1       0.116  10.109  -2.558  0.00  0.00    +0.027 A 
ATOM     32  C   UNL     1       1.103  10.409  -1.631  0.00  0.00    +0.076 A 
BRANCH  27  33
ATOM     33  O   UNL     1       2.470  12.030  -0.539  0.00  0.00    -0.490 OA
BRANCH  33  35
ATOM     34  C   UNL     1       3.925  13.547   0.654  0.00  0.00    +0.048 C 
ATOM     35  C   UNL     1       2.823  13.408  -0.398  0.00  0.00    +0.226 C 
ENDBRANCH  33  35
ENDBRANCH  27  33
ENDBRANCH  23  32
ENDBRANCH  21  24
ENDBRANCH  20  21
ENDBRANCH   1  20
TORSDOF 9
