REMARK  Name = ZINC53114916
REMARK  5 active torsions:
REMARK  status: ('A' for Active; 'I' for Inactive)
REMARK    1  A    between atoms: C_1  and  C_2
REMARK    2  A    between atoms: C_7  and  C_9
REMARK    3  A    between atoms: C_7  and  N_11
REMARK    4  A    between atoms: C_9  and  O_10
REMARK    5  A    between atoms: C_17  and  N_22
REMARK                            x       y       z     vdW  Elec       q    Type
REMARK                         _______ _______ _______ _____ _____    ______ ____
ROOT
ATOM      1  N   UNL     1      -0.774  -2.470   1.371  0.00  0.00    -0.321 N 
ATOM      2  C   UNL     1      -1.662  -1.852   2.240  0.00  0.00    +0.120 A 
ATOM      3  C   UNL     1      -1.236  -0.738   2.977  0.00  0.00    +0.044 A 
ATOM      4  C   UNL     1      -2.097  -0.122   3.834  0.00  0.00    +0.013 A 
ATOM      5  C   UNL     1      -3.405  -0.634   3.951  0.00  0.00    +0.002 A 
ATOM      6  C   UNL     1      -4.341  -0.046   4.815  0.00  0.00    +0.032 A 
ATOM      7  C   UNL     1      -5.611  -0.575   4.902  0.00  0.00    +0.025 A 
ATOM      8  C   UNL     1      -5.970  -1.690   4.137  0.00  0.00    +0.025 A 
ATOM      9  C   UNL     1      -5.079  -2.276   3.293  0.00  0.00    +0.030 A 
ATOM     10  C   UNL     1      -3.776  -1.762   3.179  0.00  0.00    +0.073 A 
ATOM     11  N   UNL     1      -2.887  -2.323   2.350  0.00  0.00    -0.232 NA
ATOM     12  H   UNL     1      -1.081  -3.186   0.792  0.00  0.00    +0.148 HD
ENDROOT
BRANCH   1  18
ATOM     13  C   UNL     1       0.171   0.926  -1.087  0.00  0.00    +0.007 C 
ATOM     14  C   UNL     1       0.096  -0.516  -0.582  0.00  0.00    -0.012 C 
ATOM     15  C   UNL     1       0.880  -1.428  -1.528  0.00  0.00    +0.003 C 
ATOM     16  C   UNL     1       0.805  -2.871  -1.024  0.00  0.00    +0.002 C 
ATOM     17  C   UNL     1       1.409  -2.952   0.380  0.00  0.00    +0.028 C 
ATOM     18  C   UNL     1       0.625  -2.040   1.326  0.00  0.00    +0.057 C 
ATOM     19  C   UNL     1       0.700  -0.597   0.821  0.00  0.00    +0.031 C 
BRANCH  18  20
ATOM     20  C   UNL     1       1.229  -2.121   2.729  0.00  0.00    +0.181 C 
BRANCH  20  21
ATOM     21  O   UNL     1       1.204  -3.477   3.181  0.00  0.00    -0.393 OA
ATOM     22  H   UNL     1       1.572  -3.603   4.066  0.00  0.00    +0.209 HD
ENDBRANCH  20  21
ENDBRANCH  18  20
ENDBRANCH   1  18
BRANCH   7  23
ATOM     23  N   UNL     1      -6.547   0.007   5.761  0.00  0.00    -0.358 N 
ATOM     24  H   UNL     1      -6.302   0.780   6.293  0.00  0.00    +0.142 HD
ATOM     25  H   UNL     1      -7.442  -0.362   5.825  0.00  0.00    +0.142 HD
ENDBRANCH   7  23
TORSDOF 4
