REMARK  Name = ZINC39988240
REMARK  11 active torsions:
REMARK  status: ('A' for Active; 'I' for Inactive)
REMARK    1  A    between atoms: C_1  and  C_2
REMARK    2  A    between atoms: C_5  and  O_8
REMARK    3  A    between atoms: O_8  and  C_9
REMARK    4  A    between atoms: C_9  and  C_10
REMARK    5  A    between atoms: C_10  and  C_11
REMARK    6  A    between atoms: C_11  and  N_12
REMARK    7  A    between atoms: N_20  and  N_21
REMARK    8  A    between atoms: C_22  and  C_24
REMARK    9  A    between atoms: C_24  and  C_26
REMARK   10  A    between atoms: C_24  and  O_27
REMARK   11  A    between atoms: O_27  and  C_28
REMARK                            x       y       z     vdW  Elec       q    Type
REMARK                         _______ _______ _______ _____ _____    ______ ____
ROOT
ATOM      1  N   UNL     1      -0.234  -9.042   2.945  0.00  0.00    -0.265 N 
ATOM      2  C   UNL     1      -1.314  -9.878   2.682  0.00  0.00    +0.046 A 
ATOM      3  C   UNL     1      -2.686  -9.664   2.753  0.00  0.00    +0.024 A 
ATOM      4  C   UNL     1      -3.563 -10.681   2.433  0.00  0.00    +0.002 A 
ATOM      5  C   UNL     1      -3.091 -11.921   2.037  0.00  0.00    +0.001 A 
ATOM      6  C   UNL     1      -1.732 -12.151   1.960  0.00  0.00    +0.012 A 
ATOM      7  C   UNL     1      -0.841 -11.134   2.281  0.00  0.00    +0.028 A 
ATOM      8  C   UNL     1       0.638 -11.051   2.305  0.00  0.00    +0.153 C 
ATOM      9  N   UNL     1       1.496 -11.995   2.002  0.00  0.00    -0.174 NA
ATOM     10  C   UNL     1       0.936  -9.670   2.737  0.00  0.00    +0.271 C 
ATOM     11  O   UNL     1       2.043  -9.188   2.882  0.00  0.00    -0.268 OA
ENDROOT
BRANCH   9  12
ATOM     12  N   UNL     1       2.872 -11.743   2.079  0.00  0.00    -0.203 N 
ATOM     13  C   UNL     1       3.753 -12.713   1.768  0.00  0.00    +0.273 C 
ATOM     14  O   UNL     1       3.356 -13.805   1.421  0.00  0.00    -0.270 OA
ATOM     15  H   UNL     1       3.190 -10.869   2.357  0.00  0.00    +0.177 HD
BRANCH  13  16
ATOM     16  C   UNL     1       5.233 -12.442   1.851  0.00  0.00    +0.257 C 
ATOM     17  C   UNL     1       5.617 -11.383   0.816  0.00  0.00    +0.062 C 
BRANCH  16  18
ATOM     18  O   UNL     1       5.954 -13.648   1.589  0.00  0.00    -0.479 OA
BRANCH  18  19
ATOM     19  C   UNL     1       7.206 -13.742   2.106  0.00  0.00    +0.129 A 
ATOM     20  C   UNL     1       7.770 -12.673   2.744  0.00  0.00    +0.046 A 
ATOM     21  C   UNL     1       9.052 -12.755   3.280  0.00  0.00    +0.004 A 
ATOM     22  C   UNL     1       9.781 -13.900   3.185  0.00  0.00    +0.009 A 
ATOM     23  C   UNL     1       9.237 -15.023   2.537  0.00  0.00    -0.014 A 
ATOM     24  C   UNL     1       7.931 -14.946   1.994  0.00  0.00    +0.024 A 
ATOM     25  C   UNL     1       7.385 -16.069   1.351  0.00  0.00    +0.012 A 
ATOM     26  C   UNL     1       8.115 -17.215   1.262  0.00  0.00    +0.001 A 
ATOM     27  C   UNL     1       9.398 -17.292   1.800  0.00  0.00    +0.001 A 
ATOM     28  C   UNL     1       9.963 -16.221   2.421  0.00  0.00    +0.008 A 
ENDBRANCH  18  19
ENDBRANCH  16  18
ENDBRANCH  13  16
ENDBRANCH   9  12
BRANCH   1  29
ATOM     29  C   UNL     1      -0.356  -7.651   3.388  0.00  0.00    +0.117 C 
BRANCH  29  30
ATOM     30  C   UNL     1      -0.408  -6.730   2.167  0.00  0.00    +0.060 C 
BRANCH  30  31
ATOM     31  C   UNL     1      -0.536  -5.277   2.629  0.00  0.00    +0.230 C 
BRANCH  31  32
ATOM     32  O   UNL     1      -0.585  -4.417   1.489  0.00  0.00    -0.492 OA
BRANCH  32  37
ATOM     33  C   UNL     1      -1.058   1.109   2.473  0.00  0.00    +0.044 C 
ATOM     34  C   UNL     1      -0.931  -0.370   2.210  0.00  0.00    -0.050 A 
ATOM     35  C   UNL     1      -0.867  -0.836   0.910  0.00  0.00    +0.007 A 
ATOM     36  C   UNL     1      -0.751  -2.191   0.666  0.00  0.00    +0.046 A 
ATOM     37  C   UNL     1      -0.699  -3.084   1.726  0.00  0.00    +0.121 A 
ATOM     38  C   UNL     1      -0.762  -2.613   3.030  0.00  0.00    +0.046 A 
ATOM     39  C   UNL     1      -0.873  -1.257   3.269  0.00  0.00    +0.007 A 
ENDBRANCH  32  37
ENDBRANCH  31  32
ENDBRANCH  30  31
ENDBRANCH  29  30
ENDBRANCH   1  29
TORSDOF 9
