REMARK  Name = ZINC66115502
REMARK  8 active torsions:
REMARK  status: ('A' for Active; 'I' for Inactive)
REMARK    1  A    between atoms: C_2  and  C_3
REMARK    2  A    between atoms: C_3  and  O_4
REMARK    3  A    between atoms: O_4  and  C_5
REMARK    4  A    between atoms: C_14  and  C_15
REMARK    5  A    between atoms: C_15  and  N_16
REMARK    6  A    between atoms: C_22  and  C_24
REMARK    7  A    between atoms: C_24  and  C_25
REMARK    8  A    between atoms: N_27  and  N_28
REMARK                            x       y       z     vdW  Elec       q    Type
REMARK                         _______ _______ _______ _____ _____    ______ ____
ROOT
ATOM      1  N   UNL     1       0.462  -4.605   2.306  0.00  0.00    +0.391 N 
ATOM      2  C   UNL     1      -0.065  -3.872   1.145  0.00  0.00    -0.058 C 
ATOM      3  C   UNL     1      -0.524  -4.882   0.091  0.00  0.00    +0.085 C 
ATOM      4  N   UNL     1      -1.407  -5.872   0.703  0.00  0.00    -0.318 N 
ATOM      5  C   UNL     1      -1.467  -6.066   2.025  0.00  0.00    +0.200 C 
ATOM      6  O   UNL     1      -2.208  -6.924   2.455  0.00  0.00    -0.278 OA
ATOM      7  C   UNL     1      -0.653  -5.263   3.000  0.00  0.00    +0.028 C 
ATOM      8  H   UNL     1      -1.972  -6.411   0.127  0.00  0.00    +0.149 HD
ATOM      9  H   UNL     1       1.125  -5.300   1.997  0.00  0.00    -0.080 HD
ENDROOT
BRANCH   1  10
ATOM     10  C   UNL     1       1.125  -3.666   3.221  0.00  0.00    -0.038 C 
BRANCH  10  20
ATOM     11  C   UNL     1       2.258  -1.951   1.814  0.00  0.00    +0.123 A 
ATOM     12  C   UNL     1       3.386  -1.406   1.193  0.00  0.00    +0.046 A 
ATOM     13  C   UNL     1       4.603  -2.003   1.306  0.00  0.00    +0.012 A 
ATOM     14  C   UNL     1       4.733  -3.185   2.056  0.00  0.00    -0.017 A 
ATOM     15  C   UNL     1       5.975  -3.827   2.193  0.00  0.00    +0.008 A 
ATOM     16  C   UNL     1       6.065  -4.970   2.927  0.00  0.00    +0.001 A 
ATOM     17  C   UNL     1       4.942  -5.515   3.546  0.00  0.00    +0.001 A 
ATOM     18  C   UNL     1       3.723  -4.921   3.436  0.00  0.00    +0.009 A 
ATOM     19  C   UNL     1       3.591  -3.739   2.686  0.00  0.00    -0.013 A 
ATOM     20  C   UNL     1       2.350  -3.095   2.554  0.00  0.00    -0.015 A 
BRANCH  11  21
ATOM     21  O   UNL     1       1.056  -1.331   1.683  0.00  0.00    -0.488 OA
BRANCH  21  22
ATOM     22  C   UNL     1       1.023  -0.139   0.897  0.00  0.00    +0.256 C 
BRANCH  22  24
ATOM     23  C   UNL     1      -0.596   1.684   1.045  0.00  0.00    +0.007 C 
ATOM     24  C   UNL     1      -0.383   0.404   0.865  0.00  0.00    +0.006 C 
ENDBRANCH  22  24
ENDBRANCH  21  22
ENDBRANCH  11  21
ENDBRANCH  10  20
ENDBRANCH   1  10
BRANCH   7  25
ATOM     25  C   UNL     1      -0.100  -6.190   4.084  0.00  0.00    +0.091 C 
BRANCH  25  26
ATOM     26  C   UNL     1       0.680  -7.307   3.439  0.00  0.00    +0.225 C 
ATOM     27  O   UNL     1       0.804  -7.343   2.233  0.00  0.00    -0.275 OA
ATOM     28  N   UNL     1       1.238  -8.267   4.203  0.00  0.00    -0.254 N 
ATOM     29  H   UNL     1       1.138  -8.239   5.167  0.00  0.00    +0.169 HD
BRANCH  28  30
ATOM     30  N   UNL     1       1.944  -9.280   3.618  0.00  0.00    -0.254 NA
ATOM     31  H   UNL     1       2.690  -8.916   3.045  0.00  0.00    +0.140 HD
ATOM     32  H   UNL     1       2.301  -9.920   4.313  0.00  0.00    +0.140 HD
ENDBRANCH  28  30
ENDBRANCH  25  26
ENDBRANCH   7  25
TORSDOF 8
