REMARK  Name = ZINC35524257
REMARK  14 active torsions:
REMARK  status: ('A' for Active; 'I' for Inactive)
REMARK    1  A    between atoms: C_1  and  C_2
REMARK    2  A    between atoms: C_6  and  C_8
REMARK    3  A    between atoms: C_11  and  C_37
REMARK    4  A    between atoms: N_13  and  C_30
REMARK    5  A    between atoms: N_15  and  C_20
REMARK    6  A    between atoms: C_20  and  C_21
REMARK    7  A    between atoms: N_23  and  C_24
REMARK    8  A    between atoms: C_24  and  C_26
REMARK    9  A    between atoms: C_24  and  C_27
REMARK   10  A    between atoms: C_27  and  C_28
REMARK   11  A    between atoms: C_27  and  C_29
REMARK   12  A    between atoms: C_37  and  C_38
REMARK   13  A    between atoms: C_37  and  C_39
REMARK   14  A    between atoms: C_37  and  C_40
REMARK                            x       y       z     vdW  Elec       q    Type
REMARK                         _______ _______ _______ _____ _____    ______ ____
ROOT
ATOM      1  C   UNL     1      -0.762  -2.188   0.315  0.00  0.00    +0.112 C 
ATOM      2  C   UNL     1       0.198  -2.469   1.442  0.00  0.00    +0.034 A 
ATOM      3  C   UNL     1       1.515  -2.918   1.339  0.00  0.00    +0.075 A 
ATOM      4  N   UNL     1       2.005  -3.034   2.550  0.00  0.00    -0.169 NA
ATOM      5  N   UNL     1       1.011  -2.661   3.468  0.00  0.00    -0.218 N 
ATOM      6  C   UNL     1      -0.089  -2.322   2.757  0.00  0.00    +0.136 A 
ATOM      7  N   UNL     1      -1.334  -1.894   3.241  0.00  0.00    -0.246 N 
ATOM      8  C   UNL     1      -2.439  -2.477   2.764  0.00  0.00    +0.231 C 
ATOM      9  O   UNL     1      -3.518  -1.944   2.918  0.00  0.00    -0.274 OA
ATOM     10  C   UNL     1      -2.349  -3.786   2.040  0.00  0.00    +0.166 C 
ATOM     11  S   UNL     1      -2.017  -3.518   0.265  0.00  0.00    -0.138 S 
ENDROOT
BRANCH   1  17
ATOM     12  C   UNL     1       1.031  -4.540  -3.721  0.00  0.00    +0.044 C 
ATOM     13  C   UNL     1       0.847  -3.276  -2.922  0.00  0.00    -0.050 A 
ATOM     14  C   UNL     1       1.366  -2.082  -3.387  0.00  0.00    +0.003 A 
ATOM     15  C   UNL     1       1.197  -0.923  -2.654  0.00  0.00    +0.001 A 
ATOM     16  C   UNL     1       0.508  -0.957  -1.456  0.00  0.00    +0.005 A 
ATOM     17  C   UNL     1      -0.012  -2.150  -0.991  0.00  0.00    -0.030 A 
ATOM     18  C   UNL     1       0.154  -3.309  -1.727  0.00  0.00    +0.008 A 
ENDBRANCH   1  17
BRANCH   5  19
ATOM     19  C   UNL     1       1.135  -2.643   4.865  0.00  0.00    +0.068 A 
ATOM     20  C   UNL     1       0.002  -2.700   5.664  0.00  0.00    +0.030 A 
ATOM     21  C   UNL     1       0.126  -2.682   7.040  0.00  0.00    +0.040 A 
ATOM     22  C   UNL     1       1.381  -2.607   7.622  0.00  0.00    +0.124 A 
ATOM     23  C   UNL     1       2.513  -2.550   6.826  0.00  0.00    +0.040 A 
ATOM     24  C   UNL     1       2.393  -2.575   5.450  0.00  0.00    +0.030 A 
ATOM     25  F   UNL     1       1.500  -2.590   8.967  0.00  0.00    -0.205 F 
ENDBRANCH   5  19
BRANCH   3  26
ATOM     26  C   UNL     1       2.248  -3.218   0.057  0.00  0.00    +0.007 C 
ATOM     27  C   UNL     1       2.538  -1.910  -0.683  0.00  0.00    +0.017 C 
ATOM     28  C   UNL     1       3.566  -3.926   0.376  0.00  0.00    +0.017 C 
ATOM     29  C   UNL     1       1.384  -4.122  -0.825  0.00  0.00    +0.017 C 
ENDBRANCH   3  26
BRANCH   7  30
ATOM     30  C   UNL     1      -1.422  -0.832   4.246  0.00  0.00    +0.210 C 
BRANCH  30  31
ATOM     31  C   UNL     1      -1.456   0.509   3.559  0.00  0.00    +0.231 C 
ATOM     32  O   UNL     1      -1.411   0.571   2.349  0.00  0.00    -0.274 OA
ATOM     33  N   UNL     1      -1.536   1.639   4.289  0.00  0.00    -0.311 N 
ATOM     34  H   UNL     1      -1.572   1.589   5.257  0.00  0.00    +0.149 HD
BRANCH  33  35
ATOM     35  C   UNL     1      -1.569   2.942   3.621  0.00  0.00    +0.072 C 
ATOM     36  C   UNL     1      -3.008   3.274   3.220  0.00  0.00    +0.028 C 
BRANCH  35  37
ATOM     37  C   UNL     1      -1.044   4.018   4.575  0.00  0.00    +0.003 C 
ATOM     38  C   UNL     1       0.395   3.686   4.975  0.00  0.00    +0.009 C 
ATOM     39  C   UNL     1      -1.079   5.379   3.877  0.00  0.00    +0.009 C 
ENDBRANCH  35  37
ENDBRANCH  33  35
ENDBRANCH  30  31
ENDBRANCH   7  30
TORSDOF 7
