REMARK  Name = ZINC03237713
REMARK  8 active torsions:
REMARK  status: ('A' for Active; 'I' for Inactive)
REMARK    1  A    between atoms: C_4  and  C_7
REMARK    2  A    between atoms: C_7  and  O_8
REMARK    3  A    between atoms: O_8  and  C_9
REMARK    4  A    between atoms: C_12  and  C_23
REMARK    5  A    between atoms: C_14  and  O_15
REMARK    6  A    between atoms: O_15  and  C_16
REMARK    7  A    between atoms: C_16  and  C_17
REMARK    8  A    between atoms: N_24  and  N_25
REMARK                            x       y       z     vdW  Elec       q    Type
REMARK                         _______ _______ _______ _____ _____    ______ ____
ROOT
ATOM      1  C   UNL     1       5.319  -1.605   1.467  0.00  0.00    +0.162 A 
ATOM      2  C   UNL     1       6.046  -2.006   0.355  0.00  0.00    +0.050 A 
ATOM      3  C   UNL     1       7.242  -2.675   0.515  0.00  0.00    +0.013 A 
ATOM      4  C   UNL     1       7.723  -2.950   1.797  0.00  0.00    -0.002 A 
ATOM      5  C   UNL     1       6.990  -2.545   2.916  0.00  0.00    +0.059 A 
ATOM      6  C   UNL     1       5.795  -1.871   2.748  0.00  0.00    +0.163 A 
ENDROOT
BRANCH   4   7
ATOM      7  C   UNL     1       9.001  -3.665   1.970  0.00  0.00    +0.140 C 
ATOM      8  N   UNL     1       9.680  -4.040   0.929  0.00  0.00    -0.179 NA
BRANCH   8   9
ATOM      9  N   UNL     1      10.894  -4.720   1.093  0.00  0.00    -0.249 N 
ATOM     10  C   UNL     1      11.611  -5.115  -0.005  0.00  0.00    +0.187 C 
ATOM     11  N   UNL     1      12.766  -5.762   0.151  0.00  0.00    -0.370 N 
ATOM     12  N   UNL     1      11.153  -4.854  -1.229  0.00  0.00    -0.370 N 
ATOM     13  H   UNL     1      11.227  -4.910   1.984  0.00  0.00    +0.192 HD
ATOM     14  H   UNL     1      13.273  -6.042  -0.626  0.00  0.00    +0.159 HD
ATOM     15  H   UNL     1      10.313  -4.384  -1.342  0.00  0.00    +0.159 HD
ATOM     16  H   UNL     1      11.661  -5.135  -2.006  0.00  0.00    +0.159 HD
ATOM     17  H   UNL     1      13.099  -5.952   1.042  0.00  0.00    +0.159 HD
ENDBRANCH   8   9
ENDBRANCH   4   7
BRANCH   1  18
ATOM     18  O   UNL     1       4.141  -0.946   1.304  0.00  0.00    -0.484 OA
BRANCH  18  19
ATOM     19  C   UNL     1       3.711  -0.707  -0.038  0.00  0.00    +0.264 C 
BRANCH  19  23
ATOM     20  C   UNL     1      -0.017   1.378   0.010  0.00  0.00    +0.000 A 
ATOM     21  C   UNL     1       1.171   2.086   0.002  0.00  0.00    +0.000 A 
ATOM     22  C   UNL     1       2.377   1.411  -0.013  0.00  0.00    +0.007 A 
ATOM     23  C   UNL     1       2.396   0.029  -0.020  0.00  0.00    -0.010 A 
ATOM     24  C   UNL     1       1.208  -0.679  -0.012  0.00  0.00    +0.007 A 
ATOM     25  C   UNL     1       0.002  -0.004   0.002  0.00  0.00    +0.000 A 
ENDBRANCH  19  23
ENDBRANCH  18  19
ENDBRANCH   1  18
BRANCH   6  26
ATOM     26  O   UNL     1       5.082  -1.471   3.835  0.00  0.00    -0.484 OA
BRANCH  26  27
ATOM     27  C   UNL     1       5.631  -1.776   5.119  0.00  0.00    +0.264 C 
BRANCH  27  28
ATOM     28  C   UNL     1       4.709  -1.260   6.194  0.00  0.00    -0.010 A 
ATOM     29  C   UNL     1       4.868   0.023   6.683  0.00  0.00    +0.007 A 
ATOM     30  C   UNL     1       4.023   0.497   7.669  0.00  0.00    +0.000 A 
ATOM     31  C   UNL     1       3.019  -0.313   8.167  0.00  0.00    +0.000 A 
ATOM     32  C   UNL     1       2.860  -1.596   7.678  0.00  0.00    +0.000 A 
ATOM     33  C   UNL     1       3.703  -2.068   6.688  0.00  0.00    +0.007 A 
ENDBRANCH  27  28
ENDBRANCH  26  27
ENDBRANCH   6  26
TORSDOF 8
