REMARK  Name = ZINC13113209
REMARK  10 active torsions:
REMARK  status: ('A' for Active; 'I' for Inactive)
REMARK    1  A    between atoms: C_1  and  C_2
REMARK    2  A    between atoms: C_5  and  S_8
REMARK    3  A    between atoms: S_8  and  N_11
REMARK    4  A    between atoms: C_15  and  C_17
REMARK    5  A    between atoms: N_19  and  C_20
REMARK    6  A    between atoms: C_20  and  C_21
REMARK    7  A    between atoms: C_21  and  C_23
REMARK    8  A    between atoms: C_21  and  N_69
REMARK    9  A    between atoms: C_26  and  O_29
REMARK   10  A    between atoms: O_29  and  C_30
REMARK                            x       y       z     vdW  Elec       q    Type
REMARK                         _______ _______ _______ _____ _____    ______ ____
ROOT
ATOM      1  C   UNL     1      -0.491   8.120  -2.681  0.00  0.00    +0.232 C 
ATOM      2  O   UNL     1      -0.494   7.462  -3.700  0.00  0.00    -0.274 OA
ATOM      3  N   UNL     1      -0.395   7.507  -1.485  0.00  0.00    -0.315 N 
ATOM      4  H   UNL     1      -0.392   8.033  -0.669  0.00  0.00    +0.149 HD
ENDROOT
BRANCH   1   9
ATOM      5  N   UNL     1      -0.687  10.050  -4.156  0.00  0.00    -0.165 NA
ATOM      6  C   UNL     1       0.447  10.943  -4.454  0.00  0.00    +0.110 C 
ATOM      7  C   UNL     1       1.536  10.560  -3.421  0.00  0.00    +0.019 C 
ATOM      8  C   UNL     1       0.679  10.263  -2.162  0.00  0.00    +0.031 C 
ATOM      9  C   UNL     1      -0.594   9.621  -2.753  0.00  0.00    +0.165 C 
BRANCH   5  10
ATOM     10  S   UNL     1      -1.870   9.602  -5.225  0.00  0.00    +0.062 S 
ATOM     11  O   UNL     1      -1.317   9.746  -6.526  0.00  0.00    -0.153 OA
ATOM     12  O   UNL     1      -2.398   8.370  -4.754  0.00  0.00    -0.153 OA
BRANCH  10  17
ATOM     13  C   UNL     1      -6.309  13.665  -4.780  0.00  0.00    +0.044 C 
ATOM     14  C   UNL     1      -5.200  12.650  -4.891  0.00  0.00    -0.050 A 
ATOM     15  C   UNL     1      -4.171  12.846  -5.794  0.00  0.00    +0.005 A 
ATOM     16  C   UNL     1      -3.155  11.915  -5.896  0.00  0.00    +0.029 A 
ATOM     17  C   UNL     1      -3.166  10.789  -5.095  0.00  0.00    +0.106 A 
ATOM     18  C   UNL     1      -4.197  10.590  -4.196  0.00  0.00    +0.029 A 
ATOM     19  C   UNL     1      -5.211  11.524  -4.090  0.00  0.00    +0.005 A 
ENDBRANCH  10  17
ENDBRANCH   5  10
ENDBRANCH   1   9
BRANCH   3  20
ATOM     20  C   UNL     1      -0.294   6.047  -1.415  0.00  0.00    +0.093 C 
BRANCH  20  21
ATOM     21  C   UNL     1      -0.063   5.620   0.036  0.00  0.00    -0.020 C 
BRANCH  21  27
ATOM     22  C   UNL     1      -1.345   5.210   2.048  0.00  0.00    -0.078 C 
ATOM     23  C   UNL     1      -2.434   5.784   2.957  0.00  0.00    -0.019 C 
ATOM     24  C   UNL     1      -3.753   5.854   2.183  0.00  0.00    -0.004 C 
ATOM     25  C   UNL     1      -3.555   6.709   0.928  0.00  0.00    -0.019 C 
ATOM     26  C   UNL     1      -2.434   6.107   0.079  0.00  0.00    -0.078 C 
ATOM     27  N   UNL     1      -1.187   6.091   0.872  0.00  0.00    +0.385 N 
ATOM     28  H   UNL     1      -0.985   7.045   1.195  0.00  0.00    -0.081 HD
ENDBRANCH  21  27
BRANCH  21  29
ATOM     29  C   UNL     1       0.053   4.119   0.106  0.00  0.00    -0.059 A 
ATOM     30  C   UNL     1       1.273   3.534   0.387  0.00  0.00    +0.005 A 
ATOM     31  C   UNL     1       1.382   2.158   0.452  0.00  0.00    +0.046 A 
ATOM     32  C   UNL     1       0.265   1.364   0.235  0.00  0.00    +0.120 A 
ATOM     33  C   UNL     1      -0.957   1.954  -0.052  0.00  0.00    +0.046 A 
ATOM     34  C   UNL     1      -1.062   3.330  -0.111  0.00  0.00    +0.005 A 
BRANCH  32  35
ATOM     35  O   UNL     1       0.370   0.011   0.298  0.00  0.00    -0.495 OA
ATOM     36  C   UNL     1      -0.821  -0.744   0.063  0.00  0.00    +0.277 C 
ENDBRANCH  32  35
ENDBRANCH  21  29
ENDBRANCH  20  21
ENDBRANCH   3  20
TORSDOF 8
