REMARK  Name = ZINC15775001
REMARK  13 active torsions:
REMARK  status: ('A' for Active; 'I' for Inactive)
REMARK    1  A    between atoms: C_1  and  C_2
REMARK    2  A    between atoms: C_4  and  N_12
REMARK    3  A    between atoms: N_12  and  N_13
REMARK    4  A    between atoms: C_14  and  C_15
REMARK    5  A    between atoms: C_15  and  C_17
REMARK    6  A    between atoms: C_15  and  O_28
REMARK    7  A    between atoms: C_17  and  C_19
REMARK    8  A    between atoms: C_17  and  O_27
REMARK    9  A    between atoms: C_19  and  C_21
REMARK   10  A    between atoms: C_19  and  O_26
REMARK   11  A    between atoms: C_21  and  C_23
REMARK   12  A    between atoms: C_21  and  O_25
REMARK   13  A    between atoms: C_23  and  O_24
REMARK                            x       y       z     vdW  Elec       q    Type
REMARK                         _______ _______ _______ _____ _____    ______ ____
ROOT
ATOM      1  N   UNL     1       1.881   2.328   3.319  0.00  0.00    -0.191 NA
ATOM      2  C   UNL     1       1.321   1.542   2.478  0.00  0.00    +0.137 C 
ENDROOT
BRANCH   1   3
ATOM      3  N   UNL     1       1.191   2.725   4.472  0.00  0.00    -0.221 N 
ATOM      4  H   UNL     1       0.290   2.405   4.632  0.00  0.00    +0.176 HD
BRANCH   3   8
ATOM      5  C   UNL     1       0.937   5.232   8.678  0.00  0.00    +0.044 C 
ATOM      6  C   UNL     1       1.675   4.801   7.436  0.00  0.00    -0.038 A 
ATOM      7  C   UNL     1       1.090   3.969   6.529  0.00  0.00    +0.049 A 
ATOM      8  C   UNL     1       1.797   3.577   5.384  0.00  0.00    +0.139 A 
ATOM      9  N   UNL     1       3.022   4.003   5.151  0.00  0.00    -0.231 NA
ATOM     10  C   UNL     1       3.645   4.825   6.003  0.00  0.00    +0.073 A 
ATOM     11  C   UNL     1       2.985   5.253   7.181  0.00  0.00    +0.003 A 
ATOM     12  C   UNL     1       3.645   6.115   8.070  0.00  0.00    +0.010 A 
ATOM     13  C   UNL     1       4.911   6.532   7.790  0.00  0.00    +0.001 A 
ATOM     14  C   UNL     1       5.562   6.112   6.632  0.00  0.00    +0.002 A 
ATOM     15  C   UNL     1       4.952   5.276   5.748  0.00  0.00    +0.028 A 
ENDBRANCH   3   8
ENDBRANCH   1   3
BRANCH   2  16
ATOM     16  C   UNL     1       2.064   1.114   1.238  0.00  0.00    +0.188 C 
BRANCH  16  17
ATOM     17  O   UNL     1       3.361   1.713   1.228  0.00  0.00    -0.384 OA
ATOM     18  H   UNL     1       3.348   2.680   1.234  0.00  0.00    +0.210 HD
ENDBRANCH  16  17
BRANCH  16  19
ATOM     19  C   UNL     1       1.286   1.562  -0.002  0.00  0.00    +0.179 C 
BRANCH  19  20
ATOM     20  O   UNL     1      -0.011   0.963   0.007  0.00  0.00    -0.386 OA
ATOM     21  H   UNL     1       0.002  -0.004   0.002  0.00  0.00    +0.210 HD
ENDBRANCH  19  20
BRANCH  19  22
ATOM     22  C   UNL     1       2.040   1.127  -1.261  0.00  0.00    +0.176 C 
BRANCH  22  23
ATOM     23  O   UNL     1       2.274  -0.281  -1.213  0.00  0.00    -0.386 OA
ATOM     24  H   UNL     1       1.468  -0.813  -1.166  0.00  0.00    +0.210 HD
ENDBRANCH  22  23
BRANCH  22  25
ATOM     25  C   UNL     1       1.204   1.464  -2.497  0.00  0.00    +0.171 C 
BRANCH  25  26
ATOM     26  O   UNL     1       0.969   2.873  -2.545  0.00  0.00    -0.387 OA
ATOM     27  H   UNL     1       1.776   3.404  -2.592  0.00  0.00    +0.210 HD
ENDBRANCH  25  26
BRANCH  25  28
ATOM     28  C   UNL     1       1.957   1.030  -3.756  0.00  0.00    +0.189 C 
BRANCH  28  29
ATOM     29  O   UNL     1       1.129   1.237  -4.902  0.00  0.00    -0.392 OA
ATOM     30  H   UNL     1       1.543   0.983  -5.738  0.00  0.00    +0.210 HD
ENDBRANCH  28  29
ENDBRANCH  25  28
ENDBRANCH  22  25
ENDBRANCH  19  22
ENDBRANCH  16  19
ENDBRANCH   2  16
TORSDOF 12
