REMARK  Name = ZINC17052444
REMARK  3 active torsions:
REMARK  status: ('A' for Active; 'I' for Inactive)
REMARK    1  A    between atoms: C_10  and  N_12
REMARK    2  A    between atoms: C_13  and  C_15
REMARK    3  A    between atoms: C_24  and  C_26
REMARK                            x       y       z     vdW  Elec       q    Type
REMARK                         _______ _______ _______ _____ _____    ______ ____
ROOT
ATOM      1  N   UNL     1      -1.764   4.228   3.168  0.00  0.00    -0.308 N 
ATOM      2  C   UNL     1      -1.326   4.365   1.901  0.00  0.00    +0.218 C 
ATOM      3  O   UNL     1      -0.695   5.350   1.581  0.00  0.00    -0.275 OA
ATOM      4  H   UNL     1      -2.269   3.440   3.424  0.00  0.00    +0.149 HD
ENDROOT
BRANCH   1  14
ATOM      5  C   UNL     1      -4.436   8.331   3.759  0.00  0.00    +0.000 A 
ATOM      6  C   UNL     1      -3.875   7.738   2.643  0.00  0.00    +0.000 A 
ATOM      7  C   UNL     1      -2.924   6.751   2.796  0.00  0.00    +0.006 A 
ATOM      8  C   UNL     1      -2.525   6.346   4.064  0.00  0.00    -0.024 A 
ATOM      9  C   UNL     1      -3.087   6.934   5.175  0.00  0.00    -0.042 A 
ATOM     10  C   UNL     1      -4.042   7.930   5.018  0.00  0.00    +0.004 A 
ATOM     11  C   UNL     1      -2.714   6.535   6.579  0.00  0.00    +0.035 C 
ATOM     12  C   UNL     1      -1.388   5.776   6.587  0.00  0.00    +0.007 C 
ATOM     13  C   UNL     1      -1.472   4.646   5.554  0.00  0.00    +0.027 C 
ATOM     14  C   UNL     1      -1.478   5.268   4.159  0.00  0.00    +0.103 C 
ENDBRANCH   1  14
BRANCH   2  15
ATOM     15  C   UNL     1      -1.621   3.295   0.882  0.00  0.00    +0.092 C 
ATOM     16  C   UNL     1      -0.729   3.488  -0.383  0.00  0.00    +0.002 C 
ATOM     17  C   UNL     1       0.711   3.682   0.182  0.00  0.00    +0.004 C 
ATOM     18  C   UNL     1       1.114   2.287   0.712  0.00  0.00    +0.004 C 
ATOM     19  C   UNL     1      -0.121   1.381   0.417  0.00  0.00    +0.004 C 
ATOM     20  C   UNL     1      -0.634   2.018  -0.923  0.00  0.00    +0.008 C 
ATOM     21  C   UNL     1      -1.208   1.865   1.424  0.00  0.00    +0.117 C 
BRANCH  21  22
ATOM     22  C   UNL     1      -0.627   1.979   2.810  0.00  0.00    +0.360 C 
ATOM     23  O   UNL     1       0.141   2.875   3.071  0.00  0.00    -0.246 OA
ATOM     24  O   UNL     1      -0.962   1.086   3.754  0.00  0.00    -0.246 OA
ENDBRANCH  21  22
ENDBRANCH   2  15
TORSDOF 3
