REMARK  Name = ZINC47998623
REMARK  11 active torsions:
REMARK  status: ('A' for Active; 'I' for Inactive)
REMARK    1  A    between atoms: C_1  and  C_2
REMARK    2  A    between atoms: C_2  and  N_3
REMARK    3  A    between atoms: N_3  and  C_4
REMARK    4  A    between atoms: N_3  and  C_6
REMARK    5  A    between atoms: C_4  and  C_5
REMARK    6  A    between atoms: C_6  and  C_8
REMARK    7  A    between atoms: C_6  and  C_23
REMARK    8  A    between atoms: C_8  and  N_9
REMARK    9  A    between atoms: C_10  and  C_12
REMARK   10  A    between atoms: N_14  and  C_15
REMARK   11  A    between atoms: C_16  and  C_20
REMARK                            x       y       z     vdW  Elec       q    Type
REMARK                         _______ _______ _______ _____ _____    ______ ____
ROOT
ATOM      1  N   UNL     1      -1.674  -1.508  -0.899  0.00  0.00    -0.309 N 
ATOM      2  C   UNL     1      -3.002  -1.715  -1.006  0.00  0.00    +0.299 C 
ATOM      3  O   UNL     1      -3.439  -2.400  -1.907  0.00  0.00    -0.265 OA
ATOM      4  H   UNL     1      -1.325  -0.961  -0.179  0.00  0.00    +0.149 HD
ENDROOT
BRANCH   2   5
ATOM      5  C   UNL     1      -3.935  -1.100  -0.015  0.00  0.00    +0.304 C 
ATOM      6  O   UNL     1      -3.498  -0.415   0.886  0.00  0.00    -0.265 OA
ATOM      7  N   UNL     1      -5.262  -1.307  -0.122  0.00  0.00    -0.272 N 
ATOM      8  H   UNL     1      -5.612  -1.855  -0.842  0.00  0.00    +0.156 HD
BRANCH   7   9
ATOM      9  C   UNL     1      -6.127  -0.737   0.796  0.00  0.00    +0.084 A 
ATOM     10  C   UNL     1      -7.510  -0.844   0.846  0.00  0.00    +0.065 A 
ATOM     11  C   UNL     1      -8.174  -0.142   1.920  0.00  0.00    +0.022 A 
ATOM     12  C   UNL     1      -7.372   0.542   2.758  0.00  0.00    +0.048 A 
ATOM     13  S   UNL     1      -5.744   0.236   2.109  0.00  0.00    -0.081 S 
BRANCH  10  14
ATOM     14  C   UNL     1      -8.259  -1.629  -0.140  0.00  0.00    +0.244 C 
ATOM     15  O   UNL     1      -7.668  -2.208  -1.033  0.00  0.00    -0.270 OA
ATOM     16  N   UNL     1      -9.602  -1.710  -0.059  0.00  0.00    -0.325 N 
ATOM     17  H   UNL     1     -10.073  -1.248   0.652  0.00  0.00    +0.145 HD
ATOM     18  H   UNL     1     -10.097  -2.229  -0.712  0.00  0.00    +0.145 HD
ENDBRANCH  10  14
ENDBRANCH   7   9
ENDBRANCH   2   5
BRANCH   1  19
ATOM     19  C   UNL     1      -0.759  -2.111  -1.871  0.00  0.00    +0.094 C 
BRANCH  19  20
ATOM     20  C   UNL     1       0.656  -1.579  -1.637  0.00  0.00    -0.020 C 
BRANCH  20  21
ATOM     21  C   UNL     1       1.660  -2.579  -2.151  0.00  0.00    -0.052 A 
ATOM     22  C   UNL     1       2.359  -3.386  -1.272  0.00  0.00    +0.009 A 
ATOM     23  C   UNL     1       3.255  -4.274  -1.767  0.00  0.00    +0.045 A 
ATOM     24  S   UNL     1       3.130  -3.985  -3.524  0.00  0.00    -0.105 S 
ATOM     25  C   UNL     1       1.888  -2.704  -3.481  0.00  0.00    +0.047 A 
ENDBRANCH  20  21
BRANCH  20  26
ATOM     26  N   UNL     1       0.824  -0.306  -2.350  0.00  0.00    +0.385 N 
ATOM     27  H   UNL     1       0.802  -0.472  -3.345  0.00  0.00    -0.081 HD
BRANCH  26  29
ATOM     28  C   UNL     1      -0.097   1.930  -2.736  0.00  0.00    -0.017 C 
ATOM     29  C   UNL     1      -0.264   0.610  -1.982  0.00  0.00    -0.081 C 
ENDBRANCH  26  29
BRANCH  26  30
ATOM     30  C   UNL     1       2.114   0.294  -1.984  0.00  0.00    -0.081 C 
ATOM     31  C   UNL     1       3.252  -0.549  -2.561  0.00  0.00    -0.017 C 
ENDBRANCH  26  30
ENDBRANCH  20  26
ENDBRANCH  19  20
ENDBRANCH   1  19
TORSDOF 9
