REMARK  Name = ZINC57640596
REMARK  13 active torsions:
REMARK  status: ('A' for Active; 'I' for Inactive)
REMARK    1  A    between atoms: C_1  and  C_2
REMARK    2  A    between atoms: C_2  and  C_3
REMARK    3  A    between atoms: C_10  and  C_15
REMARK    4  A    between atoms: C_15  and  N_16
REMARK    5  A    between atoms: N_16  and  C_17
REMARK    6  A    between atoms: N_16  and  C_26
REMARK    7  A    between atoms: C_17  and  C_18
REMARK    8  A    between atoms: C_23  and  O_24
REMARK    9  A    between atoms: O_24  and  C_25
REMARK   10  A    between atoms: C_26  and  C_28
REMARK   11  A    between atoms: C_26  and  C_30
REMARK   12  A    between atoms: C_28  and  C_29
REMARK   13  A    between atoms: N_34  and  C_35
REMARK                            x       y       z     vdW  Elec       q    Type
REMARK                         _______ _______ _______ _____ _____    ______ ____
ROOT
ATOM      1  N   UNL     1       6.453  -3.627  -3.263  0.00  0.00    -0.284 NA
ENDROOT
BRANCH   1   2
ATOM      2  C   UNL     1       6.195  -2.184  -3.165  0.00  0.00    +0.126 C 
BRANCH   2  10
ATOM      3  C   UNL     1       1.159  -1.177   0.286  0.00  0.00    -0.047 A 
ATOM      4  C   UNL     1       0.252  -1.151  -0.765  0.00  0.00    +0.005 A 
ATOM      5  C   UNL     1       0.676  -1.329  -2.064  0.00  0.00    +0.026 A 
ATOM      6  C   UNL     1       2.026  -1.538  -2.327  0.00  0.00    +0.049 A 
ATOM      7  C   UNL     1       2.942  -1.563  -1.259  0.00  0.00    -0.001 A 
ATOM      8  C   UNL     1       2.490  -1.375   0.052  0.00  0.00    +0.013 A 
ATOM      9  C   UNL     1       4.361  -1.784  -1.545  0.00  0.00    +0.020 A 
ATOM     10  C   UNL     1       4.742  -1.955  -2.835  0.00  0.00    +0.031 A 
ATOM     11  C   UNL     1       3.783  -1.920  -3.870  0.00  0.00    +0.254 A 
ATOM     12  O   UNL     1       4.147  -2.077  -5.023  0.00  0.00    -0.268 OA
ATOM     13  N   UNL     1       2.478  -1.719  -3.617  0.00  0.00    -0.322 N 
ATOM     14  H   UNL     1       1.846  -1.701  -4.352  0.00  0.00    +0.169 HD
BRANCH   3  16
ATOM     15  C   UNL     1       0.694   0.512   2.042  0.00  0.00    +0.009 C 
ATOM     16  C   UNL     1       0.671  -0.979   1.698  0.00  0.00    +0.032 C 
ENDBRANCH   3  16
ENDBRANCH   2  10
ENDBRANCH   1   2
BRANCH   1  17
ATOM     17  C   UNL     1       5.967  -4.163  -4.541  0.00  0.00    +0.124 C 
BRANCH  17  18
ATOM     18  C   UNL     1       5.978  -5.670  -4.490  0.00  0.00    +0.008 A 
ATOM     19  C   UNL     1       6.933  -6.378  -5.194  0.00  0.00    +0.008 A 
ATOM     20  C   UNL     1       6.943  -7.760  -5.149  0.00  0.00    +0.001 A 
ATOM     21  C   UNL     1       5.999  -8.436  -4.398  0.00  0.00    +0.004 A 
ATOM     22  C   UNL     1       5.043  -7.732  -3.692  0.00  0.00    +0.046 A 
ATOM     23  C   UNL     1       5.033  -6.346  -3.732  0.00  0.00    +0.124 A 
BRANCH  23  24
ATOM     24  O   UNL     1       4.097  -5.651  -3.034  0.00  0.00    -0.495 OA
ATOM     25  C   UNL     1       3.156  -6.412  -2.276  0.00  0.00    +0.277 C 
ENDBRANCH  23  24
ENDBRANCH  17  18
ENDBRANCH   1  17
BRANCH   1  26
ATOM     26  C   UNL     1       7.881  -3.920  -3.078  0.00  0.00    +0.127 C 
BRANCH  26  27
ATOM     27  C   UNL     1       8.696  -3.044  -3.994  0.00  0.00    +0.169 A 
ATOM     28  N   UNL     1       8.570  -1.750  -4.157  0.00  0.00    -0.112 NA
ATOM     29  N   UNL     1       9.446  -1.370  -5.022  0.00  0.00    -0.023 NA
ATOM     30  N   UNL     1      10.127  -2.389  -5.416  0.00  0.00    -0.044 NA
ATOM     31  N   UNL     1       9.698  -3.439  -4.801  0.00  0.00    -0.225 N 
BRANCH  31  32
ATOM     32  C   UNL     1      10.204  -4.805  -4.955  0.00  0.00    +0.111 C 
ATOM     33  C   UNL     1      11.713  -4.849  -4.638  0.00  0.00    +0.027 C 
ATOM     34  C   UNL     1      12.286  -5.868  -5.654  0.00  0.00    +0.002 C 
ATOM     35  C   UNL     1      11.469  -5.569  -6.936  0.00  0.00    +0.002 C 
ATOM     36  C   UNL     1      10.049  -5.263  -6.416  0.00  0.00    +0.027 C 
ENDBRANCH  31  32
ENDBRANCH  26  27
BRANCH  26  37
ATOM     37  C   UNL     1       8.274  -3.643  -1.625  0.00  0.00    +0.023 C 
ATOM     38  C   UNL     1       7.553  -4.629  -0.705  0.00  0.00    +0.006 C 
ENDBRANCH  26  37
ENDBRANCH   1  26
TORSDOF 10
