REMARK  Name = ZINC06409152
REMARK  12 active torsions:
REMARK  status: ('A' for Active; 'I' for Inactive)
REMARK    1  A    between atoms: C_1  and  C_2
REMARK    2  A    between atoms: C_9  and  C_14
REMARK    3  A    between atoms: C_14  and  C_16
REMARK    4  A    between atoms: C_14  and  N_67
REMARK    5  A    between atoms: N_20  and  C_21
REMARK    6  A    between atoms: C_21  and  C_22
REMARK    7  A    between atoms: C_22  and  O_23
REMARK    8  A    between atoms: O_23  and  C_24
REMARK    9  A    between atoms: C_25  and  C_26
REMARK   10  A    between atoms: C_25  and  N_67
REMARK   11  A    between atoms: C_32  and  C_33
REMARK   12  A    between atoms: C_32  and  N_67
REMARK                            x       y       z     vdW  Elec       q    Type
REMARK                         _______ _______ _______ _____ _____    ______ ____
ROOT
ATOM      1  C   UNL     1       4.100  -0.448  -2.425  0.00  0.00    +0.039 C 
ENDROOT
BRANCH   1  10
ATOM      2  C   UNL     1       1.503  -1.156  -9.380  0.00  0.00    +0.044 C 
ATOM      3  C   UNL     1       2.586  -1.368  -8.353  0.00  0.00    -0.050 A 
ATOM      4  C   UNL     1       3.766  -2.001  -8.719  0.00  0.00    +0.005 A 
ATOM      5  C   UNL     1       4.769  -2.206  -7.797  0.00  0.00    +0.026 A 
ATOM      6  C   UNL     1       4.600  -1.774  -6.485  0.00  0.00    +0.049 A 
ATOM      7  C   UNL     1       3.402  -1.133  -6.118  0.00  0.00    -0.001 A 
ATOM      8  C   UNL     1       2.397  -0.936  -7.071  0.00  0.00    +0.013 A 
ATOM      9  C   UNL     1       3.233  -0.681  -4.736  0.00  0.00    +0.017 A 
ATOM     10  C   UNL     1       4.242  -0.899  -3.856  0.00  0.00    +0.011 A 
ATOM     11  C   UNL     1       5.426  -1.542  -4.276  0.00  0.00    +0.251 A 
ATOM     12  O   UNL     1       6.322  -1.724  -3.470  0.00  0.00    -0.268 OA
ATOM     13  N   UNL     1       5.588  -1.965  -5.542  0.00  0.00    -0.322 N 
ATOM     14  H   UNL     1       6.412  -2.407  -5.797  0.00  0.00    +0.169 HD
ENDBRANCH   1  10
BRANCH   1  15
ATOM     15  C   UNL     1       5.158   0.580  -2.116  0.00  0.00    +0.143 A 
ATOM     16  N   UNL     1       6.422   0.349  -1.857  0.00  0.00    -0.115 NA
ATOM     17  N   UNL     1       6.999   1.482  -1.647  0.00  0.00    -0.023 NA
ATOM     18  N   UNL     1       6.135   2.429  -1.758  0.00  0.00    -0.044 NA
ATOM     19  N   UNL     1       4.987   1.913  -2.046  0.00  0.00    -0.228 N 
BRANCH  19  20
ATOM     20  C   UNL     1       3.734   2.642  -2.258  0.00  0.00    +0.175 C 
BRANCH  20  21
ATOM     21  C   UNL     1       3.058   2.896  -0.910  0.00  0.00    +0.183 C 
BRANCH  21  22
ATOM     22  O   UNL     1       1.814   3.569  -1.120  0.00  0.00    -0.381 OA
ATOM     23  C   UNL     1       1.151   3.954   0.086  0.00  0.00    +0.194 C 
ENDBRANCH  21  22
ENDBRANCH  20  21
ENDBRANCH  19  20
ENDBRANCH   1  15
BRANCH   1  24
ATOM     24  N   UNL     1       4.286  -1.613  -1.536  0.00  0.00    +0.395 N 
ATOM     25  H   UNL     1       5.178  -2.068  -1.764  0.00  0.00    -0.079 HD
BRANCH  24  26
ATOM     26  C   UNL     1       3.188  -2.582  -1.736  0.00  0.00    -0.041 C 
BRANCH  26  27
ATOM     27  C   UNL     1       3.473  -3.384  -2.979  0.00  0.00    -0.064 A 
ATOM     28  C   UNL     1       4.655  -4.093  -3.088  0.00  0.00    +0.002 A 
ATOM     29  C   UNL     1       4.917  -4.829  -4.229  0.00  0.00    +0.000 A 
ATOM     30  C   UNL     1       3.997  -4.856  -5.260  0.00  0.00    +0.000 A 
ATOM     31  C   UNL     1       2.815  -4.147  -5.151  0.00  0.00    +0.000 A 
ATOM     32  C   UNL     1       2.554  -3.410  -4.011  0.00  0.00    +0.002 A 
ENDBRANCH  26  27
ENDBRANCH  24  26
BRANCH  24  33
ATOM     33  C   UNL     1       4.320  -1.173  -0.125  0.00  0.00    -0.040 C 
BRANCH  33  34
ATOM     34  C   UNL     1       5.733  -1.304   0.381  0.00  0.00    -0.046 A 
ATOM     35  C   UNL     1       6.399  -2.510   0.269  0.00  0.00    +0.003 A 
ATOM     36  C   UNL     1       7.697  -2.629   0.729  0.00  0.00    +0.000 A 
ATOM     37  C   UNL     1       8.326  -1.545   1.312  0.00  0.00    +0.001 A 
ATOM     38  C   UNL     1       7.660  -0.340   1.430  0.00  0.00    +0.020 A 
ATOM     39  C   UNL     1       6.363  -0.218   0.964  0.00  0.00    +0.042 A 
ATOM     40 CL   UNL     1       5.525   1.295   1.113  0.00  0.00    -0.083 Cl
ENDBRANCH  33  34
ENDBRANCH  24  33
ENDBRANCH   1  24
TORSDOF 10
