REMARK  Name = ZINC57994637
REMARK  8 active torsions:
REMARK  status: ('A' for Active; 'I' for Inactive)
REMARK    1  A    between atoms: C_1  and  C_2
REMARK    2  A    between atoms: C_2  and  C_4
REMARK    3  A    between atoms: C_2  and  N_11
REMARK    4  A    between atoms: C_4  and  C_5
REMARK    5  A    between atoms: C_5  and  C_6
REMARK    6  A    between atoms: C_12  and  C_14
REMARK    7  A    between atoms: N_22  and  S_23
REMARK    8  A    between atoms: S_23  and  C_26
REMARK                            x       y       z     vdW  Elec       q    Type
REMARK                         _______ _______ _______ _____ _____    ______ ____
ROOT
ATOM      1  N   UNL     1       0.711  -0.489   1.189  0.00  0.00    -0.309 N 
ATOM      2  C   UNL     1       0.051  -0.633   2.355  0.00  0.00    +0.244 C 
ATOM      3  O   UNL     1      -1.132  -0.361   2.423  0.00  0.00    -0.270 OA
ATOM      4  H   UNL     1       1.654  -0.707   1.135  0.00  0.00    +0.149 HD
ENDROOT
BRANCH   2   5
ATOM      5  C   UNL     1       0.765  -1.122   3.551  0.00  0.00    +0.037 A 
ATOM      6  C   UNL     1       2.126  -1.432   3.480  0.00  0.00    +0.015 A 
ATOM      7  C   UNL     1       2.787  -1.887   4.594  0.00  0.00    +0.026 A 
ATOM      8  C   UNL     1       2.108  -2.045   5.809  0.00  0.00    +0.054 A 
ATOM      9  C   UNL     1       0.754  -1.736   5.874  0.00  0.00    -0.023 A 
ATOM     10  C   UNL     1       0.086  -1.273   4.763  0.00  0.00    +0.018 A 
ATOM     11  C   UNL     1       0.272  -1.994   7.284  0.00  0.00    +0.058 C 
ATOM     12  C   UNL     1       1.519  -2.493   8.031  0.00  0.00    +0.136 C 
ATOM     13  N   UNL     1       2.592  -2.487   7.034  0.00  0.00    -0.207 N 
BRANCH  13  14
ATOM     14  S   UNL     1       4.158  -2.942   7.324  0.00  0.00    +0.043 S 
ATOM     15  O   UNL     1       4.075  -3.852   8.413  0.00  0.00    -0.155 OA
ATOM     16  O   UNL     1       4.653  -3.366   6.062  0.00  0.00    -0.155 OA
ATOM     17  C   UNL     1       4.997  -1.420   7.845  0.00  0.00    +0.218 C 
ENDBRANCH  13  14
ENDBRANCH   2   5
BRANCH   1  19
ATOM     18  C   UNL     1      -0.019   1.526   0.010  0.00  0.00    +0.028 C 
ATOM     19  C   UNL     1       0.002  -0.004   0.002  0.00  0.00    +0.071 C 
BRANCH  19  20
ATOM     20  C   UNL     1       0.718  -0.497  -1.257  0.00  0.00    +0.030 C 
BRANCH  20  21
ATOM     21  C   UNL     1       0.630  -2.023  -1.329  0.00  0.00    +0.076 C 
BRANCH  21  22
ATOM     22  C   UNL     1       1.336  -2.509  -2.568  0.00  0.00    +0.105 A 
ATOM     23  C   UNL     1       2.635  -2.848  -2.653  0.00  0.00    +0.044 A 
ATOM     24  C   UNL     1       2.869  -3.244  -3.990  0.00  0.00    +0.041 A 
ATOM     25  C   UNL     1       1.699  -3.123  -4.643  0.00  0.00    +0.195 A 
ATOM     26  O   UNL     1       0.773  -2.683  -3.775  0.00  0.00    -0.468 OA
ENDBRANCH  21  22
ENDBRANCH  20  21
ENDBRANCH  19  20
ENDBRANCH   1  19
TORSDOF 6
