REMARK  Name = ZINC63478220
REMARK  7 active torsions:
REMARK  status: ('A' for Active; 'I' for Inactive)
REMARK    1  A    between atoms: C_1  and  C_2
REMARK    2  A    between atoms: C_6  and  N_8
REMARK    3  A    between atoms: C_13  and  C_34
REMARK    4  A    between atoms: C_16  and  C_21
REMARK    5  A    between atoms: C_16  and  C_31
REMARK    6  A    between atoms: C_21  and  C_22
REMARK    7  A    between atoms: C_39  and  O_40
REMARK                            x       y       z     vdW  Elec       q    Type
REMARK                         _______ _______ _______ _____ _____    ______ ____
ROOT
ATOM      1  N   UNL     1      -0.032  -2.892   2.446  0.00  0.00    -0.210 N 
ATOM      2  C   UNL     1      -0.144  -2.309   3.684  0.00  0.00    +0.229 C 
ATOM      3  O   UNL     1      -0.474  -1.171   3.941  0.00  0.00    -0.275 OA
ATOM      4  C   UNL     1       0.220  -3.353   4.613  0.00  0.00    +0.077 C 
ATOM      5  C   UNL     1       0.085  -3.694   6.037  0.00  0.00    -0.023 C 
ATOM      6  N   UNL     1       0.341  -5.171   6.090  0.00  0.00    +0.396 N 
ATOM      7  C   UNL     1       0.493  -5.654   4.679  0.00  0.00    +0.052 C 
ATOM      8  C   UNL     1      -0.363  -4.636   3.896  0.00  0.00    +0.086 C 
ATOM      9  C   UNL     1       0.078  -4.252   2.510  0.00  0.00    +0.229 C 
ATOM     10  O   UNL     1       0.456  -4.997   1.632  0.00  0.00    -0.275 OA
ATOM     11  H   UNL     1       1.188  -5.353   6.607  0.00  0.00    -0.083 HD
ATOM     12  H   UNL     1      -0.438  -5.638   6.530  0.00  0.00    -0.083 HD
ENDROOT
BRANCH   1  18
ATOM     13  C   UNL     1      -0.281   1.425   0.102  0.00  0.00    +0.044 C 
ATOM     14  C   UNL     1      -0.155  -0.077   0.081  0.00  0.00    -0.049 A 
ATOM     15  C   UNL     1      -0.043  -0.743  -1.126  0.00  0.00    +0.003 A 
ATOM     16  C   UNL     1       0.073  -2.121  -1.150  0.00  0.00    +0.002 A 
ATOM     17  C   UNL     1       0.077  -2.835   0.033  0.00  0.00    +0.024 A 
ATOM     18  C   UNL     1      -0.035  -2.169   1.245  0.00  0.00    +0.044 A 
ATOM     19  C   UNL     1      -0.146  -0.785   1.266  0.00  0.00    +0.027 A 
ENDBRANCH   1  18
BRANCH   5  20
ATOM     20  C   UNL     1      -1.306  -3.380   6.524  0.00  0.00    -0.019 A 
ATOM     21  C   UNL     1      -2.288  -4.351   6.486  0.00  0.00    +0.005 A 
ATOM     22  C   UNL     1      -3.564  -4.064   6.932  0.00  0.00    +0.000 A 
ATOM     23  C   UNL     1      -3.862  -2.804   7.418  0.00  0.00    +0.004 A 
ATOM     24  C   UNL     1      -2.884  -1.829   7.459  0.00  0.00    +0.045 A 
ATOM     25  C   UNL     1      -1.601  -2.117   7.017  0.00  0.00    +0.118 A 
BRANCH  25  26
ATOM     26  O   UNL     1      -0.635  -1.162   7.061  0.00  0.00    -0.507 OA
ATOM     27  H   UNL     1      -0.580  -0.621   6.262  0.00  0.00    +0.292 HD
ENDBRANCH  25  26
ENDBRANCH   5  20
BRANCH   7  28
ATOM     28  C   UNL     1      -0.071  -7.043   4.526  0.00  0.00    +0.347 C 
ATOM     29  O   UNL     1      -0.539  -7.621   5.493  0.00  0.00    -0.248 OA
ATOM     30  O   UNL     1      -0.059  -7.590   3.436  0.00  0.00    -0.248 OA
ENDBRANCH   7  28
BRANCH   7  31
ATOM     31  C   UNL     1       1.960  -5.612   4.246  0.00  0.00    +0.033 C 
BRANCH  31  32
ATOM     32  C   UNL     1       2.758  -6.579   5.082  0.00  0.00    -0.042 C 
ATOM     33  C   UNL     1       3.059  -7.862   4.777  0.00  0.00    -0.001 A 
ATOM     34  C   UNL     1       2.745  -8.709   3.620  0.00  0.00    +0.010 A 
ATOM     35  C   UNL     1       3.195  -9.984   3.599  0.00  0.00    +0.001 A 
ATOM     36  C   UNL     1       3.952 -10.516   4.652  0.00  0.00    +0.002 A 
ATOM     37  C   UNL     1       4.280  -9.800   5.748  0.00  0.00    +0.026 A 
ATOM     38  C   UNL     1       3.860  -8.447   5.876  0.00  0.00    +0.043 A 
ATOM     39  N   UNL     1       4.047  -7.561   6.824  0.00  0.00    -0.380 N 
ATOM     40  C   UNL     1       3.390  -6.310   6.430  0.00  0.00    +0.144 C 
ATOM     41  H   UNL     1       4.540  -7.707   7.646  0.00  0.00    +0.160 HD
ENDBRANCH  31  32
ENDBRANCH   7  31
TORSDOF 6
