REMARK  Name = ZINC02415039
REMARK  8 active torsions:
REMARK  status: ('A' for Active; 'I' for Inactive)
REMARK    1  A    between atoms: C_1  and  C_2
REMARK    2  A    between atoms: C_7  and  N_8
REMARK    3  A    between atoms: C_9  and  C_11
REMARK    4  A    between atoms: C_11  and  S_12
REMARK    5  A    between atoms: S_12  and  C_13
REMARK    6  A    between atoms: C_18  and  S_28
REMARK    7  A    between atoms: S_28  and  C_29
REMARK    8  A    between atoms: C_29  and  C_30
REMARK                            x       y       z     vdW  Elec       q    Type
REMARK                         _______ _______ _______ _____ _____    ______ ____
ROOT
ATOM      1  C   UNL     1       0.082   0.987   2.823  0.00  0.00    +0.198 A 
ATOM      2  N   UNL     1       1.156   0.240   2.709  0.00  0.00    -0.122 NA
ATOM      3  N   UNL     1       1.605  -0.078   3.873  0.00  0.00    -0.128 NA
ATOM      4  C   UNL     1       0.842   0.448   4.799  0.00  0.00    +0.174 A 
ATOM      5  N   UNL     1      -0.156   1.152   4.160  0.00  0.00    -0.248 N 
ATOM      6  C   UNL     1      -1.109   1.817   4.885  0.00  0.00    +0.178 A 
ATOM      7  N   UNL     1      -1.099   1.807   6.197  0.00  0.00    -0.216 NA
ATOM      8  C   UNL     1      -0.169   1.156   6.894  0.00  0.00    +0.115 A 
ATOM      9  C   UNL     1       0.856   0.431   6.277  0.00  0.00    +0.056 A 
ATOM     10  C   UNL     1       1.810  -0.234   7.175  0.00  0.00    -0.024 A 
ATOM     11  C   UNL     1       1.600  -0.095   8.496  0.00  0.00    -0.004 A 
ATOM     12  S   UNL     1       0.152   0.929   8.624  0.00  0.00    -0.073 S 
ATOM     13  C   UNL     1       2.638  -0.814   9.315  0.00  0.00    +0.043 C 
ATOM     14  C   UNL     1       3.795  -1.080   8.327  0.00  0.00    +0.010 C 
ATOM     15  C   UNL     1       3.055  -1.103   6.975  0.00  0.00    +0.037 C 
ENDROOT
BRANCH   1  16
ATOM     16  S   UNL     1      -0.871   1.656   1.501  0.00  0.00    -0.076 S 
BRANCH  16  17
ATOM     17  C   UNL     1      -0.021   1.073   0.008  0.00  0.00    +0.173 C 
BRANCH  17  19
ATOM     18  N   UNL     1      -0.288   1.272  -2.443  0.00  0.00    -0.285 N 
ATOM     19  C   UNL     1      -0.743   1.582  -1.213  0.00  0.00    +0.227 C 
ATOM     20  O   UNL     1      -1.734   2.271  -1.088  0.00  0.00    -0.275 OA
ATOM     21  H   UNL     1       0.547   0.790  -2.544  0.00  0.00    +0.155 HD
BRANCH  18  28
ATOM     22  C   UNL     1       1.104   1.578  -4.906  0.00  0.00    +0.045 C 
ATOM     23  C   UNL     1      -0.382   1.807  -4.796  0.00  0.00    -0.029 A 
ATOM     24  C   UNL     1      -1.108   2.176  -5.912  0.00  0.00    +0.005 A 
ATOM     25  C   UNL     1      -2.471   2.386  -5.812  0.00  0.00    +0.000 A 
ATOM     26  C   UNL     1      -3.112   2.226  -4.597  0.00  0.00    +0.002 A 
ATOM     27  C   UNL     1      -2.392   1.853  -3.479  0.00  0.00    +0.023 A 
ATOM     28  C   UNL     1      -1.022   1.646  -3.575  0.00  0.00    +0.036 A 
ENDBRANCH  18  28
ENDBRANCH  17  19
ENDBRANCH  16  17
ENDBRANCH   1  16
BRANCH   6  29
ATOM     29  S   UNL     1      -2.374   2.704   4.037  0.00  0.00    -0.083 S 
BRANCH  29  30
ATOM     30  C   UNL     1      -3.303   3.352   5.449  0.00  0.00    +0.112 C 
BRANCH  30  31
ATOM     31  C   UNL     1      -4.468   4.168   4.952  0.00  0.00    -0.037 A 
ATOM     32  C   UNL     1      -4.318   5.525   4.732  0.00  0.00    +0.004 A 
ATOM     33  C   UNL     1      -5.385   6.272   4.271  0.00  0.00    +0.000 A 
ATOM     34  C   UNL     1      -6.606   5.666   4.041  0.00  0.00    +0.000 A 
ATOM     35  C   UNL     1      -6.758   4.311   4.267  0.00  0.00    +0.000 A 
ATOM     36  C   UNL     1      -5.689   3.562   4.723  0.00  0.00    +0.004 A 
ENDBRANCH  30  31
ENDBRANCH  29  30
ENDBRANCH   6  29
TORSDOF 7
