REMARK  Name = ZINC06805430
REMARK  4 active torsions:
REMARK  status: ('A' for Active; 'I' for Inactive)
REMARK    1  A    between atoms: C_9  and  C_24
REMARK    2  A    between atoms: N_14  and  C_15
REMARK    3  A    between atoms: C_15  and  C_16
REMARK    4  A    between atoms: C_16  and  C_17
REMARK                            x       y       z     vdW  Elec       q    Type
REMARK                         _______ _______ _______ _____ _____    ______ ____
ROOT
ATOM      1  C   UNL     1       1.167   7.441   7.449  0.00  0.00    +0.001 A 
ATOM      2  C   UNL     1       1.187   6.054   7.381  0.00  0.00    +0.002 A 
ATOM      3  C   UNL     1       1.184   5.409   6.165  0.00  0.00    +0.028 A 
ATOM      4  C   UNL     1       1.161   6.155   4.984  0.00  0.00    +0.078 A 
ATOM      5  C   UNL     1       1.141   7.566   5.058  0.00  0.00    +0.045 A 
ATOM      6  C   UNL     1       1.145   8.199   6.299  0.00  0.00    +0.014 A 
ATOM      7  C   UNL     1       1.118   8.321   3.800  0.00  0.00    +0.169 A 
ATOM      8  N   UNL     1       1.097   9.600   3.495  0.00  0.00    -0.206 NA
ATOM      9  C   UNL     1       1.082   9.745   2.166  0.00  0.00    +0.184 A 
ATOM     10  N   UNL     1       1.094   8.556   1.598  0.00  0.00    -0.142 NA
ATOM     11  N   UNL     1       1.117   7.609   2.630  0.00  0.00    -0.181 N 
ATOM     12  C   UNL     1       1.137   6.241   2.656  0.00  0.00    +0.219 A 
ATOM     13  N   UNL     1       1.152   5.554   3.769  0.00  0.00    -0.214 NA
ATOM     14  N   UNL     1       1.135   5.560   1.462  0.00  0.00    -0.313 N 
ATOM     15  H   UNL     1       1.121   6.049   0.625  0.00  0.00    +0.149 HD
ENDROOT
BRANCH   9  16
ATOM     16  C   UNL     1       1.057  11.041   1.443  0.00  0.00    +0.039 A 
ATOM     17  C   UNL     1       1.050  11.076   0.046  0.00  0.00    +0.014 A 
ATOM     18  C   UNL     1       1.020  12.310  -0.580  0.00  0.00    +0.020 A 
ATOM     19  C   UNL     1       1.010  13.459   0.190  0.00  0.00    +0.111 A 
ATOM     20  N   UNL     1       1.023  13.395   1.507  0.00  0.00    -0.263 NA
ATOM     21  C   UNL     1       1.046  12.243   2.147  0.00  0.00    +0.122 A 
ENDBRANCH   9  16
BRANCH  14  22
ATOM     22  C   UNL     1       1.156   4.095   1.455  0.00  0.00    +0.109 C 
BRANCH  22  23
ATOM     23  C   UNL     1       1.150   3.592   0.010  0.00  0.00    +0.054 C 
BRANCH  23  24
ATOM     24  C   UNL     1       1.171   2.086   0.002  0.00  0.00    -0.046 A 
ATOM     25  C   UNL     1      -0.017   1.378   0.010  0.00  0.00    +0.005 A 
ATOM     26  C   UNL     1       0.002  -0.004   0.002  0.00  0.00    +0.020 A 
ATOM     27  C   UNL     1       1.210  -0.679  -0.013  0.00  0.00    +0.041 A 
ATOM     28  C   UNL     1       2.398   0.030  -0.021  0.00  0.00    +0.020 A 
ATOM     29  C   UNL     1       2.378   1.412  -0.013  0.00  0.00    +0.005 A 
ATOM     30 CL   UNL     1       1.234  -2.415  -0.022  0.00  0.00    -0.084 Cl
ENDBRANCH  23  24
ENDBRANCH  22  23
ENDBRANCH  14  22
TORSDOF 4
