REMARK  Name = ZINC47152266
REMARK  11 active torsions:
REMARK  status: ('A' for Active; 'I' for Inactive)
REMARK    1  A    between atoms: C_1  and  O_2
REMARK    2  A    between atoms: O_2  and  C_3
REMARK    3  A    between atoms: C_6  and  N_9
REMARK    4  A    between atoms: C_10  and  C_12
REMARK    5  A    between atoms: C_12  and  C_13
REMARK    6  A    between atoms: C_13  and  C_14
REMARK    7  A    between atoms: C_14  and  C_15
REMARK    8  A    between atoms: C_15  and  C_16
REMARK    9  A    between atoms: C_16  and  N_17
REMARK   10  A    between atoms: C_21  and  C_22
REMARK   11  A    between atoms: C_25  and  N_28
REMARK                            x       y       z     vdW  Elec       q    Type
REMARK                         _______ _______ _______ _____ _____    ______ ____
ROOT
ATOM      1  C   UNL     1       5.639  -8.907  -7.936  0.00  0.00    +0.115 C 
ENDROOT
BRANCH   1   2
ATOM      2  N   UNL     1       5.515 -10.338  -7.646  0.00  0.00    -0.255 N 
ATOM      3  C   UNL     1       6.259 -10.870  -6.690  0.00  0.00    +0.258 C 
ATOM      4  O   UNL     1       7.045 -10.202  -6.045  0.00  0.00    -0.269 OA
ATOM      5  C   UNL     1       6.086 -12.318  -6.447  0.00  0.00    +0.077 C 
ATOM      6  C   UNL     1       6.703 -13.123  -5.546  0.00  0.00    +0.028 C 
ATOM      7  S   UNL     1       4.840 -12.716  -7.665  0.00  0.00    -0.061 S 
ATOM      8  C   UNL     1       4.641 -11.081  -8.355  0.00  0.00    +0.121 C 
ATOM      9  S   UNL     1       3.595 -10.578  -9.613  0.00  0.00    -0.027 S 
BRANCH   6  10
ATOM     10  C   UNL     1       6.508 -14.579  -5.608  0.00  0.00    -0.024 A 
ATOM     11  C   UNL     1       5.849 -15.155  -6.699  0.00  0.00    +0.010 A 
ATOM     12  C   UNL     1       5.671 -16.521  -6.749  0.00  0.00    +0.033 A 
ATOM     13  C   UNL     1       6.143 -17.322  -5.724  0.00  0.00    +0.126 A 
ATOM     14  C   UNL     1       6.796 -16.760  -4.641  0.00  0.00    +0.033 A 
ATOM     15  C   UNL     1       6.987 -15.396  -4.578  0.00  0.00    +0.010 A 
BRANCH  13  16
ATOM     16  N   UNL     1       5.948 -18.788  -5.786  0.00  0.00    +0.056 N 
ATOM     17  O   UNL     1       5.377 -19.283  -6.730  0.00  0.00    -0.126 OA
ATOM     18  O   UNL     1       6.359 -19.491  -4.892  0.00  0.00    -0.126 OA
ENDBRANCH  13  16
ENDBRANCH   6  10
ENDBRANCH   1   2
BRANCH   1  19
ATOM     19  C   UNL     1       4.652  -8.123  -7.068  0.00  0.00    +0.019 C 
BRANCH  19  20
ATOM     20  C   UNL     1       4.782  -6.629  -7.372  0.00  0.00    +0.002 C 
BRANCH  20  21
ATOM     21  C   UNL     1       3.795  -5.845  -6.504  0.00  0.00    +0.009 C 
BRANCH  21  22
ATOM     22  C   UNL     1       3.924  -4.351  -6.807  0.00  0.00    +0.096 C 
BRANCH  22  24
ATOM     23  N   UNL     1       2.889  -2.236  -6.050  0.00  0.00    -0.285 N 
ATOM     24  C   UNL     1       2.953  -3.579  -5.953  0.00  0.00    +0.217 C 
ATOM     25  O   UNL     1       2.228  -4.166  -5.177  0.00  0.00    -0.275 OA
ATOM     26  H   UNL     1       3.409  -1.774  -6.726  0.00  0.00    +0.155 HD
BRANCH  23  30
ATOM     27  C   UNL     1       0.457  -0.070  -3.446  0.00  0.00    +0.120 A 
ATOM     28  C   UNL     1       1.015  -1.272  -3.035  0.00  0.00    +0.047 A 
ATOM     29  C   UNL     1       1.821  -1.990  -3.897  0.00  0.00    +0.027 A 
ATOM     30  C   UNL     1       2.071  -1.509  -5.175  0.00  0.00    +0.034 A 
ATOM     31  C   UNL     1       1.512  -0.306  -5.586  0.00  0.00    +0.027 A 
ATOM     32  C   UNL     1       0.703   0.408  -4.725  0.00  0.00    +0.047 A 
BRANCH  27  34
ATOM     33  C   UNL     1      -0.546   0.085  -1.296  0.00  0.00    +0.277 C 
ATOM     34  O   UNL     1      -0.336   0.636  -2.597  0.00  0.00    -0.495 OA
ENDBRANCH  27  34
ENDBRANCH  23  30
ENDBRANCH  22  24
ENDBRANCH  21  22
ENDBRANCH  20  21
ENDBRANCH  19  20
ENDBRANCH   1  19
TORSDOF 10
