REMARK  Name = ZINC06057203
REMARK  2 active torsions:
REMARK  status: ('A' for Active; 'I' for Inactive)
REMARK    1  A    between atoms: C_5  and  N_8
REMARK    2  A    between atoms: N_8  and  N_9
REMARK                            x       y       z     vdW  Elec       q    Type
REMARK                         _______ _______ _______ _____ _____    ______ ____
ROOT
ATOM      1  N   UNL     1       0.004  -2.890  -0.793  0.00  0.00    -0.176 NA
ATOM      2  C   UNL     1       0.084  -4.125  -0.347  0.00  0.00    +0.163 C 
ATOM      3  C   UNL     1       1.302  -4.936  -0.157  0.00  0.00    +0.139 C 
ATOM      4  N   UNL     1       2.609  -4.526  -0.422  0.00  0.00    -0.342 N 
ATOM      5  N   UNL     1       0.943  -6.099   0.300  0.00  0.00    -0.270 N 
ATOM      6  N   UNL     1      -0.440  -6.187   0.455  0.00  0.00    -0.120 NA
ATOM      7  C   UNL     1      -1.027  -5.003   0.079  0.00  0.00    +0.184 C 
ATOM      8  N   UNL     1      -2.306  -4.713   0.093  0.00  0.00    -0.281 NA
ATOM      9  H   UNL     1       2.853  -3.592  -0.327  0.00  0.00    +0.144 HD
ATOM     10  H   UNL     1      -2.949  -5.372   0.396  0.00  0.00    +0.188 HD
ATOM     11  H   UNL     1       3.274  -5.176  -0.700  0.00  0.00    +0.144 HD
ATOM     12  H   UNL     1       1.561  -6.816   0.509  0.00  0.00    +0.188 HD
ENDROOT
BRANCH   1  13
ATOM     13  N   UNL     1       1.057  -2.299  -1.248  0.00  0.00    -0.234 N 
ATOM     14  H   UNL     1       1.888  -2.791  -1.341  0.00  0.00    +0.174 HD
BRANCH  13  19
ATOM     15  C   UNL     1      -0.280   1.011  -2.127  0.00  0.00    +0.042 A 
ATOM     16  C   UNL     1       0.891   1.724  -2.315  0.00  0.00    +0.044 A 
ATOM     17  C   UNL     1       2.117   1.104  -2.149  0.00  0.00    +0.042 A 
ATOM     18  C   UNL     1       2.176  -0.230  -1.795  0.00  0.00    +0.066 A 
ATOM     19  C   UNL     1       1.002  -0.950  -1.605  0.00  0.00    +0.085 A 
ATOM     20  C   UNL     1      -0.229  -0.324  -1.773  0.00  0.00    +0.066 A 
ATOM     21 CL   UNL     1      -1.698  -1.218  -1.537  0.00  0.00    -0.081 Cl
ATOM     22 CL   UNL     1       3.715  -1.007  -1.587  0.00  0.00    -0.081 Cl
ATOM     23 CL   UNL     1       0.821   3.400  -2.761  0.00  0.00    -0.083 Cl
ENDBRANCH  13  19
ENDBRANCH   1  13
TORSDOF 2
