REMARK  Name = ZINC44216164
REMARK  9 active torsions:
REMARK  status: ('A' for Active; 'I' for Inactive)
REMARK    1  A    between atoms: C_1  and  C_2
REMARK    2  A    between atoms: C_2  and  C_25
REMARK    3  A    between atoms: C_8  and  C_23
REMARK    4  A    between atoms: C_8  and  C_24
REMARK    5  A    between atoms: C_13  and  C_16
REMARK    6  A    between atoms: C_14  and  O_15
REMARK    7  A    between atoms: C_16  and  C_18
REMARK    8  A    between atoms: C_16  and  N_22
REMARK    9  A    between atoms: C_18  and  C_19
REMARK                            x       y       z     vdW  Elec       q    Type
REMARK                         _______ _______ _______ _____ _____    ______ ____
ROOT
ATOM      1  C   UNL     1       1.096   2.318   0.603  0.00  0.00    +0.016 C 
ATOM      2  C   UNL     1       0.694   0.842   0.576  0.00  0.00    -0.007 C 
ATOM      3  C   UNL     1       1.025   0.253  -0.796  0.00  0.00    +0.030 C 
ATOM      4  C   UNL     1       0.779  -1.260  -0.747  0.00  0.00    +0.106 C 
ATOM      5  N   UNL     1       1.693  -1.838   0.243  0.00  0.00    -0.329 N 
ATOM      6  C   UNL     1       2.392  -3.092  -0.056  0.00  0.00    +0.106 C 
ATOM      7  C   UNL     1       2.371  -3.961   1.208  0.00  0.00    +0.030 C 
ATOM      8  C   UNL     1       3.135  -3.230   2.312  0.00  0.00    -0.003 C 
ATOM      9  C   UNL     1       2.601  -1.831   2.480  0.00  0.00    +0.021 A 
ATOM     10  C   UNL     1       1.907  -1.190   1.463  0.00  0.00    +0.041 A 
ATOM     11  C   UNL     1       1.437   0.103   1.657  0.00  0.00    -0.020 A 
ATOM     12  C   UNL     1       1.650   0.742   2.867  0.00  0.00    +0.011 A 
ATOM     13  C   UNL     1       2.334   0.105   3.881  0.00  0.00    -0.019 A 
ATOM     14  C   UNL     1       2.812  -1.182   3.690  0.00  0.00    +0.124 A 
ATOM     15  C   UNL     1       2.978  -3.994   3.628  0.00  0.00    +0.016 C 
ATOM     16  C   UNL     1       4.618  -3.164   1.943  0.00  0.00    +0.016 C 
ATOM     17  C   UNL     1      -0.811   0.723   0.823  0.00  0.00    +0.016 C 
ENDROOT
BRANCH  14  18
ATOM     18  O   UNL     1       3.489  -1.810   4.688  0.00  0.00    -0.506 OA
ATOM     19  H   UNL     1       4.444  -1.664   4.668  0.00  0.00    +0.292 HD
ENDBRANCH  14  18
BRANCH  13  20
ATOM     20  C   UNL     1       2.562   0.807   5.195  0.00  0.00    -0.030 C 
BRANCH  20  21
ATOM     21  N   UNL     1       1.523   1.826   5.393  0.00  0.00    +0.383 N 
ATOM     22  H   UNL     1       1.563   2.498   4.641  0.00  0.00    -0.089 HD
ATOM     23  H   UNL     1       0.616   1.384   5.401  0.00  0.00    -0.089 HD
ATOM     24  H   UNL     1       1.675   2.296   6.273  0.00  0.00    -0.089 HD
ENDBRANCH  20  21
BRANCH  20  25
ATOM     25  C   UNL     1       3.938   1.477   5.184  0.00  0.00    +0.113 C 
BRANCH  25  26
ATOM     26  C   UNL     1       4.217   2.074   6.539  0.00  0.00    +0.355 C 
ATOM     27  O   UNL     1       3.392   1.973   7.432  0.00  0.00    -0.246 OA
ATOM     28  O   UNL     1       5.267   2.658   6.744  0.00  0.00    -0.246 OA
ENDBRANCH  25  26
ENDBRANCH  20  25
ENDBRANCH  13  20
TORSDOF 5
