REMARK  Name = ZINC20583468
REMARK  11 active torsions:
REMARK  status: ('A' for Active; 'I' for Inactive)
REMARK    1  A    between atoms: C_1  and  C_2
REMARK    2  A    between atoms: C_2  and  C_3
REMARK    3  A    between atoms: C_3  and  C_4
REMARK    4  A    between atoms: C_4  and  O_5
REMARK    5  A    between atoms: O_5  and  C_6
REMARK    6  A    between atoms: C_6  and  C_8
REMARK    7  A    between atoms: C_11  and  N_14
REMARK    8  A    between atoms: C_18  and  N_22
REMARK    9  A    between atoms: N_25  and  C_28
REMARK   10  A    between atoms: C_28  and  C_29
REMARK   11  A    between atoms: C_28  and  C_35
REMARK                            x       y       z     vdW  Elec       q    Type
REMARK                         _______ _______ _______ _____ _____    ______ ____
ROOT
ATOM      1  N   UNL     1       3.992  -6.066  -7.063  0.00  0.00    -0.209 N 
ATOM      2  C   UNL     1       4.466  -5.192  -7.960  0.00  0.00    +0.228 C 
ATOM      3  O   UNL     1       4.340  -3.988  -7.901  0.00  0.00    -0.275 OA
ATOM      4  C   UNL     1       5.184  -5.946  -9.058  0.00  0.00    +0.125 C 
ATOM      5  C   UNL     1       5.042  -7.423  -8.635  0.00  0.00    +0.153 C 
ATOM      6  C   UNL     1       4.263  -7.348  -7.340  0.00  0.00    +0.244 C 
ATOM      7  O   UNL     1       3.934  -8.297  -6.663  0.00  0.00    -0.273 OA
ENDROOT
BRANCH   1  11
ATOM      8  C   UNL     1       1.863  -4.891  -3.676  0.00  0.00    +0.059 A 
ATOM      9  C   UNL     1       3.218  -4.569  -3.799  0.00  0.00    +0.017 A 
ATOM     10  C   UNL     1       3.918  -4.959  -4.919  0.00  0.00    +0.025 A 
ATOM     11  C   UNL     1       3.278  -5.673  -5.927  0.00  0.00    +0.044 A 
ATOM     12  C   UNL     1       1.931  -5.995  -5.808  0.00  0.00    +0.025 A 
ATOM     13  C   UNL     1       1.226  -5.614  -4.689  0.00  0.00    +0.017 A 
BRANCH   8  14
ATOM     14  C   UNL     1       1.110  -4.476  -2.478  0.00  0.00    +0.339 C 
ATOM     15  O   UNL     1      -0.066  -4.761  -2.370  0.00  0.00    -0.245 OA
BRANCH  14  16
ATOM     16  O   UNL     1       1.727  -3.779  -1.503  0.00  0.00    -0.461 OA
BRANCH  16  17
ATOM     17  C   UNL     1       0.936  -3.409  -0.371  0.00  0.00    +0.232 C 
BRANCH  17  18
ATOM     18  C   UNL     1       1.802  -2.631   0.623  0.00  0.00    +0.041 C 
BRANCH  18  20
ATOM     19  C   UNL     1       1.820  -1.457   2.828  0.00  0.00    +0.004 C 
ATOM     20  C   UNL     1       0.956  -2.235   1.835  0.00  0.00    -0.000 C 
ENDBRANCH  18  20
ENDBRANCH  17  18
ENDBRANCH  16  17
ENDBRANCH  14  16
ENDBRANCH   8  14
ENDBRANCH   1  11
BRANCH   5  21
ATOM     21  N   UNL     1       6.362  -8.025  -8.409  0.00  0.00    -0.289 NA
ATOM     22  C   UNL     1       7.030  -7.411  -7.253  0.00  0.00    +0.100 C 
ATOM     23  C   UNL     1       8.430  -8.009  -7.099  0.00  0.00    +0.100 C 
ATOM     24  N   UNL     1       8.322  -9.465  -6.930  0.00  0.00    -0.289 NA
ATOM     25  C   UNL     1       7.655 -10.079  -8.086  0.00  0.00    +0.100 C 
ATOM     26  C   UNL     1       6.254  -9.481  -8.240  0.00  0.00    +0.100 C 
BRANCH  24  27
ATOM     27  C   UNL     1       9.643 -10.068  -6.703  0.00  0.00    +0.117 C 
BRANCH  27  28
ATOM     28  C   UNL     1      10.273  -9.453  -5.480  0.00  0.00    -0.026 A 
ATOM     29  C   UNL     1       9.522  -9.271  -4.334  0.00  0.00    +0.005 A 
ATOM     30  C   UNL     1      10.100  -8.707  -3.212  0.00  0.00    +0.000 A 
ATOM     31  C   UNL     1      11.428  -8.325  -3.236  0.00  0.00    +0.000 A 
ATOM     32  C   UNL     1      12.179  -8.508  -4.382  0.00  0.00    +0.000 A 
ATOM     33  C   UNL     1      11.602  -9.076  -5.503  0.00  0.00    +0.005 A 
ENDBRANCH  27  28
BRANCH  27  34
ATOM     34  C   UNL     1       9.489 -11.552  -6.496  0.00  0.00    -0.026 A 
ATOM     35  C   UNL     1       8.498 -12.035  -5.662  0.00  0.00    +0.005 A 
ATOM     36  C   UNL     1       8.356 -13.396  -5.472  0.00  0.00    +0.000 A 
ATOM     37  C   UNL     1       9.205 -14.276  -6.117  0.00  0.00    +0.000 A 
ATOM     38  C   UNL     1      10.195 -13.794  -6.952  0.00  0.00    +0.000 A 
ATOM     39  C   UNL     1      10.334 -12.432  -7.145  0.00  0.00    +0.005 A 
ENDBRANCH  27  34
ENDBRANCH  24  27
ENDBRANCH   5  21
TORSDOF 10
