REMARK  Name = ZINC04260615
REMARK  9 active torsions:
REMARK  status: ('A' for Active; 'I' for Inactive)
REMARK    1  A    between atoms: C_1  and  C_2
REMARK    2  A    between atoms: C_2  and  O_3
REMARK    3  A    between atoms: O_3  and  C_4
REMARK    4  A    between atoms: C_4  and  C_6
REMARK    5  A    between atoms: C_10  and  N_11
REMARK    6  A    between atoms: C_12  and  C_14
REMARK    7  A    between atoms: N_16  and  N_17
REMARK    8  A    between atoms: C_18  and  C_19
REMARK    9  A    between atoms: C_27  and  C_31
REMARK                            x       y       z     vdW  Elec       q    Type
REMARK                         _______ _______ _______ _____ _____    ______ ____
ROOT
ATOM      1  N   UNL     1       4.826   9.419   0.003  0.00  0.00    -0.271 N 
ATOM      2  C   UNL     1       4.850   8.071  -0.004  0.00  0.00    +0.305 C 
ATOM      3  O   UNL     1       5.911   7.482  -0.017  0.00  0.00    -0.265 OA
ATOM      4  H   UNL     1       3.865   9.952   0.015  0.00  0.00    +0.156 HD
ENDROOT
BRANCH   1   9
ATOM      5  C   UNL     1       6.192  11.509   0.001  0.00  0.00    +0.091 A 
ATOM      6  C   UNL     1       7.557  12.007  -0.010  0.00  0.00    -0.021 A 
ATOM      7  C   UNL     1       8.517  11.057  -0.025  0.00  0.00    -0.004 A 
ATOM      8  S   UNL     1       7.634   9.522  -0.016  0.00  0.00    -0.077 S 
ATOM      9  C   UNL     1       6.013  10.131  -0.005  0.00  0.00    +0.087 A 
ATOM     10  C   UNL     1       9.999  11.270  -0.039  0.00  0.00    +0.046 C 
ATOM     11  C   UNL     1      10.273  12.734  -0.413  0.00  0.00    -0.009 C 
ATOM     12  C   UNL     1       9.375  13.637   0.437  0.00  0.00    +0.008 C 
ATOM     13  C   UNL     1       7.918  13.488  -0.006  0.00  0.00    +0.037 C 
ATOM     14  C   UNL     1      11.742  13.066  -0.143  0.00  0.00    +0.008 C 
BRANCH   5  15
ATOM     15  C   UNL     1       5.049  12.424   0.017  0.00  0.00    +0.342 C 
ATOM     16  O   UNL     1       4.585  12.799   1.077  0.00  0.00    -0.245 OA
BRANCH  15  17
ATOM     17  O   UNL     1       4.511  12.852  -1.144  0.00  0.00    -0.461 OA
BRANCH  17  19
ATOM     18  C   UNL     1       2.909  14.131  -2.459  0.00  0.00    +0.048 C 
ATOM     19  C   UNL     1       3.380  13.758  -1.052  0.00  0.00    +0.229 C 
ENDBRANCH  17  19
ENDBRANCH  15  17
ENDBRANCH   5  15
ENDBRANCH   1   9
BRANCH   2  20
ATOM     20  C   UNL     1       3.572   7.304   0.005  0.00  0.00    +0.318 C 
ATOM     21  O   UNL     1       2.510   7.893   0.018  0.00  0.00    -0.263 OA
ATOM     22  N   UNL     1       3.595   5.956  -0.002  0.00  0.00    -0.199 N 
ATOM     23  H   UNL     1       4.557   5.423  -0.014  0.00  0.00    +0.178 HD
BRANCH  22  24
ATOM     24  N   UNL     1       2.394   5.235   0.006  0.00  0.00    -0.187 NA
ATOM     25  C   UNL     1       2.417   3.936  -0.001  0.00  0.00    +0.138 C 
BRANCH  25  26
ATOM     26  C   UNL     1       1.153   3.177   0.008  0.00  0.00    -0.004 A 
ATOM     27  C   UNL     1       1.173   1.780   0.000  0.00  0.00    +0.009 A 
ATOM     28  C   UNL     1      -0.013   1.076   0.008  0.00  0.00    +0.002 A 
ATOM     29  C   UNL     1      -1.221   1.750   0.017  0.00  0.00    +0.015 A 
ATOM     30  C   UNL     1      -1.250   3.134   0.030  0.00  0.00    +0.018 A 
ATOM     31  C   UNL     1      -0.070   3.851   0.022  0.00  0.00    +0.024 A 
ATOM     32 BR   UNL     1      -2.908   4.043   0.050  0.00  0.00    -0.050 Br
ENDBRANCH  25  26
ENDBRANCH  22  24
ENDBRANCH   2  20
TORSDOF 7
