REMARK  Name = ZINC01098496
REMARK  8 active torsions:
REMARK  status: ('A' for Active; 'I' for Inactive)
REMARK    1  A    between atoms: C_1  and  C_2
REMARK    2  A    between atoms: C_4  and  C_17
REMARK    3  A    between atoms: C_5  and  C_16
REMARK    4  A    between atoms: N_6  and  C_7
REMARK    5  A    between atoms: C_8  and  C_14
REMARK    6  A    between atoms: C_9  and  C_13
REMARK    7  A    between atoms: C_10  and  C_12
REMARK    8  A    between atoms: N_18  and  C_19
REMARK                            x       y       z     vdW  Elec       q    Type
REMARK                         _______ _______ _______ _____ _____    ______ ____
ROOT
ATOM      1  C   UNL     1      -5.290   5.913   2.379  0.00  0.00    +0.064 C 
ATOM      2  C   UNL     1      -4.381   5.058   1.534  0.00  0.00    +0.022 A 
ATOM      3  C   UNL     1      -3.050   4.949   1.687  0.00  0.00    +0.032 A 
ATOM      4  C   UNL     1      -2.584   4.019   0.652  0.00  0.00    +0.014 A 
ATOM      5  C   UNL     1      -3.707   3.631  -0.047  0.00  0.00    +0.030 A 
ATOM      6  N   UNL     1      -4.779   4.264   0.495  0.00  0.00    -0.310 N 
ATOM      7  C   UNL     1      -3.739   2.672  -1.209  0.00  0.00    +0.064 C 
ENDROOT
BRANCH   6   8
ATOM      8  C   UNL     1      -6.092   4.125   0.057  0.00  0.00    +0.103 A 
ATOM      9  C   UNL     1      -6.835   2.961  -0.086  0.00  0.00    +0.086 A 
ATOM     10  C   UNL     1      -8.187   3.107  -0.565  0.00  0.00    -0.021 A 
ATOM     11  C   UNL     1      -8.613   4.356  -0.833  0.00  0.00    -0.007 A 
ATOM     12  S   UNL     1      -7.198   5.363  -0.437  0.00  0.00    -0.074 S 
ATOM     13  C   UNL     1      -9.962   4.796  -1.339  0.00  0.00    +0.052 C 
ATOM     14  C   UNL     1      -9.086   1.912  -0.757  0.00  0.00    +0.046 C 
BRANCH   9  15
ATOM     15  C   UNL     1      -6.285   1.677   0.229  0.00  0.00    +0.102 C 
ATOM     16  N   UNL     1      -5.848   0.658   0.478  0.00  0.00    -0.191 NA
ENDBRANCH   9  15
ENDBRANCH   6   8
BRANCH   4  17
ATOM     17  C   UNL     1      -1.201   3.585   0.413  0.00  0.00    +0.121 C 
ATOM     18  N   UNL     1      -0.939   2.743  -0.548  0.00  0.00    -0.255 NA
BRANCH  18  19
ATOM     19  C   UNL     1       0.350   2.338  -0.771  0.00  0.00    +0.068 A 
ATOM     20  C   UNL     1       1.386   3.274  -0.785  0.00  0.00    +0.031 A 
ATOM     21  C   UNL     1       2.683   2.865  -1.015  0.00  0.00    +0.051 A 
ATOM     22  C   UNL     1       2.963   1.524  -1.233  0.00  0.00    +0.166 A 
ATOM     23  C   UNL     1       1.934   0.584  -1.221  0.00  0.00    +0.168 A 
ATOM     24  C   UNL     1       0.632   0.988  -0.990  0.00  0.00    +0.077 A 
ATOM     25  O   UNL     1       2.468  -0.650  -1.459  0.00  0.00    -0.453 OA
ATOM     26  C   UNL     1       3.770  -0.404  -2.022  0.00  0.00    +0.466 C 
ATOM     27  O   UNL     1       4.141   0.877  -1.479  0.00  0.00    -0.453 OA
ENDBRANCH  18  19
ENDBRANCH   4  17
TORSDOF 4
