REMARK  Name = ZINC04562265
REMARK  8 active torsions:
REMARK  status: ('A' for Active; 'I' for Inactive)
REMARK    1  A    between atoms: C_1  and  C_2
REMARK    2  A    between atoms: C_5  and  N_8
REMARK    3  A    between atoms: N_8  and  C_9
REMARK    4  A    between atoms: C_9  and  N_11
REMARK    5  A    between atoms: N_11  and  N_12
REMARK    6  A    between atoms: N_12  and  C_13
REMARK    7  A    between atoms: C_13  and  N_15
REMARK    8  A    between atoms: N_15  and  C_16
REMARK                            x       y       z     vdW  Elec       q    Type
REMARK                         _______ _______ _______ _____ _____    ______ ____
ROOT
ATOM      1  N   UNL     1      -0.055   1.396  -0.397  0.00  0.00    -0.246 N 
ATOM      2  H   UNL     1       0.741   1.872  -0.682  0.00  0.00    +0.172 HD
ENDROOT
BRANCH   1   3
ATOM      3  C   UNL     1      -1.244   2.028  -0.369  0.00  0.00    +0.151 C 
ATOM      4  S   UNL     1      -1.351   3.674  -0.830  0.00  0.00    -0.017 S 
BRANCH   3   5
ATOM      5  N   UNL     1      -2.351   1.365   0.021  0.00  0.00    -0.296 N 
ATOM      6  H   UNL     1      -2.303   0.417   0.222  0.00  0.00    +0.154 HD
BRANCH   5  11
ATOM      7  C   UNL     1      -7.291   4.115   0.487  0.00  0.00    +0.044 C 
ATOM      8  C   UNL     1      -5.978   3.385   0.363  0.00  0.00    -0.050 A 
ATOM      9  C   UNL     1      -5.183   3.579  -0.751  0.00  0.00    +0.005 A 
ATOM     10  C   UNL     1      -3.980   2.911  -0.868  0.00  0.00    +0.023 A 
ATOM     11  C   UNL     1      -3.569   2.043   0.136  0.00  0.00    +0.033 A 
ATOM     12  C   UNL     1      -4.372   1.847   1.251  0.00  0.00    +0.023 A 
ATOM     13  C   UNL     1      -5.572   2.522   1.364  0.00  0.00    +0.005 A 
ENDBRANCH   5  11
ENDBRANCH   3   5
ENDBRANCH   1   3
BRANCH   1  14
ATOM     14  N   UNL     1       0.032   0.049  -0.021  0.00  0.00    -0.247 N 
ATOM     15  H   UNL     1      -0.764  -0.427   0.264  0.00  0.00    +0.172 HD
BRANCH  14  16
ATOM     16  C   UNL     1       1.221  -0.584  -0.054  0.00  0.00    +0.147 C 
ATOM     17  S   UNL     1       1.327  -2.230   0.406  0.00  0.00    -0.017 S 
BRANCH  16  18
ATOM     18  N   UNL     1       2.327   0.077  -0.449  0.00  0.00    -0.319 N 
ATOM     19  H   UNL     1       2.267   1.010  -0.710  0.00  0.00    +0.148 HD
BRANCH  18  20
ATOM     20  C   UNL     1       3.619  -0.612  -0.485  0.00  0.00    +0.095 C 
ATOM     21  C   UNL     1       4.528   0.068  -1.512  0.00  0.00    +0.027 C 
ATOM     22  C   UNL     1       5.946  -0.493  -1.351  0.00  0.00    +0.006 C 
ATOM     23  C   UNL     1       6.498  -0.034   0.001  0.00  0.00    +0.027 C 
ATOM     24  C   UNL     1       5.501  -0.313   1.088  0.00  0.00    -0.029 C 
ATOM     25  C   UNL     1       4.248  -0.560   0.876  0.00  0.00    -0.009 C 
ENDBRANCH  18  20
ENDBRANCH  16  18
ENDBRANCH  14  16
ENDBRANCH   1  14
TORSDOF 7
