REMARK  Name = ZINC43218058
REMARK  11 active torsions:
REMARK  status: ('A' for Active; 'I' for Inactive)
REMARK    1  A    between atoms: C_1  and  C_2
REMARK    2  A    between atoms: C_2  and  C_3
REMARK    3  A    between atoms: C_3  and  C_4
REMARK    4  A    between atoms: C_4  and  C_5
REMARK    5  A    between atoms: C_5  and  C_7
REMARK    6  A    between atoms: C_5  and  N_28
REMARK    7  A    between atoms: C_9  and  C_12
REMARK    8  A    between atoms: N_14  and  C_15
REMARK    9  A    between atoms: C_15  and  C_16
REMARK   10  A    between atoms: C_16  and  N_17
REMARK   11  A    between atoms: N_17  and  C_18
REMARK                            x       y       z     vdW  Elec       q    Type
REMARK                         _______ _______ _______ _____ _____    ______ ____
ROOT
ATOM      1  C   UNL     1      -3.244  -7.194  -1.872  0.00  0.00    +0.266 C 
ATOM      2  O   UNL     1      -3.089  -8.345  -1.511  0.00  0.00    -0.268 OA
ATOM      3  N   UNL     1      -3.638  -6.931  -3.134  0.00  0.00    -0.309 N 
ATOM      4  H   UNL     1      -3.761  -6.013  -3.422  0.00  0.00    +0.149 HD
ENDROOT
BRANCH   1   7
ATOM      5  C   UNL     1      -2.831  -4.094  -0.117  0.00  0.00    +0.182 A 
ATOM      6  N   UNL     1      -3.131  -4.758  -1.192  0.00  0.00    -0.210 NA
ATOM      7  C   UNL     1      -3.000  -6.087  -0.930  0.00  0.00    +0.163 A 
ATOM      8  C   UNL     1      -2.602  -6.201   0.367  0.00  0.00    +0.230 A 
ATOM      9  O   UNL     1      -2.497  -4.955   0.855  0.00  0.00    -0.449 OA
BRANCH   5  10
ATOM     10  C   UNL     1      -2.848  -2.593   0.015  0.00  0.00    +0.013 C 
BRANCH  10  11
ATOM     11  N   UNL     1      -3.498  -2.220   1.279  0.00  0.00    +0.386 N 
ATOM     12  H   UNL     1      -4.444  -2.569   1.286  0.00  0.00    -0.089 HD
ATOM     13  H   UNL     1      -2.986  -2.620   2.051  0.00  0.00    -0.089 HD
ATOM     14  H   UNL     1      -3.510  -1.215   1.367  0.00  0.00    -0.089 HD
ENDBRANCH  10  11
BRANCH  10  15
ATOM     15  C   UNL     1      -1.413  -2.063   0.004  0.00  0.00    -0.007 C 
BRANCH  15  16
ATOM     16  C   UNL     1      -1.433  -0.534   0.013  0.00  0.00    -0.001 C 
BRANCH  16  18
ATOM     17  C   UNL     1      -0.019   1.526   0.010  0.00  0.00    +0.004 C 
ATOM     18  C   UNL     1       0.002  -0.004   0.002  0.00  0.00    -0.003 C 
ENDBRANCH  16  18
ENDBRANCH  15  16
ENDBRANCH  10  15
ENDBRANCH   5  10
ENDBRANCH   1   7
BRANCH   3  19
ATOM     19  C   UNL     1      -3.880  -8.031  -4.070  0.00  0.00    +0.123 C 
BRANCH  19  20
ATOM     20  C   UNL     1      -4.313  -7.464  -5.423  0.00  0.00    +0.120 C 
BRANCH  20  21
ATOM     21  N   UNL     1      -4.556  -8.564  -6.359  0.00  0.00    -0.342 N 
ATOM     22  H   UNL     1      -4.432  -9.482  -6.071  0.00  0.00    +0.146 HD
BRANCH  21  23
ATOM     23  C   UNL     1      -4.963  -8.292  -7.663  0.00  0.00    +0.035 A 
ATOM     24  C   UNL     1      -5.134  -6.989  -8.081  0.00  0.00    +0.023 A 
ATOM     25  C   UNL     1      -5.540  -6.707  -9.382  0.00  0.00    +0.002 A 
ATOM     26  C   UNL     1      -5.779  -7.706 -10.276  0.00  0.00    +0.008 A 
ATOM     27  C   UNL     1      -5.616  -9.047  -9.891  0.00  0.00    -0.016 A 
ATOM     28  C   UNL     1      -5.198  -9.347  -8.571  0.00  0.00    +0.003 A 
ATOM     29  C   UNL     1      -5.031 -10.688  -8.189  0.00  0.00    +0.010 A 
ATOM     30  C   UNL     1      -5.267 -11.680  -9.091  0.00  0.00    +0.001 A 
ATOM     31  C   UNL     1      -5.673 -11.386 -10.391  0.00  0.00    +0.001 A 
ATOM     32  C   UNL     1      -5.856 -10.098 -10.793  0.00  0.00    +0.008 A 
ENDBRANCH  21  23
ENDBRANCH  20  21
ENDBRANCH  19  20
ENDBRANCH   3  19
TORSDOF 10
