REMARK  Name = ZINC12659486
REMARK  8 active torsions:
REMARK  status: ('A' for Active; 'I' for Inactive)
REMARK    1  A    between atoms: C_1  and  C_2
REMARK    2  A    between atoms: N_6  and  N_7
REMARK    3  A    between atoms: N_7  and  C_8
REMARK    4  A    between atoms: C_8  and  N_10
REMARK    5  A    between atoms: C_22  and  C_33
REMARK    6  A    between atoms: N_28  and  N_29
REMARK    7  A    between atoms: N_29  and  C_30
REMARK    8  A    between atoms: C_30  and  N_32
REMARK                            x       y       z     vdW  Elec       q    Type
REMARK                         _______ _______ _______ _____ _____    ______ ____
ROOT
ATOM      1  C   UNL     1      -6.659   2.671  -1.692  0.00  0.00    +0.012 C 
ATOM      2  C   UNL     1      -5.983   2.334  -3.016  0.00  0.00    -0.025 C 
ATOM      3  C   UNL     1      -6.001   3.582  -3.916  0.00  0.00    +0.013 C 
ATOM      4  C   UNL     1      -7.429   4.073  -4.142  0.00  0.00    +0.053 C 
ATOM      5  C   UNL     1      -8.288   2.936  -4.640  0.00  0.00    +0.037 C 
ATOM      6  N   UNL     1      -9.054   3.088  -5.656  0.00  0.00    -0.190 NA
ATOM      7  C   UNL     1      -8.223   1.609  -3.917  0.00  0.00    +0.056 C 
ATOM      8  C   UNL     1      -6.756   1.221  -3.732  0.00  0.00    +0.001 C 
ATOM      9  C   UNL     1      -6.662  -0.082  -2.941  0.00  0.00    +0.005 C 
ATOM     10  C   UNL     1      -5.200  -0.528  -2.892  0.00  0.00    +0.004 C 
ATOM     11  C   UNL     1      -4.343   0.535  -2.209  0.00  0.00    -0.003 C 
ATOM     12  C   UNL     1      -4.536   1.901  -2.831  0.00  0.00    -0.001 C 
ATOM     13  C   UNL     1      -3.673   2.950  -2.149  0.00  0.00    +0.005 C 
ATOM     14  C   UNL     1      -3.771   2.940  -0.637  0.00  0.00    +0.013 C 
ATOM     15  C   UNL     1      -3.684   1.572  -0.012  0.00  0.00    +0.011 C 
ATOM     16  C   UNL     1      -4.562   0.514  -0.699  0.00  0.00    +0.004 C 
ATOM     17  C   UNL     1      -3.933  -0.812  -0.173  0.00  0.00    +0.010 C 
ATOM     18  C   UNL     1      -2.427  -0.501  -0.057  0.00  0.00    +0.053 C 
ATOM     19  C   UNL     1      -2.283   1.008  -0.037  0.00  0.00    +0.043 C 
ATOM     20  N   UNL     1      -1.190   1.674  -0.038  0.00  0.00    -0.189 NA
ATOM     21  C   UNL     1      -4.126   1.687   1.453  0.00  0.00    +0.018 C 
ENDROOT
BRANCH   6  22
ATOM     22  N   UNL     1      -9.773   1.996  -6.162  0.00  0.00    -0.219 N 
ATOM     23  H   UNL     1      -9.753   1.145  -5.696  0.00  0.00    +0.176 HD
BRANCH  22  24
ATOM     24  C   UNL     1     -10.491   2.129  -7.294  0.00  0.00    +0.147 C 
ATOM     25  S   UNL     1     -11.369   0.795  -7.912  0.00  0.00    -0.017 S 
BRANCH  24  26
ATOM     26  N   UNL     1     -10.518   3.311  -7.941  0.00  0.00    -0.339 N 
ATOM     27  H   UNL     1     -10.020   4.067  -7.591  0.00  0.00    +0.144 HD
ATOM     28  H   UNL     1     -11.035   3.406  -8.756  0.00  0.00    +0.144 HD
ENDBRANCH  24  26
ENDBRANCH  22  24
ENDBRANCH   6  22
BRANCH  20  29
ATOM     29  N   UNL     1       0.039   1.002  -0.060  0.00  0.00    -0.219 N 
ATOM     30  H   UNL     1       0.062   0.032  -0.075  0.00  0.00    +0.176 HD
BRANCH  29  31
ATOM     31  C   UNL     1       1.190   1.703  -0.068  0.00  0.00    +0.147 C 
ATOM     32  S   UNL     1       2.692   0.882  -0.102  0.00  0.00    -0.017 S 
BRANCH  31  33
ATOM     33  N   UNL     1       1.159   3.050  -0.048  0.00  0.00    -0.339 N 
ATOM     34  H   UNL     1       0.308   3.515  -0.028  0.00  0.00    +0.144 HD
ATOM     35  H   UNL     1       1.988   3.555  -0.053  0.00  0.00    +0.144 HD
ENDBRANCH  31  33
ENDBRANCH  29  31
ENDBRANCH  20  29
TORSDOF 6
