REMARK  Name = ZINC38884768
REMARK  9 active torsions:
REMARK  status: ('A' for Active; 'I' for Inactive)
REMARK    1  A    between atoms: C_4  and  C_7
REMARK    2  A    between atoms: C_9  and  C_12
REMARK    3  A    between atoms: C_12  and  N_13
REMARK    4  A    between atoms: C_17  and  C_20
REMARK    5  A    between atoms: N_22  and  C_23
REMARK    6  A    between atoms: C_23  and  C_24
REMARK    7  A    between atoms: C_24  and  S_25
REMARK    8  A    between atoms: S_25  and  C_26
REMARK    9  A    between atoms: C_26  and  C_27
REMARK                            x       y       z     vdW  Elec       q    Type
REMARK                         _______ _______ _______ _____ _____    ______ ____
ROOT
ATOM      1  N   UNL     1       5.866  -4.163  -1.472  0.00  0.00    +0.386 N 
ATOM      2  C   UNL     1       6.867  -3.315  -2.131  0.00  0.00    -0.078 C 
ATOM      3  C   UNL     1       6.994  -3.717  -3.602  0.00  0.00    -0.018 C 
ATOM      4  C   UNL     1       7.428  -5.183  -3.689  0.00  0.00    +0.009 C 
ATOM      5  C   UNL     1       6.415  -6.050  -2.935  0.00  0.00    +0.058 C 
ATOM      6  C   UNL     1       6.310  -5.562  -1.489  0.00  0.00    -0.065 C 
ATOM      7  H   UNL     1       4.987  -4.084  -1.962  0.00  0.00    -0.081 HD
ENDROOT
BRANCH   5   8
ATOM      8  C   UNL     1       6.873  -7.486  -2.950  0.00  0.00    +0.214 C 
ATOM      9  O   UNL     1       7.090  -8.064  -1.906  0.00  0.00    -0.276 OA
ATOM     10  N   UNL     1       7.041  -8.128  -4.123  0.00  0.00    -0.314 N 
ATOM     11  H   UNL     1       6.867  -7.665  -4.958  0.00  0.00    +0.149 HD
BRANCH  10  12
ATOM     12  C   UNL     1       7.485  -9.524  -4.138  0.00  0.00    +0.115 C 
BRANCH  12  13
ATOM     13  C   UNL     1       7.595 -10.009  -5.584  0.00  0.00    +0.088 C 
BRANCH  13  14
ATOM     14  S   UNL     1       8.145 -11.737  -5.602  0.00  0.00    -0.155 S 
BRANCH  14  15
ATOM     15  C   UNL     1       8.223 -12.155  -7.366  0.00  0.00    +0.104 C 
BRANCH  15  16
ATOM     16  C   UNL     1       8.674 -13.584  -7.524  0.00  0.00    -0.036 A 
ATOM     17  C   UNL     1      10.022 -13.876  -7.627  0.00  0.00    +0.006 A 
ATOM     18  C   UNL     1      10.437 -15.186  -7.773  0.00  0.00    +0.022 A 
ATOM     19  C   UNL     1       9.503 -16.207  -7.816  0.00  0.00    +0.059 A 
ATOM     20  C   UNL     1       8.154 -15.914  -7.712  0.00  0.00    +0.060 A 
ATOM     21  C   UNL     1       7.741 -14.603  -7.561  0.00  0.00    +0.026 A 
ATOM     22 CL   UNL     1       6.982 -17.194  -7.766  0.00  0.00    -0.082 Cl
ATOM     23 CL   UNL     1      10.024 -17.853  -7.999  0.00  0.00    -0.082 Cl
ENDBRANCH  15  16
ENDBRANCH  14  15
ENDBRANCH  13  14
ENDBRANCH  12  13
ENDBRANCH  10  12
ENDBRANCH   5   8
BRANCH   1  24
ATOM     24  C   UNL     1       5.692  -3.722  -0.082  0.00  0.00    +0.022 C 
BRANCH  24  27
ATOM     25  C   UNL     1       3.699  -0.689  -0.037  0.00  0.00    +0.202 A 
ATOM     26  N   UNL     1       3.853  -2.025  -0.051  0.00  0.00    -0.193 NA
ATOM     27  C   UNL     1       5.120  -2.328  -0.065  0.00  0.00    +0.211 A 
ATOM     28  O   UNL     1       5.828  -1.191  -0.059  0.00  0.00    -0.340 OA
ATOM     29  N   UNL     1       4.884  -0.131  -0.046  0.00  0.00    -0.056 NA
BRANCH  25  33
ATOM     30  C   UNL     1      -0.017   1.379   0.010  0.00  0.00    +0.000 A 
ATOM     31  C   UNL     1       1.169   2.092   0.002  0.00  0.00    +0.001 A 
ATOM     32  C   UNL     1       2.377   1.426  -0.013  0.00  0.00    +0.012 A 
ATOM     33  C   UNL     1       2.402   0.033  -0.021  0.00  0.00    +0.022 A 
ATOM     34  C   UNL     1       1.205  -0.680  -0.013  0.00  0.00    +0.012 A 
ATOM     35  C   UNL     1       0.002  -0.004   0.002  0.00  0.00    +0.001 A 
ENDBRANCH  25  33
ENDBRANCH  24  27
ENDBRANCH   1  24
TORSDOF 9
