REMARK  Name = ZINC39016194
REMARK  6 active torsions:
REMARK  status: ('A' for Active; 'I' for Inactive)
REMARK    1  A    between atoms: C_10  and  C_11
REMARK    2  A    between atoms: C_11  and  S_12
REMARK    3  A    between atoms: S_12  and  C_13
REMARK    4  A    between atoms: C_17  and  C_21
REMARK    5  A    between atoms: N_19  and  N_20
REMARK    6  A    between atoms: C_24  and  C_27
REMARK                            x       y       z     vdW  Elec       q    Type
REMARK                         _______ _______ _______ _____ _____    ______ ____
ROOT
ATOM      1  C   UNL     1       7.043   1.393   1.477  0.00  0.00    +0.214 C 
ATOM      2  N   UNL     1       8.013   0.611   0.679  0.00  0.00    -0.228 NA
ATOM      3  N   UNL     1       8.711   1.615  -0.139  0.00  0.00    -0.234 NA
ATOM      4  C   UNL     1       7.630   2.571  -0.492  0.00  0.00    +0.185 C 
ATOM      5  N   UNL     1       6.796   2.645   0.731  0.00  0.00    -0.197 NA
ATOM      6  H   UNL     1       8.660   0.119   1.277  0.00  0.00    +0.143 HD
ATOM      7  H   UNL     1       9.439   2.071   0.391  0.00  0.00    +0.143 HD
ENDROOT
BRANCH   4   8
ATOM      8  C   UNL     1       8.216   3.944  -0.827  0.00  0.00    +0.187 C 
ATOM      9  C   UNL     1       9.092   3.866  -2.065  0.00  0.00    +0.034 C 
ATOM     10  C   UNL     1      10.311   4.228  -1.622  0.00  0.00    +0.091 C 
ATOM     11  N   UNL     1      10.268   4.508  -0.293  0.00  0.00    -0.154 NA
ATOM     12  N   UNL     1       9.152   4.379   0.223  0.00  0.00    -0.176 NA
BRANCH  10  13
ATOM     13  C   UNL     1      11.529   4.310  -2.466  0.00  0.00    +0.002 A 
ATOM     14  C   UNL     1      11.460   4.005  -3.824  0.00  0.00    +0.013 A 
ATOM     15  C   UNL     1      12.594   4.083  -4.605  0.00  0.00    +0.039 A 
ATOM     16  C   UNL     1      13.801   4.464  -4.041  0.00  0.00    +0.123 A 
ATOM     17  C   UNL     1      13.874   4.767  -2.691  0.00  0.00    +0.039 A 
ATOM     18  C   UNL     1      12.744   4.698  -1.904  0.00  0.00    +0.013 A 
ATOM     19  F   UNL     1      14.910   4.538  -4.809  0.00  0.00    -0.205 F 
ENDBRANCH  10  13
ENDBRANCH   4   8
BRANCH   5  20
ATOM     20  N   UNL     1       7.146   3.807   1.532  0.00  0.00    -0.264 NA
ATOM     21  H   UNL     1       6.602   3.837   2.381  0.00  0.00    +0.137 HD
ATOM     22  H   UNL     1       8.134   3.822   1.734  0.00  0.00    +0.137 HD
ENDBRANCH   5  20
BRANCH   1  23
ATOM     23  S   UNL     1       5.496   0.464   1.661  0.00  0.00    -0.119 S 
BRANCH  23  24
ATOM     24  C   UNL     1       4.960   0.161  -0.046  0.00  0.00    +0.107 C 
BRANCH  24  34
ATOM     25  C   UNL     1      -0.016   1.357   0.009  0.00  0.00    +0.001 A 
ATOM     26  C   UNL     1       1.169   2.091   0.002  0.00  0.00    +0.001 A 
ATOM     27  C   UNL     1       2.378   1.468  -0.013  0.00  0.00    +0.009 A 
ATOM     28  C   UNL     1       2.438   0.064  -0.021  0.00  0.00    -0.014 A 
ATOM     29  C   UNL     1       1.233  -0.683  -0.013  0.00  0.00    -0.018 A 
ATOM     30  C   UNL     1       0.002  -0.004   0.002  0.00  0.00    +0.008 A 
ATOM     31  C   UNL     1       1.292  -2.087  -0.021  0.00  0.00    +0.008 A 
ATOM     32  C   UNL     1       2.502  -2.709  -0.036  0.00  0.00    +0.001 A 
ATOM     33  C   UNL     1       3.687  -1.976  -0.043  0.00  0.00    +0.005 A 
ATOM     34  C   UNL     1       3.668  -0.615  -0.037  0.00  0.00    -0.030 A 
ENDBRANCH  24  34
ENDBRANCH  23  24
ENDBRANCH   1  23
TORSDOF 6
