REMARK  Name = ZINC01752158
REMARK  7 active torsions:
REMARK  status: ('A' for Active; 'I' for Inactive)
REMARK    1  A    between atoms: C_6  and  C_7
REMARK    2  A    between atoms: N_11  and  C_15
REMARK    3  A    between atoms: C_15  and  C_16
REMARK    4  A    between atoms: C_16  and  C_17
REMARK    5  A    between atoms: N_19  and  C_20
REMARK    6  A    between atoms: C_23  and  S_26
REMARK    7  A    between atoms: S_26  and  N_29
REMARK                            x       y       z     vdW  Elec       q    Type
REMARK                         _______ _______ _______ _____ _____    ______ ____
ROOT
ATOM      1  C   UNL     1      -2.690   5.907   6.572  0.00  0.00    +0.115 C 
ENDROOT
BRANCH   1   2
ATOM      2  C   UNL     1      -1.807   5.844   5.352  0.00  0.00    +0.219 C 
ATOM      3  O   UNL     1      -0.946   6.681   5.183  0.00  0.00    -0.275 OA
ATOM      4  N   UNL     1      -1.974   4.857   4.450  0.00  0.00    -0.285 N 
ATOM      5  H   UNL     1      -2.704   4.226   4.551  0.00  0.00    +0.155 HD
BRANCH   4   6
ATOM      6  C   UNL     1      -1.095   4.743   3.367  0.00  0.00    +0.033 A 
ATOM      7  C   UNL     1       0.245   5.071   3.521  0.00  0.00    +0.025 A 
ATOM      8  C   UNL     1       1.110   4.957   2.451  0.00  0.00    +0.030 A 
ATOM      9  C   UNL     1       0.643   4.518   1.226  0.00  0.00    +0.105 A 
ATOM     10  C   UNL     1      -0.693   4.196   1.067  0.00  0.00    +0.030 A 
ATOM     11  C   UNL     1      -1.562   4.302   2.135  0.00  0.00    +0.025 A 
BRANCH   9  12
ATOM     12  S   UNL     1       1.749   4.375  -0.138  0.00  0.00    +0.056 S 
ATOM     13  O   UNL     1       2.830   5.261   0.121  0.00  0.00    -0.153 OA
ATOM     14  O   UNL     1       0.958   4.464  -1.315  0.00  0.00    -0.153 OA
BRANCH  12  15
ATOM     15  N   UNL     1       2.375   2.842  -0.103  0.00  0.00    -0.204 NA
ATOM     16  H   UNL     1       2.104   2.224   0.594  0.00  0.00    +0.144 HD
ATOM     17  H   UNL     1       3.012   2.563  -0.778  0.00  0.00    +0.144 HD
ENDBRANCH  12  15
ENDBRANCH   9  12
ENDBRANCH   4   6
ENDBRANCH   1   2
BRANCH   1  18
ATOM     18  C   UNL     1      -2.294   7.113   7.426  0.00  0.00    +0.124 C 
BRANCH  18  23
ATOM     19  C   UNL     1      -3.568   6.112  12.115  0.00  0.00    +0.028 C 
ATOM     20  C   UNL     1      -3.688   6.646  10.873  0.00  0.00    +0.077 C 
ATOM     21  C   UNL     1      -2.779   6.545   9.713  0.00  0.00    +0.258 C 
ATOM     22  O   UNL     1      -1.739   5.914   9.768  0.00  0.00    -0.269 OA
ATOM     23  N   UNL     1      -3.152   7.174   8.612  0.00  0.00    -0.255 N 
ATOM     24  C   UNL     1      -4.302   7.876   8.557  0.00  0.00    +0.121 C 
ATOM     25  S   UNL     1      -4.949   8.756   7.238  0.00  0.00    -0.027 S 
ATOM     26  S   UNL     1      -4.989   7.663  10.191  0.00  0.00    -0.061 S 
BRANCH  19  32
ATOM     27  C   UNL     1      -5.296   7.646  13.033  0.00  0.00    +0.011 A 
ATOM     28  C   UNL     1      -6.184   7.997  14.027  0.00  0.00    +0.039 A 
ATOM     29  C   UNL     1      -6.292   7.220  15.171  0.00  0.00    +0.123 A 
ATOM     30  C   UNL     1      -5.513   6.082  15.319  0.00  0.00    +0.039 A 
ATOM     31  C   UNL     1      -4.626   5.716  14.330  0.00  0.00    +0.011 A 
ATOM     32  C   UNL     1      -4.512   6.496  13.174  0.00  0.00    -0.024 A 
ATOM     33  F   UNL     1      -7.160   7.572  16.144  0.00  0.00    -0.205 F 
ENDBRANCH  19  32
ENDBRANCH  18  23
ENDBRANCH   1  18
TORSDOF 7
