REMARK  Name = ZINC04019129
REMARK  4 active torsions:
REMARK  status: ('A' for Active; 'I' for Inactive)
REMARK    1  A    between atoms: C_7  and  N_12
REMARK    2  A    between atoms: C_8  and  C_9
REMARK    3  A    between atoms: C_13  and  C_15
REMARK    4  A    between atoms: C_21  and  C_23
REMARK                            x       y       z     vdW  Elec       q    Type
REMARK                         _______ _______ _______ _____ _____    ______ ____
ROOT
ATOM      1  C   UNL     1       0.091   1.619   0.120  0.00  0.00    +0.001 C 
ATOM      2  C   UNL     1       1.535   2.109   0.206  0.00  0.00    +0.005 C 
ATOM      3  C   UNL     1       2.294   1.754  -1.069  0.00  0.00    +0.037 C 
ATOM      4  C   UNL     1       2.929   0.379  -0.925  0.00  0.00    -0.023 A 
ATOM      5  C   UNL     1       2.431  -0.577  -0.112  0.00  0.00    -0.004 A 
ATOM      6  S   UNL     1       3.512  -1.963  -0.328  0.00  0.00    -0.077 S 
ATOM      7  C   UNL     1       4.594  -1.312  -1.435  0.00  0.00    +0.084 A 
ATOM      8  C   UNL     1       4.125  -0.028  -1.649  0.00  0.00    +0.068 A 
ATOM      9  C   UNL     1       1.238  -0.481   0.788  0.00  0.00    +0.043 C 
ATOM     10  C   UNL     1       0.057   0.099  -0.002  0.00  0.00    +0.005 C 
ENDROOT
BRANCH   8  11
ATOM     11  C   UNL     1       4.806   0.888  -2.569  0.00  0.00    +0.244 C 
ATOM     12  O   UNL     1       5.688   1.620  -2.159  0.00  0.00    -0.270 OA
ATOM     13  N   UNL     1       4.455   0.920  -3.870  0.00  0.00    -0.325 N 
ATOM     14  H   UNL     1       3.752   0.337  -4.198  0.00  0.00    +0.145 HD
ATOM     15  H   UNL     1       4.906   1.526  -4.479  0.00  0.00    +0.145 HD
ENDBRANCH   8  11
BRANCH   7  16
ATOM     16  N   UNL     1       5.703  -1.921  -2.003  0.00  0.00    -0.279 N 
ATOM     17  C   UNL     1       6.015  -3.191  -1.676  0.00  0.00    +0.222 C 
ATOM     18  O   UNL     1       5.327  -3.801  -0.886  0.00  0.00    -0.275 OA
ATOM     19  H   UNL     1       6.253  -1.433  -2.635  0.00  0.00    +0.155 HD
BRANCH  17  20
ATOM     20  C   UNL     1       7.220  -3.853  -2.293  0.00  0.00    +0.093 C 
ATOM     21  C   UNL     1       7.936  -4.702  -1.241  0.00  0.00    +0.040 C 
ATOM     22  C   UNL     1       7.109  -5.905  -0.896  0.00  0.00    -0.030 C 
ATOM     23  C   UNL     1       6.133  -6.347  -1.624  0.00  0.00    -0.030 C 
ATOM     24  C   UNL     1       5.687  -5.710  -2.908  0.00  0.00    +0.042 C 
ATOM     25  C   UNL     1       6.775  -4.769  -3.441  0.00  0.00    +0.118 C 
BRANCH  25  26
ATOM     26  C   UNL     1       6.225  -3.935  -4.570  0.00  0.00    +0.360 C 
ATOM     27  O   UNL     1       6.479  -4.231  -5.725  0.00  0.00    -0.246 OA
ATOM     28  O   UNL     1       5.527  -2.966  -4.328  0.00  0.00    -0.246 OA
ENDBRANCH  25  26
ENDBRANCH  17  20
ENDBRANCH   7  16
TORSDOF 4
