REMARK  Name = ZINC35231824
REMARK  9 active torsions:
REMARK  status: ('A' for Active; 'I' for Inactive)
REMARK    1  A    between atoms: C_1  and  C_2
REMARK    2  A    between atoms: C_2  and  C_3
REMARK    3  A    between atoms: C_3  and  C_4
REMARK    4  A    between atoms: C_4  and  N_5
REMARK    5  A    between atoms: N_5  and  C_6
REMARK    6  A    between atoms: C_6  and  C_7
REMARK    7  A    between atoms: C_21  and  C_23
REMARK    8  A    between atoms: N_32  and  C_33
REMARK    9  A    between atoms: C_37  and  C_39
REMARK                            x       y       z     vdW  Elec       q    Type
REMARK                         _______ _______ _______ _____ _____    ______ ____
ROOT
ATOM      1  C   UNL     1      -3.661  -3.792  -1.745  0.00  0.00    +0.238 C 
ATOM      2  O   UNL     1      -3.001  -4.646  -1.191  0.00  0.00    -0.273 OA
ATOM      3  N   UNL     1      -4.366  -4.097  -2.852  0.00  0.00    -0.255 N 
ATOM      4  C   UNL     1      -4.417  -5.422  -3.306  0.00  0.00    +0.061 A 
ATOM      5  C   UNL     1      -3.361  -6.288  -3.070  0.00  0.00    +0.025 A 
ATOM      6  C   UNL     1      -3.429  -7.595  -3.514  0.00  0.00    +0.002 A 
ATOM      7  C   UNL     1      -4.546  -8.047  -4.194  0.00  0.00    +0.002 A 
ATOM      8  C   UNL     1      -5.603  -7.189  -4.439  0.00  0.00    +0.028 A 
ATOM      9  C   UNL     1      -5.540  -5.881  -4.003  0.00  0.00    +0.068 A 
ATOM     10  N   UNL     1      -6.575  -4.967  -4.250  0.00  0.00    -0.316 N 
ATOM     11  C   UNL     1      -7.841  -5.178  -4.683  0.00  0.00    +0.092 A 
ATOM     12  C   UNL     1      -8.464  -3.980  -4.761  0.00  0.00    +0.020 A 
ATOM     13  C   UNL     1      -7.538  -2.991  -4.361  0.00  0.00    +0.025 A 
ATOM     14  C   UNL     1      -6.395  -3.615  -4.056  0.00  0.00    +0.049 A 
ATOM     15  C   UNL     1      -5.088  -3.039  -3.578  0.00  0.00    +0.159 C 
ENDROOT
BRANCH  15  16
ATOM     16  C   UNL     1      -4.272  -2.585  -4.761  0.00  0.00    -0.021 A 
ATOM     17  C   UNL     1      -3.586  -3.511  -5.524  0.00  0.00    +0.008 A 
ATOM     18  C   UNL     1      -2.838  -3.096  -6.609  0.00  0.00    +0.038 A 
ATOM     19  C   UNL     1      -2.776  -1.751  -6.933  0.00  0.00    +0.123 A 
ATOM     20  C   UNL     1      -3.464  -0.824  -6.168  0.00  0.00    +0.038 A 
ATOM     21  C   UNL     1      -4.215  -1.242  -5.086  0.00  0.00    +0.008 A 
ATOM     22  F   UNL     1      -2.045  -1.344  -7.993  0.00  0.00    -0.205 F 
ENDBRANCH  15  16
BRANCH   1  23
ATOM     23  C   UNL     1      -3.691  -2.389  -1.194  0.00  0.00    +0.205 C 
BRANCH  23  24
ATOM     24  N   UNL     1      -2.803  -2.300  -0.033  0.00  0.00    -0.277 N 
ATOM     25  C   UNL     1      -3.280  -2.554   1.201  0.00  0.00    +0.307 C 
ATOM     26  O   UNL     1      -4.448  -2.856   1.352  0.00  0.00    -0.252 OA
ATOM     27  N   UNL     1      -2.462  -2.472   2.270  0.00  0.00    -0.269 N 
ATOM     28  H   UNL     1      -1.551  -2.158   2.160  0.00  0.00    +0.156 HD
BRANCH  27  29
ATOM     29  C   UNL     1      -2.927  -2.841   3.537  0.00  0.00    +0.035 A 
ATOM     30  C   UNL     1      -2.467  -2.178   4.667  0.00  0.00    +0.023 A 
ATOM     31  C   UNL     1      -2.929  -2.543   5.916  0.00  0.00    +0.002 A 
ATOM     32  C   UNL     1      -3.848  -3.569   6.042  0.00  0.00    +0.003 A 
ATOM     33  C   UNL     1      -4.307  -4.231   4.919  0.00  0.00    -0.049 A 
ATOM     34  C   UNL     1      -3.854  -3.866   3.667  0.00  0.00    +0.026 A 
ATOM     35  C   UNL     1      -5.308  -5.349   5.061  0.00  0.00    +0.044 C 
ENDBRANCH  27  29
BRANCH  24  36
ATOM     36  C   UNL     1      -1.395  -1.936  -0.214  0.00  0.00    +0.110 C 
BRANCH  36  37
ATOM     37  C   UNL     1      -1.246  -0.416  -0.123  0.00  0.00    +0.019 C 
BRANCH  37  39
ATOM     38  C   UNL     1       0.374   1.484  -0.221  0.00  0.00    +0.004 C 
ATOM     39  C   UNL     1       0.224  -0.036  -0.312  0.00  0.00    -0.002 C 
ENDBRANCH  37  39
ENDBRANCH  36  37
ENDBRANCH  24  36
ENDBRANCH  23  24
ENDBRANCH   1  23
TORSDOF 7
