REMARK  Name = ZINC14902703
REMARK  5 active torsions:
REMARK  status: ('A' for Active; 'I' for Inactive)
REMARK    1  A    between atoms: C_4  and  N_7
REMARK    2  A    between atoms: C_11  and  S_13
REMARK    3  A    between atoms: S_13  and  C_14
REMARK    4  A    between atoms: C_14  and  C_15
REMARK    5  A    between atoms: N_23  and  C_24
REMARK                            x       y       z     vdW  Elec       q    Type
REMARK                         _______ _______ _______ _____ _____    ______ ____
ROOT
ATOM      1  S   UNL     1       0.974  -2.757  -1.703  0.00  0.00    -0.089 S 
ENDROOT
BRANCH   1   6
ATOM      2  N   UNL     1       3.404  -8.004  -2.124  0.00  0.00    -0.292 N 
ATOM      3  C   UNL     1       2.856  -6.773  -1.783  0.00  0.00    +0.187 A 
ATOM      4  N   UNL     1       2.711  -6.224  -0.592  0.00  0.00    -0.125 NA
ATOM      5  N   UNL     1       2.140  -4.978  -0.478  0.00  0.00    -0.133 NA
ATOM      6  C   UNL     1       1.732  -4.341  -1.559  0.00  0.00    +0.160 A 
ATOM      7  S   UNL     1       2.162  -5.511  -2.839  0.00  0.00    -0.024 S 
ATOM      8  H   UNL     1       3.525  -8.239  -3.058  0.00  0.00    +0.154 HD
BRANCH   2  12
ATOM      9  C   UNL     1       4.530 -10.682   0.860  0.00  0.00    +0.000 A 
ATOM     10  C   UNL     1       3.540  -9.749   1.108  0.00  0.00    +0.002 A 
ATOM     11  C   UNL     1       3.164  -8.860   0.120  0.00  0.00    +0.023 A 
ATOM     12  C   UNL     1       3.782  -8.902  -1.123  0.00  0.00    +0.033 A 
ATOM     13  C   UNL     1       4.772  -9.845  -1.371  0.00  0.00    +0.023 A 
ATOM     14  C   UNL     1       5.147 -10.727  -0.377  0.00  0.00    +0.002 A 
ENDBRANCH   2  12
ENDBRANCH   1   6
BRANCH   1  15
ATOM     15  C   UNL     1       0.858  -2.169   0.009  0.00  0.00    +0.151 C 
BRANCH  15  16
ATOM     16  C   UNL     1       0.218  -0.804   0.029  0.00  0.00    +0.125 A 
ATOM     17  N   UNL     1      -1.060  -0.582   0.130  0.00  0.00    -0.231 NA
ATOM     18  C   UNL     1      -1.292   0.756   0.118  0.00  0.00    +0.089 A 
ATOM     19  C   UNL     1      -2.451   1.533   0.201  0.00  0.00    +0.030 A 
ATOM     20  C   UNL     1      -2.361   2.895   0.155  0.00  0.00    +0.002 A 
ATOM     21  C   UNL     1      -1.127   3.520   0.038  0.00  0.00    +0.002 A 
ATOM     22  C   UNL     1       0.029   2.773  -0.040  0.00  0.00    +0.028 A 
ATOM     23  C   UNL     1      -0.043   1.387  -0.001  0.00  0.00    +0.074 A 
ATOM     24  N   UNL     1       0.893   0.374  -0.055  0.00  0.00    -0.270 N 
BRANCH  24  25
ATOM     25  C   UNL     1       2.343   0.537  -0.179  0.00  0.00    +0.449 C 
ATOM     26  F   UNL     1       2.880  -0.561  -0.860  0.00  0.00    -0.185 F 
ATOM     27  F   UNL     1       2.621   1.709  -0.891  0.00  0.00    -0.185 F 
ENDBRANCH  24  25
ENDBRANCH  15  16
ENDBRANCH   1  15
TORSDOF 5
