REMARK  Name = ZINC09335552
REMARK  6 active torsions:
REMARK  status: ('A' for Active; 'I' for Inactive)
REMARK    1  A    between atoms: C_4  and  C_7
REMARK    2  A    between atoms: C_10  and  N_13
REMARK    3  A    between atoms: C_14  and  C_16
REMARK    4  A    between atoms: C_16  and  C_17
REMARK    5  A    between atoms: C_17  and  C_19
REMARK    6  A    between atoms: C_17  and  N_26
REMARK                            x       y       z     vdW  Elec       q    Type
REMARK                         _______ _______ _______ _____ _____    ______ ____
ROOT
ATOM      1  N   UNL     1      -0.256   5.660   0.762  0.00  0.00    -0.285 N 
ATOM      2  C   UNL     1      -1.376   6.326   0.418  0.00  0.00    +0.219 C 
ATOM      3  O   UNL     1      -2.437   5.742   0.366  0.00  0.00    -0.275 OA
ATOM      4  H   UNL     1       0.580   6.140   0.873  0.00  0.00    +0.155 HD
ENDROOT
BRANCH   1   8
ATOM      5  C   UNL     1      -0.383   1.535   1.352  0.00  0.00    -0.018 A 
ATOM      6  C   UNL     1      -1.473   2.325   1.713  0.00  0.00    +0.010 A 
ATOM      7  C   UNL     1      -1.426   3.690   1.522  0.00  0.00    +0.024 A 
ATOM      8  C   UNL     1      -0.298   4.276   0.960  0.00  0.00    +0.033 A 
ATOM      9  C   UNL     1       0.787   3.489   0.594  0.00  0.00    +0.024 A 
ATOM     10  C   UNL     1       0.748   2.125   0.788  0.00  0.00    +0.010 A 
BRANCH   5  14
ATOM     11  C   UNL     1      -0.512  -2.672   1.954  0.00  0.00    +0.000 A 
ATOM     12  C   UNL     1      -1.593  -1.891   2.318  0.00  0.00    +0.001 A 
ATOM     13  C   UNL     1      -1.557  -0.524   2.126  0.00  0.00    +0.008 A 
ATOM     14  C   UNL     1      -0.428   0.067   1.562  0.00  0.00    -0.018 A 
ATOM     15  C   UNL     1       0.657  -0.726   1.192  0.00  0.00    +0.008 A 
ATOM     16  C   UNL     1       0.611  -2.091   1.393  0.00  0.00    +0.001 A 
ENDBRANCH   5  14
ENDBRANCH   1   8
BRANCH   2  17
ATOM     17  C   UNL     1      -1.309   7.797   0.097  0.00  0.00    +0.123 C 
BRANCH  17  18
ATOM     18  C   UNL     1      -2.707   8.305  -0.260  0.00  0.00    +0.115 C 
BRANCH  18  19
ATOM     19  C   UNL     1      -2.663   9.798  -0.461  0.00  0.00    -0.008 A 
ATOM     20  C   UNL     1      -1.451  10.434  -0.652  0.00  0.00    +0.007 A 
ATOM     21  C   UNL     1      -1.410  11.803  -0.841  0.00  0.00    +0.000 A 
ATOM     22  C   UNL     1      -2.582  12.537  -0.830  0.00  0.00    +0.001 A 
ATOM     23  C   UNL     1      -3.793  11.903  -0.634  0.00  0.00    +0.020 A 
ATOM     24  C   UNL     1      -3.835  10.533  -0.450  0.00  0.00    +0.046 A 
ATOM     25 CL   UNL     1      -5.357   9.735  -0.203  0.00  0.00    -0.083 Cl
ENDBRANCH  18  19
BRANCH  18  26
ATOM     26  N   UNL     1      -3.161   7.659  -1.494  0.00  0.00    -0.292 N 
ATOM     27  C   UNL     1      -2.448   7.798  -2.629  0.00  0.00    +0.298 C 
ATOM     28  O   UNL     1      -1.380   8.378  -2.609  0.00  0.00    -0.253 OA
ATOM     29  N   UNL     1      -2.919   7.293  -3.787  0.00  0.00    -0.313 N 
ATOM     30  H   UNL     1      -3.975   7.132  -1.494  0.00  0.00    +0.151 HD
ATOM     31  H   UNL     1      -3.771   6.830  -3.803  0.00  0.00    +0.146 HD
ATOM     32  H   UNL     1      -2.405   7.393  -4.604  0.00  0.00    +0.146 HD
ENDBRANCH  18  26
ENDBRANCH  17  18
ENDBRANCH   2  17
TORSDOF 6
