REMARK  Name = ZINC43213565
REMARK  8 active torsions:
REMARK  status: ('A' for Active; 'I' for Inactive)
REMARK    1  A    between atoms: C_4  and  C_7
REMARK    2  A    between atoms: C_7  and  C_8
REMARK    3  A    between atoms: C_8  and  C_10
REMARK    4  A    between atoms: C_8  and  N_29
REMARK    5  A    between atoms: C_12  and  C_15
REMARK    6  A    between atoms: N_17  and  C_18
REMARK    7  A    between atoms: C_18  and  C_19
REMARK    8  A    between atoms: C_24  and  C_25
REMARK                            x       y       z     vdW  Elec       q    Type
REMARK                         _______ _______ _______ _____ _____    ______ ____
ROOT
ATOM      1  C   UNL     1       5.422  -1.804   1.383  0.00  0.00    +0.182 A 
ATOM      2  N   UNL     1       5.481  -3.069   1.676  0.00  0.00    -0.210 NA
ATOM      3  C   UNL     1       6.772  -3.481   1.550  0.00  0.00    +0.163 A 
ATOM      4  C   UNL     1       7.501  -2.398   1.163  0.00  0.00    +0.230 A 
ATOM      5  O   UNL     1       6.647  -1.368   1.060  0.00  0.00    -0.449 OA
ENDROOT
BRANCH   3   6
ATOM      6  C   UNL     1       7.284  -4.842   1.787  0.00  0.00    +0.266 C 
ATOM      7  O   UNL     1       8.467  -5.082   1.638  0.00  0.00    -0.268 OA
ATOM      8  N   UNL     1       6.441  -5.822   2.170  0.00  0.00    -0.306 N 
ATOM      9  H   UNL     1       5.498  -5.631   2.289  0.00  0.00    +0.149 HD
BRANCH   8  10
ATOM     10  C   UNL     1       6.951  -7.176   2.406  0.00  0.00    +0.140 C 
BRANCH  10  11
ATOM     11  C   UNL     1       5.814  -8.075   2.820  0.00  0.00    -0.019 A 
ATOM     12  C   UNL     1       5.619  -8.371   4.156  0.00  0.00    +0.006 A 
ATOM     13  C   UNL     1       4.577  -9.195   4.536  0.00  0.00    +0.000 A 
ATOM     14  C   UNL     1       3.729  -9.723   3.580  0.00  0.00    +0.001 A 
ATOM     15  C   UNL     1       3.924  -9.427   2.244  0.00  0.00    +0.013 A 
ATOM     16  C   UNL     1       4.964  -8.598   1.865  0.00  0.00    +0.059 A 
BRANCH  16  17
ATOM     17  C   UNL     1       5.173  -8.270   0.409  0.00  0.00    +0.418 C 
ATOM     18  F   UNL     1       4.195  -8.912  -0.359  0.00  0.00    -0.166 F 
ATOM     19  F   UNL     1       5.078  -6.887   0.224  0.00  0.00    -0.166 F 
ATOM     20  F   UNL     1       6.441  -8.708   0.009  0.00  0.00    -0.166 F 
ENDBRANCH  16  17
ENDBRANCH  10  11
ENDBRANCH   8  10
ENDBRANCH   3   6
BRANCH   1  21
ATOM     21  C   UNL     1       4.171  -0.963   1.399  0.00  0.00    +0.017 C 
BRANCH  21  22
ATOM     22  N   UNL     1       4.452   0.319   2.059  0.00  0.00    +0.386 N 
ATOM     23  H   UNL     1       4.755   0.150   3.006  0.00  0.00    -0.089 HD
ATOM     24  H   UNL     1       5.178   0.805   1.555  0.00  0.00    -0.089 HD
ATOM     25  H   UNL     1       3.615   0.882   2.070  0.00  0.00    -0.089 HD
ENDBRANCH  21  22
BRANCH  21  26
ATOM     26  C   UNL     1       3.711  -0.707  -0.038  0.00  0.00    +0.028 C 
BRANCH  26  30
ATOM     27  C   UNL     1      -0.017   1.378   0.010  0.00  0.00    +0.000 A 
ATOM     28  C   UNL     1       1.171   2.086   0.002  0.00  0.00    +0.000 A 
ATOM     29  C   UNL     1       2.377   1.411  -0.013  0.00  0.00    +0.003 A 
ATOM     30  C   UNL     1       2.396   0.029  -0.020  0.00  0.00    -0.048 A 
ATOM     31  C   UNL     1       1.208  -0.679  -0.012  0.00  0.00    +0.003 A 
ATOM     32  C   UNL     1       0.002  -0.004   0.002  0.00  0.00    +0.000 A 
ENDBRANCH  26  30
ENDBRANCH  21  26
ENDBRANCH   1  21
TORSDOF 8
