REMARK  Name = ZINC06135083
REMARK  15 active torsions:
REMARK  status: ('A' for Active; 'I' for Inactive)
REMARK    1  A    between atoms: C_1  and  C_2
REMARK    2  A    between atoms: C_2  and  C_3
REMARK    3  A    between atoms: C_3  and  C_4
REMARK    4  A    between atoms: C_4  and  N_5
REMARK    5  A    between atoms: N_5  and  S_6
REMARK    6  A    between atoms: S_6  and  C_9
REMARK    7  A    between atoms: C_16  and  S_22
REMARK    8  A    between atoms: N_17  and  C_18
REMARK    9  A    between atoms: C_18  and  C_19
REMARK   10  A    between atoms: C_19  and  C_20
REMARK   11  A    between atoms: C_20  and  C_21
REMARK   12  A    between atoms: S_22  and  C_23
REMARK   13  A    between atoms: C_23  and  C_24
REMARK   14  A    between atoms: C_27  and  C_34
REMARK   15  A    between atoms: C_29  and  C_33
REMARK                            x       y       z     vdW  Elec       q    Type
REMARK                         _______ _______ _______ _____ _____    ______ ____
ROOT
ATOM      1  C   UNL     1       2.829   4.454  -0.002  0.00  0.00    +0.107 A 
ATOM      2  C   UNL     1       3.321   3.157  -0.013  0.00  0.00    +0.030 A 
ATOM      3  C   UNL     1       2.456   2.082  -0.010  0.00  0.00    +0.030 A 
ATOM      4  C   UNL     1       1.086   2.298   0.004  0.00  0.00    +0.070 A 
ATOM      5  C   UNL     1       0.583   3.609   0.015  0.00  0.00    +0.092 A 
ATOM      6  C   UNL     1       1.472   4.687   0.012  0.00  0.00    +0.058 A 
ATOM      7  N   UNL     1      -0.773   3.518   0.027  0.00  0.00    -0.222 NA
ATOM      8  C   UNL     1      -1.129   2.256   0.019  0.00  0.00    +0.170 A 
ATOM      9  N   UNL     1      -0.018   1.461   0.010  0.00  0.00    -0.319 N 
ENDROOT
BRANCH   1  10
ATOM     10  S   UNL     1       3.950   5.814  -0.005  0.00  0.00    +0.058 S 
ATOM     11  O   UNL     1       3.252   6.916   0.558  0.00  0.00    -0.153 OA
ATOM     12  O   UNL     1       5.174   5.332   0.531  0.00  0.00    -0.153 OA
BRANCH  10  13
ATOM     13  N   UNL     1       4.246   6.200  -1.588  0.00  0.00    -0.190 NA
ATOM     14  H   UNL     1       5.137   6.090  -1.956  0.00  0.00    +0.148 HD
BRANCH  13  15
ATOM     15  C   UNL     1       3.163   6.707  -2.434  0.00  0.00    +0.106 C 
BRANCH  15  16
ATOM     16  C   UNL     1       3.753   7.329  -3.701  0.00  0.00    +0.017 C 
BRANCH  16  18
ATOM     17  C   UNL     1       3.212   8.482  -5.851  0.00  0.00    +0.004 C 
ATOM     18  C   UNL     1       2.622   7.859  -4.584  0.00  0.00    -0.002 C 
ENDBRANCH  16  18
ENDBRANCH  15  16
ENDBRANCH  13  15
ENDBRANCH  10  13
ENDBRANCH   1  10
BRANCH   9  19
ATOM     19  C   UNL     1       0.002  -0.004   0.002  0.00  0.00    +0.124 C 
BRANCH  19  20
ATOM     20  C   UNL     1       0.023  -0.522   1.442  0.00  0.00    +0.021 C 
BRANCH  20  21
ATOM     21  C   UNL     1       0.043  -2.052   1.433  0.00  0.00    -0.002 C 
ATOM     22  C   UNL     1       0.064  -2.569   2.873  0.00  0.00    +0.004 C 
ENDBRANCH  20  21
ENDBRANCH  19  20
ENDBRANCH   9  19
BRANCH   8  23
ATOM     23  S   UNL     1      -2.792   1.673   0.023  0.00  0.00    -0.081 S 
BRANCH  23  24
ATOM     24  C   UNL     1      -3.678   3.252   0.035  0.00  0.00    +0.134 C 
BRANCH  24  25
ATOM     25  C   UNL     1      -5.162   2.994   0.040  0.00  0.00    +0.072 A 
ATOM     26  C   UNL     1      -5.944   2.870  -1.054  0.00  0.00    +0.118 A 
ATOM     27  N   UNL     1      -7.219   2.641  -0.614  0.00  0.00    -0.288 N 
ATOM     28  C   UNL     1      -8.401   2.440  -1.265  0.00  0.00    +0.025 A 
ATOM     29  C   UNL     1      -9.528   2.240  -0.538  0.00  0.00    +0.044 A 
ATOM     30  C   UNL     1      -9.452   2.245   0.862  0.00  0.00    +0.044 A 
ATOM     31  N   UNL     1      -8.302   2.441   1.463  0.00  0.00    -0.217 NA
ATOM     32  C   UNL     1      -7.180   2.640   0.757  0.00  0.00    +0.235 A 
ATOM     33  N   UNL     1      -5.926   2.855   1.127  0.00  0.00    -0.215 NA
ATOM     34  C   UNL     1     -10.698   2.024   1.681  0.00  0.00    +0.066 C 
ATOM     35  C   UNL     1      -8.454   2.440  -2.771  0.00  0.00    +0.064 C 
ENDBRANCH  24  25
ENDBRANCH  23  24
ENDBRANCH   8  23
TORSDOF 11
