REMARK  Name = ZINC48413484
REMARK  2 active torsions:
REMARK  status: ('A' for Active; 'I' for Inactive)
REMARK    1  A    between atoms: C_6  and  C_7
REMARK    2  A    between atoms: C_7  and  C_8
REMARK                            x       y       z     vdW  Elec       q    Type
REMARK                         _______ _______ _______ _____ _____    ______ ____
ROOT
ATOM      1  C   UNL     1      -1.573  -0.964  -1.484  0.00  0.00    +0.137 A 
ATOM      2  N   UNL     1      -2.367  -0.092  -2.080  0.00  0.00    -0.217 NA
ATOM      3  C   UNL     1      -2.936  -0.340  -3.248  0.00  0.00    +0.128 A 
ATOM      4  C   UNL     1      -2.687  -1.586  -3.888  0.00  0.00    +0.051 A 
ATOM      5  C   UNL     1      -3.201  -2.078  -5.168  0.00  0.00    -0.025 A 
ATOM      6  C   UNL     1      -2.807  -3.309  -5.553  0.00  0.00    -0.004 A 
ATOM      7  S   UNL     1      -1.744  -3.881  -4.255  0.00  0.00    -0.073 S 
ATOM      8  C   UNL     1      -1.831  -2.463  -3.193  0.00  0.00    +0.114 A 
ATOM      9  N   UNL     1      -1.301  -2.133  -2.031  0.00  0.00    -0.224 NA
ATOM     10  C   UNL     1      -3.189  -4.033  -6.807  0.00  0.00    +0.043 C 
ATOM     11  C   UNL     1      -4.399  -3.321  -7.429  0.00  0.00    +0.005 C 
ATOM     12  C   UNL     1      -4.117  -1.816  -7.463  0.00  0.00    +0.005 C 
ATOM     13  C   UNL     1      -4.140  -1.251  -6.042  0.00  0.00    +0.037 C 
ATOM     14  N   UNL     1      -3.761   0.599  -3.840  0.00  0.00    -0.343 N 
ATOM     15  H   UNL     1      -3.750   1.518  -3.530  0.00  0.00    +0.144 HD
ATOM     16  H   UNL     1      -4.350   0.339  -4.565  0.00  0.00    +0.144 HD
ENDROOT
BRANCH   1  17
ATOM     17  C   UNL     1      -0.961  -0.613  -0.152  0.00  0.00    +0.111 C 
BRANCH  17  23
ATOM     18  C   UNL     1       0.431   1.454  -0.501  0.00  0.00    +0.024 A 
ATOM     19  C   UNL     1       1.661   2.051  -0.702  0.00  0.00    +0.111 A 
ATOM     20  N   UNL     1       2.759   1.324  -0.774  0.00  0.00    -0.263 NA
ATOM     21  C   UNL     1       2.731   0.011  -0.657  0.00  0.00    +0.111 A 
ATOM     22  C   UNL     1       1.537  -0.655  -0.454  0.00  0.00    +0.024 A 
ATOM     23  C   UNL     1       0.361   0.075  -0.373  0.00  0.00    -0.037 A 
ENDBRANCH  17  23
ENDBRANCH   1  17
TORSDOF 2
