REMARK  Name = ZINC40175117
REMARK  9 active torsions:
REMARK  status: ('A' for Active; 'I' for Inactive)
REMARK    1  A    between atoms: C_1  and  C_2
REMARK    2  A    between atoms: C_2  and  C_3
REMARK    3  A    between atoms: C_3  and  C_5
REMARK    4  A    between atoms: C_3  and  N_20
REMARK    5  A    between atoms: C_10  and  C_13
REMARK    6  A    between atoms: C_16  and  C_19
REMARK    7  A    between atoms: C_24  and  C_37
REMARK    8  A    between atoms: N_27  and  C_31
REMARK    9  A    between atoms: C_29  and  C_30
REMARK                            x       y       z     vdW  Elec       q    Type
REMARK                         _______ _______ _______ _____ _____    ______ ____
ROOT
ATOM      1  C   UNL     1       0.535   0.534  -0.907  0.00  0.00    +0.178 C 
ENDROOT
BRANCH   1   2
ATOM      2  N   UNL     1      -0.263   0.851  -2.094  0.00  0.00    -0.281 N 
ATOM      3  C   UNL     1      -1.604   0.910  -1.999  0.00  0.00    +0.254 A 
ATOM      4  O   UNL     1      -2.142   0.701  -0.924  0.00  0.00    -0.268 OA
ATOM      5  C   UNL     1      -2.394   1.213  -3.124  0.00  0.00    +0.074 A 
ATOM      6  C   UNL     1      -1.803   1.448  -4.325  0.00  0.00    -0.033 A 
ATOM      7  C   UNL     1      -0.394   1.385  -4.423  0.00  0.00    +0.043 A 
ATOM      8  C   UNL     1       0.362   1.088  -3.288  0.00  0.00    +0.148 A 
ATOM      9  N   UNL     1       1.667   1.101  -3.669  0.00  0.00    -0.215 N 
ATOM     10  N   UNL     1       1.724   1.410  -5.033  0.00  0.00    -0.169 NA
ATOM     11  C   UNL     1       0.514   1.571  -5.492  0.00  0.00    +0.070 A 
ATOM     12  C   UNL     1       0.148   1.915  -6.912  0.00  0.00    +0.068 C 
ATOM     13  C   UNL     1      -2.639   1.772  -5.536  0.00  0.00    +0.045 C 
BRANCH   9  14
ATOM     14  C   UNL     1       2.767   0.849  -2.838  0.00  0.00    +0.068 A 
ATOM     15  C   UNL     1       2.856  -0.352  -2.148  0.00  0.00    +0.028 A 
ATOM     16  C   UNL     1       3.942  -0.598  -1.330  0.00  0.00    +0.002 A 
ATOM     17  C   UNL     1       4.939   0.350  -1.198  0.00  0.00    +0.000 A 
ATOM     18  C   UNL     1       4.853   1.548  -1.885  0.00  0.00    +0.002 A 
ATOM     19  C   UNL     1       3.772   1.798  -2.708  0.00  0.00    +0.028 A 
ENDBRANCH   9  14
ENDBRANCH   1   2
BRANCH   1  20
ATOM     20  C   UNL     1       0.258  -0.884  -0.478  0.00  0.00    +0.242 C 
ATOM     21  O   UNL     1      -0.529  -1.563  -1.103  0.00  0.00    -0.273 OA
ATOM     22  N   UNL     1       0.884  -1.398   0.599  0.00  0.00    -0.263 N 
ATOM     23  C   UNL     1       0.628  -2.705   0.994  0.00  0.00    +0.165 A 
ATOM     24  N   UNL     1       1.128  -3.384   2.010  0.00  0.00    -0.225 NA
ATOM     25  C   UNL     1       0.768  -4.637   2.243  0.00  0.00    +0.080 A 
ATOM     26  C   UNL     1      -0.138  -5.240   1.415  0.00  0.00    +0.076 A 
ATOM     27  S   UNL     1      -0.470  -3.912   0.265  0.00  0.00    -0.060 S 
ATOM     28  H   UNL     1       1.514  -0.855   1.099  0.00  0.00    +0.157 HD
BRANCH  25  29
ATOM     29  C   UNL     1       1.343  -5.379   3.391  0.00  0.00    +0.001 A 
ATOM     30  C   UNL     1       0.967  -6.700   3.629  0.00  0.00    +0.010 A 
ATOM     31  C   UNL     1       1.505  -7.386   4.699  0.00  0.00    +0.004 A 
ATOM     32  C   UNL     1       2.417  -6.765   5.534  0.00  0.00    -0.050 A 
ATOM     33  C   UNL     1       2.793  -5.454   5.303  0.00  0.00    +0.004 A 
ATOM     34  C   UNL     1       2.267  -4.761   4.232  0.00  0.00    +0.010 A 
ATOM     35  C   UNL     1       3.000  -7.519   6.701  0.00  0.00    +0.044 C 
ENDBRANCH  25  29
ENDBRANCH   1  20
BRANCH   1  37
ATOM     36  C   UNL     1       0.507   2.925  -0.182  0.00  0.00    +0.006 C 
ATOM     37  C   UNL     1       0.164   1.491   0.228  0.00  0.00    +0.031 C 
ENDBRANCH   1  37
TORSDOF 5
