REMARK  Name = ZINC40782107
REMARK  8 active torsions:
REMARK  status: ('A' for Active; 'I' for Inactive)
REMARK    1  A    between atoms: C_1  and  C_2
REMARK    2  A    between atoms: C_5  and  N_8
REMARK    3  A    between atoms: C_10  and  N_24
REMARK    4  A    between atoms: C_11  and  N_15
REMARK    5  A    between atoms: N_15  and  C_16
REMARK    6  A    between atoms: C_16  and  C_17
REMARK    7  A    between atoms: C_17  and  C_18
REMARK    8  A    between atoms: C_18  and  N_19
REMARK                            x       y       z     vdW  Elec       q    Type
REMARK                         _______ _______ _______ _____ _____    ______ ____
ROOT
ATOM      1  N   UNL     1       0.057  -4.168  -0.021  0.00  0.00    -0.298 N 
ATOM      2  C   UNL     1       0.177  -4.869   1.174  0.00  0.00    +0.149 A 
ATOM      3  C   UNL     1       0.307  -6.258   1.171  0.00  0.00    +0.105 A 
ATOM      4  C   UNL     1       0.425  -6.912   2.400  0.00  0.00    +0.145 A 
ATOM      5  N   UNL     1       0.409  -6.191   3.518  0.00  0.00    -0.219 NA
ATOM      6  C   UNL     1       0.285  -4.879   3.476  0.00  0.00    +0.225 A 
ATOM      7  N   UNL     1       0.176  -4.223   2.339  0.00  0.00    -0.219 NA
ATOM      8  H   UNL     1      -0.018  -4.649  -0.860  0.00  0.00    +0.154 HD
ENDROOT
BRANCH   1  13
ATOM      9  C   UNL     1       0.012   1.503   0.006  0.00  0.00    +0.044 C 
ATOM     10  C   UNL     1       0.024  -0.004  -0.001  0.00  0.00    -0.050 A 
ATOM     11  C   UNL     1       0.771  -0.692   0.938  0.00  0.00    +0.005 A 
ATOM     12  C   UNL     1       0.784  -2.073   0.934  0.00  0.00    +0.023 A 
ATOM     13  C   UNL     1       0.045  -2.771  -0.014  0.00  0.00    +0.032 A 
ATOM     14  C   UNL     1      -0.704  -2.076  -0.954  0.00  0.00    +0.023 A 
ATOM     15  C   UNL     1      -0.718  -0.695  -0.942  0.00  0.00    +0.005 A 
ENDBRANCH   1  13
BRANCH   3  16
ATOM     16  N   UNL     1       0.318  -6.980  -0.033  0.00  0.00    -0.353 N 
ATOM     17  H   UNL     1       0.235  -6.512  -0.879  0.00  0.00    +0.143 HD
ATOM     18  H   UNL     1       0.409  -7.945  -0.020  0.00  0.00    +0.143 HD
ENDBRANCH   3  16
BRANCH   4  19
ATOM     19  N   UNL     1       0.555  -8.295   2.453  0.00  0.00    -0.327 N 
ATOM     20  H   UNL     1       0.566  -8.813   1.634  0.00  0.00    +0.148 HD
BRANCH  19  21
ATOM     21  C   UNL     1       0.678  -8.969   3.748  0.00  0.00    +0.105 C 
BRANCH  21  22
ATOM     22  C   UNL     1       0.808 -10.477   3.527  0.00  0.00    +0.040 C 
BRANCH  22  23
ATOM     23  C   UNL     1       0.936 -11.181   4.880  0.00  0.00    +0.124 C 
BRANCH  23  24
ATOM     24  N   UNL     1       1.061 -12.626   4.668  0.00  0.00    -0.338 N 
ATOM     25  C   UNL     1       0.034 -13.527   4.596  0.00  0.00    +0.104 A 
ATOM     26  C   UNL     1       0.590 -14.737   4.394  0.00  0.00    +0.101 A 
ATOM     27  N   UNL     1       1.921 -14.578   4.344  0.00  0.00    -0.352 N 
ATOM     28  C   UNL     1       2.210 -13.315   4.503  0.00  0.00    +0.173 A 
ATOM     29  H   UNL     1       2.567 -15.289   4.208  0.00  0.00    +0.166 HD
ENDBRANCH  23  24
ENDBRANCH  22  23
ENDBRANCH  21  22
ENDBRANCH  19  21
ENDBRANCH   4  19
TORSDOF 7
