REMARK  Name = ZINC09886065
REMARK  7 active torsions:
REMARK  status: ('A' for Active; 'I' for Inactive)
REMARK    1  A    between atoms: C_1  and  C_2
REMARK    2  A    between atoms: C_10  and  O_29
REMARK    3  A    between atoms: N_14  and  O_15
REMARK    4  A    between atoms: O_15  and  C_16
REMARK    5  A    between atoms: C_16  and  C_17
REMARK    6  A    between atoms: C_26  and  O_27
REMARK    7  A    between atoms: C_26  and  O_28
REMARK                            x       y       z     vdW  Elec       q    Type
REMARK                         _______ _______ _______ _____ _____    ______ ____
ROOT
ATOM      1  C   UNL     1      -2.648   0.822  -1.342  0.00  0.00    +0.017 C 
ATOM      2  C   UNL     1      -2.486   0.440   0.134  0.00  0.00    +0.025 C 
ATOM      3  C   UNL     1      -2.623   1.653   1.015  0.00  0.00    +0.013 C 
ATOM      4  C   UNL     1      -1.254   2.299   1.292  0.00  0.00    +0.009 C 
ATOM      5  C   UNL     1      -0.285   2.002   0.163  0.00  0.00    +0.023 C 
ATOM      6  C   UNL     1       0.999   2.776   0.237  0.00  0.00    -0.035 A 
ATOM      7  C   UNL     1       1.057   3.994   0.881  0.00  0.00    +0.008 A 
ATOM      8  C   UNL     1       2.245   4.698   0.940  0.00  0.00    +0.046 A 
ATOM      9  C   UNL     1       3.391   4.184   0.349  0.00  0.00    +0.117 A 
ATOM     10  C   UNL     1       3.345   2.966  -0.307  0.00  0.00    +0.055 A 
ATOM     11  C   UNL     1       2.146   2.254  -0.372  0.00  0.00    +0.006 A 
ATOM     12  C   UNL     1       2.105   0.957  -1.086  0.00  0.00    +0.088 C 
ATOM     13  N   UNL     1       3.172   0.466  -1.630  0.00  0.00    -0.088 NA
ATOM     14  C   UNL     1       0.786   0.206  -1.170  0.00  0.00    +0.063 C 
ATOM     15  C   UNL     1       0.044   0.507   0.130  0.00  0.00    +0.006 C 
ATOM     16  C   UNL     1      -1.170  -0.319   0.397  0.00  0.00    +0.004 C 
ATOM     17  C   UNL     1      -1.362  -1.589  -0.444  0.00  0.00    +0.010 C 
ATOM     18  C   UNL     1      -2.861  -1.934  -0.227  0.00  0.00    +0.065 C 
ATOM     19  C   UNL     1      -3.513  -0.680   0.407  0.00  0.00    +0.170 C 
ENDROOT
BRANCH  19  20
ATOM     20  O   UNL     1      -4.747  -0.371  -0.235  0.00  0.00    -0.364 OA
ATOM     21  H   UNL     1      -5.436  -1.036  -0.102  0.00  0.00    +0.213 HD
ENDBRANCH  19  20
BRANCH  19  22
ATOM     22  O   UNL     1      -3.690  -0.859   1.808  0.00  0.00    -0.364 OA
ATOM     23  H   UNL     1      -4.325  -1.551   2.038  0.00  0.00    +0.213 HD
ENDBRANCH  19  22
BRANCH   9  24
ATOM     24  O   UNL     1       4.558   4.878   0.416  0.00  0.00    -0.507 OA
ATOM     25  H   UNL     1       4.693   5.492  -0.319  0.00  0.00    +0.292 HD
ENDBRANCH   9  24
BRANCH  13  26
ATOM     26  O   UNL     1       3.114  -0.777  -2.307  0.00  0.00    -0.382 OA
BRANCH  26  27
ATOM     27  C   UNL     1       4.363  -1.198  -2.858  0.00  0.00    +0.387 C 
BRANCH  27  28
ATOM     28  C   UNL     1       4.185  -2.524  -3.551  0.00  0.00    +0.395 C 
ATOM     29  O   UNL     1       3.100  -3.054  -3.571  0.00  0.00    -0.242 OA
ATOM     30  O   UNL     1       5.233  -3.116  -4.146  0.00  0.00    -0.242 OA
ENDBRANCH  27  28
ENDBRANCH  26  27
ENDBRANCH  13  26
TORSDOF 6
