REMARK  Name = ZINC00648631
REMARK  6 active torsions:
REMARK  status: ('A' for Active; 'I' for Inactive)
REMARK    1  A    between atoms: C_5  and  O_7
REMARK    2  A    between atoms: O_7  and  C_8
REMARK    3  A    between atoms: C_8  and  C_9
REMARK    4  A    between atoms: C_12  and  C_14
REMARK    5  A    between atoms: C_16  and  C_27
REMARK    6  A    between atoms: C_17  and  N_26
REMARK                            x       y       z     vdW  Elec       q    Type
REMARK                         _______ _______ _______ _____ _____    ______ ____
ROOT
ATOM      1  C   UNL     1       0.465   8.807   1.681  0.00  0.00    +0.137 C 
ATOM      2  C   UNL     1       1.691   8.617   2.530  0.00  0.00    +0.101 C 
ATOM      3  C   UNL     1       1.577   8.198   3.813  0.00  0.00    +0.198 C 
ATOM      4  O   UNL     1       0.380   7.936   4.360  0.00  0.00    -0.445 OA
ATOM      5  C   UNL     1      -0.733   8.475   3.828  0.00  0.00    +0.115 C 
ATOM      6  C   UNL     1      -0.759   8.911   2.558  0.00  0.00    +0.049 C 
ATOM      7  C   UNL     1      -1.924   9.480   2.007  0.00  0.00    +0.163 C 
ATOM      8  O   UNL     1      -1.917   9.849   0.850  0.00  0.00    -0.292 OA
ATOM      9  C   UNL     1      -3.176   9.638   2.825  0.00  0.00    +0.080 C 
ATOM     10  C   UNL     1      -2.788   9.784   4.301  0.00  0.00    +0.016 C 
ATOM     11  C   UNL     1      -1.962   8.569   4.702  0.00  0.00    +0.075 C 
ENDROOT
BRANCH   1  15
ATOM     12  C   UNL     1       0.059   5.575   0.030  0.00  0.00    +0.142 A 
ATOM     13  C   UNL     1       0.148   6.361  -1.058  0.00  0.00    +0.048 A 
ATOM     14  C   UNL     1       0.307   7.687  -0.594  0.00  0.00    +0.046 A 
ATOM     15  C   UNL     1       0.314   7.631   0.750  0.00  0.00    +0.118 A 
ATOM     16  O   UNL     1       0.163   6.349   1.123  0.00  0.00    -0.460 OA
BRANCH  12  17
ATOM     17  C   UNL     1      -0.121   4.079   0.024  0.00  0.00    +0.303 C 
BRANCH  17  18
ATOM     18  O   UNL     1       1.160   3.445   0.009  0.00  0.00    -0.483 OA
BRANCH  18  23
ATOM     19  C   UNL     1       0.002  -0.004   0.002  0.00  0.00    +0.004 A 
ATOM     20  C   UNL     1       1.208  -0.681  -0.013  0.00  0.00    +0.001 A 
ATOM     21  C   UNL     1       2.398   0.023  -0.021  0.00  0.00    +0.019 A 
ATOM     22  C   UNL     1       2.385   1.405  -0.013  0.00  0.00    +0.059 A 
ATOM     23  C   UNL     1       1.176   2.086   0.002  0.00  0.00    +0.135 A 
ATOM     24  C   UNL     1      -0.017   1.377   0.010  0.00  0.00    +0.047 A 
ATOM     25 BR   UNL     1       4.013   2.367  -0.023  0.00  0.00    -0.047 Br
ENDBRANCH  18  23
ENDBRANCH  17  18
ENDBRANCH  12  17
ENDBRANCH   1  15
BRANCH   3  26
ATOM     26  N   UNL     1       2.711   8.038   4.570  0.00  0.00    -0.328 N 
ATOM     27  H   UNL     1       3.581   8.224   4.186  0.00  0.00    +0.145 HD
ATOM     28  H   UNL     1       2.641   7.738   5.490  0.00  0.00    +0.145 HD
ENDBRANCH   3  26
BRANCH   2  29
ATOM     29  C   UNL     1       2.986   8.881   1.979  0.00  0.00    +0.101 C 
ATOM     30  N   UNL     1       4.013   9.090   1.542  0.00  0.00    -0.191 NA
ENDBRANCH   2  29
TORSDOF 6
