REMARK  Name = ZINC22048300
REMARK  11 active torsions:
REMARK  status: ('A' for Active; 'I' for Inactive)
REMARK    1  A    between atoms: C_1  and  C_2
REMARK    2  A    between atoms: C_2  and  C_39
REMARK    3  A    between atoms: C_6  and  O_38
REMARK    4  A    between atoms: C_8  and  C_14
REMARK    5  A    between atoms: C_14  and  C_16
REMARK    6  A    between atoms: C_14  and  N_37
REMARK    7  A    between atoms: C_16  and  O_17
REMARK    8  A    between atoms: O_17  and  C_18
REMARK    9  A    between atoms: C_18  and  C_19
REMARK   10  A    between atoms: C_18  and  C_25
REMARK   11  A    between atoms: C_18  and  C_31
REMARK                            x       y       z     vdW  Elec       q    Type
REMARK                         _______ _______ _______ _____ _____    ______ ____
ROOT
ATOM      1  O   UNL     1       0.772   6.203   0.420  0.00  0.00    -0.361 OA
ENDROOT
BRANCH   1   2
ATOM      2  C   UNL     1       1.070   4.814   0.568  0.00  0.00    +0.148 C 
BRANCH   2   3
ATOM      3  C   UNL     1       1.908   4.603   1.830  0.00  0.00    -0.017 C 
BRANCH   3   9
ATOM      4  C   UNL     1       1.076  -0.930   5.143  0.00  0.00    +0.074 C 
ATOM      5  C   UNL     1       0.827   0.579   5.103  0.00  0.00    +0.168 C 
ATOM      6  O   UNL     1       2.079   1.283   5.086  0.00  0.00    -0.338 OA
ATOM      7  C   UNL     1       2.459   1.388   3.705  0.00  0.00    +0.208 C 
ATOM      8  C   UNL     1       2.858   2.851   3.399  0.00  0.00    +0.175 C 
ATOM      9  C   UNL     1       2.122   3.105   2.057  0.00  0.00    +0.140 C 
ATOM     10  O   UNL     1       0.858   2.431   2.252  0.00  0.00    -0.344 OA
ATOM     11  C   UNL     1       1.149   1.182   2.904  0.00  0.00    +0.285 C 
ATOM     12  O   UNL     1       0.138   0.932   3.895  0.00  0.00    -0.318 OA
ATOM     13  C   UNL     1       0.003   1.006   6.320  0.00  0.00    +0.074 C 
BRANCH   8  14
ATOM     14  O   UNL     1       2.384   3.735   4.417  0.00  0.00    -0.387 OA
ATOM     15  H   UNL     1       2.586   4.814   4.346  0.00  0.00    +0.210 HD
ENDBRANCH   8  14
ENDBRANCH   3   9
BRANCH   3  16
ATOM     16  N   UNL     1       3.210   5.264   1.670  0.00  0.00    +0.383 N 
ATOM     17  H   UNL     1       3.057   6.341   1.508  0.00  0.00    -0.089 HD
ATOM     18  H   UNL     1       3.736   4.834   0.805  0.00  0.00    -0.089 HD
ATOM     19  H   UNL     1       3.812   5.113   2.578  0.00  0.00    -0.089 HD
ENDBRANCH   3  16
ENDBRANCH   2   3
ENDBRANCH   1   2
BRANCH   1  20
ATOM     20  C   UNL     1      -0.011   6.511  -0.735  0.00  0.00    +0.144 C 
BRANCH  20  21
ATOM     21  C   UNL     1       0.732   6.081  -1.974  0.00  0.00    -0.007 A 
ATOM     22  C   UNL     1       0.390   4.902  -2.611  0.00  0.00    +0.007 A 
ATOM     23  C   UNL     1       1.068   4.511  -3.750  0.00  0.00    +0.000 A 
ATOM     24  C   UNL     1       2.094   5.292  -4.247  0.00  0.00    +0.000 A 
ATOM     25  C   UNL     1       2.439   6.468  -3.607  0.00  0.00    +0.000 A 
ATOM     26  C   UNL     1       1.758   6.862  -2.471  0.00  0.00    +0.007 A 
ENDBRANCH  20  21
BRANCH  20  27
ATOM     27  C   UNL     1      -1.326   5.779  -0.659  0.00  0.00    -0.007 A 
ATOM     28  C   UNL     1      -2.116   5.658  -1.787  0.00  0.00    +0.007 A 
ATOM     29  C   UNL     1      -3.320   4.983  -1.718  0.00  0.00    +0.000 A 
ATOM     30  C   UNL     1      -3.740   4.439  -0.519  0.00  0.00    +0.000 A 
ATOM     31  C   UNL     1      -2.953   4.565   0.610  0.00  0.00    +0.000 A 
ATOM     32  C   UNL     1      -1.746   5.236   0.540  0.00  0.00    +0.007 A 
ENDBRANCH  20  27
BRANCH  20  33
ATOM     33  C   UNL     1      -0.263   7.995  -0.791  0.00  0.00    -0.007 A 
ATOM     34  C   UNL     1      -0.414   8.626  -2.012  0.00  0.00    +0.007 A 
ATOM     35  C   UNL     1      -0.650   9.987  -2.062  0.00  0.00    +0.000 A 
ATOM     36  C   UNL     1      -0.726  10.719  -0.892  0.00  0.00    +0.000 A 
ATOM     37  C   UNL     1      -0.570  10.089   0.329  0.00  0.00    +0.000 A 
ATOM     38  C   UNL     1      -0.339   8.727   0.379  0.00  0.00    +0.007 A 
ENDBRANCH  20  33
ENDBRANCH   1  20
TORSDOF 9
