REMARK  Name = ZINC06159030
REMARK  8 active torsions:
REMARK  status: ('A' for Active; 'I' for Inactive)
REMARK    1  A    between atoms: C_1  and  C_2
REMARK    2  A    between atoms: C_2  and  C_4
REMARK    3  A    between atoms: C_8  and  O_30
REMARK    4  A    between atoms: C_9  and  C_29
REMARK    5  A    between atoms: C_18  and  O_28
REMARK    6  A    between atoms: C_19  and  C_26
REMARK    7  A    between atoms: C_22  and  O_25
REMARK    8  A    between atoms: C_26  and  O_27
REMARK                            x       y       z     vdW  Elec       q    Type
REMARK                         _______ _______ _______ _____ _____    ______ ____
ROOT
ATOM      1  C   UNL     1      -0.272   1.092   0.248  0.00  0.00    +0.064 C 
ATOM      2  C   UNL     1       0.098   2.314  -0.625  0.00  0.00    +0.014 C 
ATOM      3  C   UNL     1       1.382   1.937  -1.388  0.00  0.00    +0.036 C 
ATOM      4  C   UNL     1       1.715   0.475  -0.980  0.00  0.00    +0.075 C 
ATOM      5  C   UNL     1       1.067   0.349   0.407  0.00  0.00    +0.006 C 
ATOM      6  C   UNL     1       0.888  -1.084   0.851  0.00  0.00    +0.010 C 
ATOM      7  C   UNL     1       0.126  -1.888  -0.200  0.00  0.00    +0.005 C 
ATOM      8  C   UNL     1       0.921  -1.863  -1.514  0.00  0.00    +0.006 C 
ATOM      9  C   UNL     1       1.022  -0.428  -2.007  0.00  0.00    +0.025 C 
ATOM     10  C   UNL     1       1.801  -0.331  -3.320  0.00  0.00    +0.009 C 
ATOM     11  C   UNL     1       1.454  -1.486  -4.256  0.00  0.00    +0.036 C 
ATOM     12  C   UNL     1       0.079  -2.015  -3.867  0.00  0.00    +0.076 C 
ATOM     13  C   UNL     1       0.193  -2.741  -2.525  0.00  0.00    +0.026 C 
ATOM     14  C   UNL     1      -1.211  -3.117  -2.054  0.00  0.00    +0.015 C 
ATOM     15  C   UNL     1      -1.809  -4.091  -3.080  0.00  0.00    +0.032 C 
ATOM     16  C   UNL     1      -1.878  -3.429  -4.455  0.00  0.00    +0.117 C 
ATOM     17  C   UNL     1      -0.481  -2.984  -4.904  0.00  0.00    +0.066 C 
ATOM     18  C   UNL     1       1.931   1.081   1.437  0.00  0.00    +0.015 C 
ENDROOT
BRANCH   1  20
ATOM     19  C   UNL     1      -1.625   0.590   2.423  0.00  0.00    +0.086 C 
ATOM     20  C   UNL     1      -0.797   1.534   1.590  0.00  0.00    +0.134 C 
ATOM     21  O   UNL     1      -0.555   2.645   1.997  0.00  0.00    -0.297 OA
ENDBRANCH   1  20
BRANCH  16  22
ATOM     22  O   UNL     1      -2.406  -4.359  -5.402  0.00  0.00    -0.392 OA
ATOM     23  H   UNL     1      -3.295  -4.675  -5.191  0.00  0.00    +0.210 HD
ENDBRANCH  16  22
BRANCH  12  24
ATOM     24  O   UNL     1      -0.812  -0.907  -3.729  0.00  0.00    -0.388 OA
ATOM     25  H   UNL     1      -0.935  -0.397  -4.541  0.00  0.00    +0.210 HD
ENDBRANCH  12  24
BRANCH   4  26
ATOM     26  O   UNL     1       3.121   0.227  -0.928  0.00  0.00    -0.388 OA
ATOM     27  H   UNL     1       3.353  -0.662  -0.628  0.00  0.00    +0.210 HD
ENDBRANCH   4  26
BRANCH  13  28
ATOM     28  C   UNL     1       1.002  -4.021  -2.741  0.00  0.00    +0.165 C 
BRANCH  28  29
ATOM     29  O   UNL     1       1.094  -4.740  -1.510  0.00  0.00    -0.394 OA
ATOM     30  H   UNL     1       1.594  -5.565  -1.573  0.00  0.00    +0.209 HD
ENDBRANCH  28  29
ENDBRANCH  13  28
TORSDOF 6
