REMARK  Name = ZINC09329641
REMARK  8 active torsions:
REMARK  status: ('A' for Active; 'I' for Inactive)
REMARK    1  A    between atoms: C_1  and  C_2
REMARK    2  A    between atoms: C_2  and  O_3
REMARK    3  A    between atoms: O_3  and  C_4
REMARK    4  A    between atoms: C_7  and  C_13
REMARK    5  A    between atoms: C_9  and  N_10
REMARK    6  A    between atoms: N_15  and  C_16
REMARK    7  A    between atoms: C_16  and  N_18
REMARK    8  A    between atoms: C_21  and  C_24
REMARK                            x       y       z     vdW  Elec       q    Type
REMARK                         _______ _______ _______ _____ _____    ______ ____
ROOT
ATOM      1  C   UNL     1       0.694  -8.178  -1.081  0.00  0.00    +0.143 C 
ATOM      2  S   UNL     1       1.486  -8.814  -2.458  0.00  0.00    -0.018 S 
ENDROOT
BRANCH   1   3
ATOM      3  N   UNL     1       0.176  -9.011  -0.157  0.00  0.00    -0.276 N 
ATOM      4  C   UNL     1       0.284 -10.385  -0.322  0.00  0.00    +0.164 A 
ATOM      5  N   UNL     1      -0.155 -11.358   0.455  0.00  0.00    -0.225 NA
ATOM      6  C   UNL     1       0.038 -12.630   0.140  0.00  0.00    +0.080 A 
ATOM      7  C   UNL     1       0.706 -12.943  -1.011  0.00  0.00    +0.076 A 
ATOM      8  S   UNL     1       1.049 -11.308  -1.649  0.00  0.00    -0.060 S 
ATOM      9  H   UNL     1      -0.273  -8.651   0.624  0.00  0.00    +0.156 HD
BRANCH   6  10
ATOM     10  C   UNL     1      -0.465 -13.705   1.029  0.00  0.00    +0.002 A 
ATOM     11  C   UNL     1      -0.247 -15.050   0.687  0.00  0.00    +0.010 A 
ATOM     12  C   UNL     1      -0.697 -16.053   1.484  0.00  0.00    +0.009 A 
ATOM     13  C   UNL     1      -1.391 -15.752   2.670  0.00  0.00    -0.018 A 
ATOM     14  C   UNL     1      -1.865 -16.771   3.512  0.00  0.00    +0.008 A 
ATOM     15  C   UNL     1      -2.533 -16.448   4.653  0.00  0.00    +0.001 A 
ATOM     16  C   UNL     1      -2.755 -15.117   5.003  0.00  0.00    +0.001 A 
ATOM     17  C   UNL     1      -2.310 -14.102   4.212  0.00  0.00    +0.008 A 
ATOM     18  C   UNL     1      -1.616 -14.398   3.026  0.00  0.00    -0.017 A 
ATOM     19  C   UNL     1      -1.139 -13.376   2.191  0.00  0.00    +0.018 A 
ENDBRANCH   6  10
ENDBRANCH   1   3
BRANCH   1  22
ATOM     20  C   UNL     1       1.107  -6.011  -1.843  0.00  0.00    +0.250 C 
ATOM     21  O   UNL     1       1.670  -6.462  -2.822  0.00  0.00    -0.270 OA
ATOM     22  N   UNL     1       0.589  -6.844  -0.920  0.00  0.00    -0.264 N 
ATOM     23  H   UNL     1       0.140  -6.483  -0.139  0.00  0.00    +0.157 HD
BRANCH  20  27
ATOM     24  C   UNL     1       0.777  -1.808  -1.336  0.00  0.00    +0.151 A 
ATOM     25  C   UNL     1       0.240  -2.666  -0.382  0.00  0.00    +0.049 A 
ATOM     26  C   UNL     1       0.345  -4.029  -0.543  0.00  0.00    +0.017 A 
ATOM     27  C   UNL     1       0.992  -4.551  -1.667  0.00  0.00    +0.039 A 
ATOM     28  C   UNL     1       1.529  -3.685  -2.624  0.00  0.00    +0.049 A 
ATOM     29  C   UNL     1       1.416  -2.322  -2.458  0.00  0.00    +0.168 A 
BRANCH  29  30
ATOM     30  N   UNL     1       1.980  -1.405  -3.473  0.00  0.00    +0.060 N 
ATOM     31  O   UNL     1       2.535  -1.851  -4.449  0.00  0.00    -0.126 OA
ATOM     32  O   UNL     1       1.884  -0.208  -3.326  0.00  0.00    -0.126 OA
ENDBRANCH  29  30
BRANCH  24  33
ATOM     33  O   UNL     1       0.671  -0.465  -1.174  0.00  0.00    -0.490 OA
BRANCH  33  35
ATOM     34  C   UNL     1      -0.019   1.526   0.010  0.00  0.00    +0.048 C 
ATOM     35  C   UNL     1       0.002  -0.004   0.002  0.00  0.00    +0.226 C 
ENDBRANCH  33  35
ENDBRANCH  24  33
ENDBRANCH  20  27
ENDBRANCH   1  22
TORSDOF 7
