REMARK  Name = ZINC01132850
REMARK  8 active torsions:
REMARK  status: ('A' for Active; 'I' for Inactive)
REMARK    1  A    between atoms: C_1  and  C_2
REMARK    2  A    between atoms: C_2  and  C_3
REMARK    3  A    between atoms: C_2  and  C_4
REMARK    4  A    between atoms: C_2  and  C_5
REMARK    5  A    between atoms: C_8  and  N_11
REMARK    6  A    between atoms: C_12  and  C_14
REMARK    7  A    between atoms: C_14  and  S_15
REMARK    8  A    between atoms: S_15  and  C_16
REMARK                            x       y       z     vdW  Elec       q    Type
REMARK                         _______ _______ _______ _____ _____    ______ ____
ROOT
ATOM      1  C   UNL     1       3.276   7.607   0.002  0.00  0.00    +0.173 C 
ENDROOT
BRANCH   1   3
ATOM      2  N   UNL     1       5.456   8.775  -0.007  0.00  0.00    -0.285 N 
ATOM      3  C   UNL     1       4.783   7.607  -0.004  0.00  0.00    +0.227 C 
ATOM      4  O   UNL     1       5.390   6.557  -0.007  0.00  0.00    -0.275 OA
ATOM      5  H   UNL     1       4.973   9.613  -0.073  0.00  0.00    +0.155 HD
BRANCH   2   9
ATOM      6  C   UNL     1       9.614   8.782   0.266  0.00  0.00    -0.042 A 
ATOM      7  C   UNL     1       8.969   7.773  -0.426  0.00  0.00    +0.006 A 
ATOM      8  C   UNL     1       7.591   7.768  -0.519  0.00  0.00    +0.023 A 
ATOM      9  C   UNL     1       6.853   8.777   0.085  0.00  0.00    +0.033 A 
ATOM     10  C   UNL     1       7.503   9.792   0.774  0.00  0.00    +0.023 A 
ATOM     11  C   UNL     1       8.881   9.788   0.869  0.00  0.00    +0.006 A 
BRANCH   6  13
ATOM     12  C   UNL     1      11.721   8.855  -1.039  0.00  0.00    +0.015 C 
ATOM     13  C   UNL     1      11.117   8.784   0.365  0.00  0.00    -0.013 C 
ATOM     14  C   UNL     1      11.573   9.998   1.178  0.00  0.00    +0.015 C 
ATOM     15  C   UNL     1      11.585   7.502   1.057  0.00  0.00    +0.015 C 
ENDBRANCH   6  13
ENDBRANCH   2   9
ENDBRANCH   1   3
BRANCH   1  16
ATOM     16  S   UNL     1       2.673   5.900   0.004  0.00  0.00    -0.076 S 
BRANCH  16  17
ATOM     17  C   UNL     1       0.935   6.189   0.012  0.00  0.00    +0.197 A 
ATOM     18  N   UNL     1       0.339   7.362   0.014  0.00  0.00    -0.122 NA
ATOM     19  N   UNL     1      -0.938   7.212   0.019  0.00  0.00    -0.129 NA
ATOM     20  C   UNL     1      -1.237   5.926   0.020  0.00  0.00    +0.162 A 
ATOM     21  N   UNL     1      -0.044   5.239   0.016  0.00  0.00    -0.270 N 
ATOM     22  C   UNL     1      -0.021   3.855   0.015  0.00  0.00    +0.058 A 
ATOM     23  C   UNL     1       1.182   3.161   0.010  0.00  0.00    +0.027 A 
ATOM     24  C   UNL     1       1.181   1.782   0.009  0.00  0.00    +0.002 A 
ATOM     25  C   UNL     1      -0.013   1.076   0.014  0.00  0.00    +0.001 A 
ATOM     26  C   UNL     1      -1.217   1.745   0.013  0.00  0.00    +0.010 A 
ATOM     27  C   UNL     1      -1.233   3.143   0.020  0.00  0.00    -0.001 A 
ATOM     28  C   UNL     1      -2.499   3.882   0.027  0.00  0.00    +0.013 A 
ATOM     29  C   UNL     1      -2.472   5.234   0.026  0.00  0.00    +0.049 A 
ENDBRANCH  16  17
ENDBRANCH   1  16
TORSDOF 5
