REMARK  Name = ZINC67239392
REMARK  5 active torsions:
REMARK  status: ('A' for Active; 'I' for Inactive)
REMARK    1  A    between atoms: C_3  and  N_12
REMARK    2  A    between atoms: C_6  and  C_7
REMARK    3  A    between atoms: C_7  and  N_8
REMARK    4  A    between atoms: C_13  and  C_15
REMARK    5  A    between atoms: C_21  and  C_23
REMARK                            x       y       z     vdW  Elec       q    Type
REMARK                         _______ _______ _______ _____ _____    ______ ____
ROOT
ATOM      1  C   UNL     1       0.062   1.384   0.532  0.00  0.00    +0.007 A 
ATOM      2  C   UNL     1       1.262   2.066   0.565  0.00  0.00    +0.023 A 
ATOM      3  C   UNL     1       2.381   1.529  -0.058  0.00  0.00    +0.033 A 
ATOM      4  C   UNL     1       2.289   0.308  -0.713  0.00  0.00    +0.023 A 
ATOM      5  C   UNL     1       1.086  -0.369  -0.742  0.00  0.00    +0.007 A 
ATOM      6  C   UNL     1      -0.027   0.168  -0.121  0.00  0.00    -0.030 A 
ENDROOT
BRANCH   3   7
ATOM      7  N   UNL     1       3.599   2.218  -0.027  0.00  0.00    -0.285 N 
ATOM      8  C   UNL     1       4.758   1.534   0.052  0.00  0.00    +0.221 C 
ATOM      9  O   UNL     1       4.750   0.322   0.025  0.00  0.00    -0.275 OA
ATOM     10  H   UNL     1       3.609   3.187  -0.062  0.00  0.00    +0.155 HD
BRANCH   8  11
ATOM     11  C   UNL     1       6.064   2.277   0.174  0.00  0.00    +0.087 C 
ATOM     12  C   UNL     1       6.913   2.023  -1.072  0.00  0.00    +0.013 C 
ATOM     13  C   UNL     1       8.239   2.777  -0.948  0.00  0.00    +0.001 C 
ATOM     14  C   UNL     1       8.991   2.285   0.290  0.00  0.00    +0.001 C 
ATOM     15  C   UNL     1       8.141   2.538   1.537  0.00  0.00    +0.013 C 
ATOM     16  C   UNL     1       6.816   1.785   1.413  0.00  0.00    +0.105 C 
BRANCH  16  17
ATOM     17  C   UNL     1       5.966   2.038   2.660  0.00  0.00    +0.394 C 
ATOM     18  F   UNL     1       4.723   1.413   2.512  0.00  0.00    -0.170 F 
ATOM     19  F   UNL     1       6.619   1.518   3.783  0.00  0.00    -0.170 F 
ATOM     20  F   UNL     1       5.779   3.415   2.825  0.00  0.00    -0.170 F 
ENDBRANCH  16  17
ENDBRANCH   8  11
ENDBRANCH   3   7
BRANCH   6  21
ATOM     21  C   UNL     1      -1.338  -0.573  -0.155  0.00  0.00    +0.141 C 
BRANCH  21  22
ATOM     22  N   UNL     1      -2.102  -0.161  -1.336  0.00  0.00    -0.295 N 
ATOM     23  C   UNL     1      -3.315  -0.697  -1.574  0.00  0.00    +0.297 C 
ATOM     24  O   UNL     1      -3.776  -1.522  -0.810  0.00  0.00    -0.253 OA
ATOM     25  N   UNL     1      -4.017  -0.318  -2.660  0.00  0.00    -0.313 N 
ATOM     26  H   UNL     1      -1.734   0.497  -1.946  0.00  0.00    +0.151 HD
ATOM     27  H   UNL     1      -3.649   0.340  -3.271  0.00  0.00    +0.146 HD
ATOM     28  H   UNL     1      -4.891  -0.703  -2.832  0.00  0.00    +0.146 HD
ENDBRANCH  21  22
ENDBRANCH   6  21
TORSDOF 5
