REMARK  Name = ZINC34785529
REMARK  7 active torsions:
REMARK  status: ('A' for Active; 'I' for Inactive)
REMARK    1  A    between atoms: C_1  and  C_2
REMARK    2  A    between atoms: C_2  and  C_4
REMARK    3  A    between atoms: C_2  and  N_10
REMARK    4  A    between atoms: N_13  and  C_14
REMARK    5  A    between atoms: C_15  and  C_27
REMARK    6  A    between atoms: N_17  and  C_20
REMARK    7  A    between atoms: C_18  and  N_19
REMARK                            x       y       z     vdW  Elec       q    Type
REMARK                         _______ _______ _______ _____ _____    ______ ____
ROOT
ATOM      1  C   UNL     1       3.841  -1.430  -2.071  0.00  0.00    +0.103 A 
ATOM      2  C   UNL     1       4.768  -1.410  -3.134  0.00  0.00    +0.116 A 
ATOM      3  N   UNL     1       5.982  -1.392  -2.621  0.00  0.00    -0.163 NA
ATOM      4  N   UNL     1       5.872  -1.400  -1.224  0.00  0.00    -0.216 N 
ATOM      5  C   UNL     1       4.547  -1.418  -0.905  0.00  0.00    +0.142 A 
ENDROOT
BRANCH   4   6
ATOM      6  C   UNL     1       6.938  -1.387  -0.315  0.00  0.00    +0.068 A 
ATOM      7  C   UNL     1       6.815  -0.710   0.891  0.00  0.00    +0.029 A 
ATOM      8  C   UNL     1       7.867  -0.699   1.786  0.00  0.00    +0.022 A 
ATOM      9  C   UNL     1       9.043  -1.361   1.481  0.00  0.00    +0.041 A 
ATOM     10  C   UNL     1       9.168  -2.036   0.280  0.00  0.00    +0.022 A 
ATOM     11  C   UNL     1       8.117  -2.055  -0.616  0.00  0.00    +0.029 A 
ATOM     12 CL   UNL     1      10.363  -1.346   2.608  0.00  0.00    -0.084 Cl
ENDBRANCH   4   6
BRANCH   2  13
ATOM     13  C   UNL     1       4.434  -1.409  -4.579  0.00  0.00    +0.004 A 
ATOM     14  C   UNL     1       3.304  -2.085  -5.036  0.00  0.00    +0.011 A 
ATOM     15  C   UNL     1       2.998  -2.082  -6.381  0.00  0.00    +0.020 A 
ATOM     16  C   UNL     1       3.812  -1.409  -7.277  0.00  0.00    +0.041 A 
ATOM     17  C   UNL     1       4.936  -0.737  -6.828  0.00  0.00    +0.020 A 
ATOM     18  C   UNL     1       5.247  -0.729  -5.484  0.00  0.00    +0.011 A 
ATOM     19 CL   UNL     1       3.422  -1.410  -8.969  0.00  0.00    -0.084 Cl
ENDBRANCH   2  13
BRANCH   1  23
ATOM     20  N   UNL     1       0.497  -0.814  -3.325  0.00  0.00    -0.293 N 
ATOM     21  C   UNL     1       1.832  -0.731  -3.158  0.00  0.00    +0.304 C 
ATOM     22  O   UNL     1       2.491  -0.005  -3.877  0.00  0.00    -0.252 OA
ATOM     23  N   UNL     1       2.436  -1.452  -2.193  0.00  0.00    -0.265 N 
ATOM     24  H   UNL     1      -0.038  -1.336  -2.707  0.00  0.00    +0.151 HD
ATOM     25  H   UNL     1       1.905  -1.986  -1.582  0.00  0.00    +0.157 HD
BRANCH  20  27
ATOM     26  C   UNL     1      -0.239  -1.058  -5.645  0.00  0.00    +0.033 C 
ATOM     27  C   UNL     1      -0.146  -0.117  -4.442  0.00  0.00    +0.102 C 
BRANCH  27  28
ATOM     28  C   UNL     1      -1.530   0.316  -4.034  0.00  0.00    -0.027 A 
ATOM     29  C   UNL     1      -2.318  -0.522  -3.267  0.00  0.00    +0.005 A 
ATOM     30  C   UNL     1      -3.588  -0.125  -2.892  0.00  0.00    +0.000 A 
ATOM     31  C   UNL     1      -4.071   1.110  -3.285  0.00  0.00    +0.000 A 
ATOM     32  C   UNL     1      -3.282   1.948  -4.051  0.00  0.00    +0.000 A 
ATOM     33  C   UNL     1      -2.011   1.552  -4.422  0.00  0.00    +0.005 A 
ENDBRANCH  27  28
ENDBRANCH  20  27
ENDBRANCH   1  23
BRANCH   5  34
ATOM     34  N   UNL     1       4.010  -1.427   0.383  0.00  0.00    -0.342 N 
ATOM     35  H   UNL     1       3.052  -1.343   0.510  0.00  0.00    +0.144 HD
ATOM     36  H   UNL     1       4.595  -1.516   1.152  0.00  0.00    +0.144 HD
ENDBRANCH   5  34
TORSDOF 6
