REMARK  Name = ZINC16446169
REMARK  13 active torsions:
REMARK  status: ('A' for Active; 'I' for Inactive)
REMARK    1  A    between atoms: C_1  and  C_2
REMARK    2  A    between atoms: C_8  and  C_9
REMARK    3  A    between atoms: C_8  and  N_63
REMARK    4  A    between atoms: N_11  and  C_12
REMARK    5  A    between atoms: N_11  and  C_16
REMARK    6  A    between atoms: C_12  and  C_13
REMARK    7  A    between atoms: C_13  and  C_14
REMARK    8  A    between atoms: C_13  and  C_15
REMARK    9  A    between atoms: C_17  and  N_29
REMARK   10  A    between atoms: N_18  and  C_25
REMARK   11  A    between atoms: C_25  and  C_26
REMARK   12  A    between atoms: C_26  and  C_27
REMARK   13  A    between atoms: C_26  and  C_28
REMARK                            x       y       z     vdW  Elec       q    Type
REMARK                         _______ _______ _______ _____ _____    ______ ____
ROOT
ATOM      1  C   UNL     1       0.375   1.688   0.423  0.00  0.00    +0.203 C 
ATOM      2  O   UNL     1       0.304   0.500   0.188  0.00  0.00    -0.277 OA
ATOM      3  N   UNL     1       1.550   2.335   0.278  0.00  0.00    -0.266 N 
ENDROOT
BRANCH   3   4
ATOM      4  C   UNL     1       2.719   1.613  -0.043  0.00  0.00    +0.140 A 
ATOM      5  C   UNL     1       3.426   1.899  -1.193  0.00  0.00    +0.127 A 
ATOM      6  N   UNL     1       4.565   1.181  -1.477  0.00  0.00    -0.280 N 
ATOM      7  C   UNL     1       4.978   0.204  -0.649  0.00  0.00    +0.331 A 
ATOM      8  O   UNL     1       5.984  -0.422  -0.920  0.00  0.00    -0.246 OA
ATOM      9  N   UNL     1       4.298  -0.092   0.473  0.00  0.00    -0.273 N 
ATOM     10  H   UNL     1       4.626  -0.823   1.071  0.00  0.00    +0.173 HD
ATOM     11  C   UNL     1       3.179   0.585   0.800  0.00  0.00    +0.277 A 
ATOM     12  O   UNL     1       2.571   0.308   1.819  0.00  0.00    -0.266 OA
BRANCH   5  13
ATOM     13  N   UNL     1       3.002   2.893  -2.042  0.00  0.00    -0.343 N 
ATOM     14  H   UNL     1       2.144   3.322  -1.895  0.00  0.00    +0.144 HD
ATOM     15  H   UNL     1       3.559   3.165  -2.788  0.00  0.00    +0.144 HD
ENDBRANCH   5  13
BRANCH   6  16
ATOM     16  C   UNL     1       5.329   1.478  -2.691  0.00  0.00    +0.131 C 
BRANCH  16  17
ATOM     17  C   UNL     1       4.802   0.625  -3.847  0.00  0.00    +0.003 C 
ATOM     18  C   UNL     1       3.362   1.032  -4.165  0.00  0.00    +0.009 C 
ATOM     19  C   UNL     1       5.678   0.842  -5.082  0.00  0.00    +0.009 C 
ENDBRANCH  16  17
ENDBRANCH   6  16
ENDBRANCH   3   4
BRANCH   1  20
ATOM     20  C   UNL     1      -0.850   2.442   0.871  0.00  0.00    +0.019 C 
BRANCH  20  27
ATOM     21  C   UNL     1      -5.463   1.799   2.452  0.00  0.00    +0.005 C 
ATOM     22  C   UNL     1      -4.258   1.129   1.788  0.00  0.00    -0.031 C 
ATOM     23  C   UNL     1      -4.670   0.572   0.423  0.00  0.00    -0.001 C 
ATOM     24  C   UNL     1      -3.444  -0.043  -0.259  0.00  0.00    -0.018 C 
ATOM     25  C   UNL     1      -2.351   1.020  -0.389  0.00  0.00    -0.078 C 
ATOM     26  C   UNL     1      -3.142   2.159   1.599  0.00  0.00    -0.075 C 
ATOM     27  N   UNL     1      -1.983   1.498   0.961  0.00  0.00    +0.386 N 
ATOM     28  H   UNL     1      -1.702   0.693   1.534  0.00  0.00    -0.081 HD
ENDBRANCH  20  27
ENDBRANCH   1  20
BRANCH   3  29
ATOM     29  C   UNL     1       1.613   3.788   0.455  0.00  0.00    +0.117 C 
BRANCH  29  30
ATOM     30  C   UNL     1       1.817   4.114   1.936  0.00  0.00    +0.001 C 
ATOM     31  C   UNL     1       3.192   3.612   2.383  0.00  0.00    +0.009 C 
ATOM     32  C   UNL     1       1.736   5.628   2.141  0.00  0.00    +0.009 C 
ENDBRANCH  29  30
ENDBRANCH   3  29
TORSDOF 8
