REMARK  Name = ZINC35288664
REMARK  11 active torsions:
REMARK  status: ('A' for Active; 'I' for Inactive)
REMARK    1  A    between atoms: C_1  and  C_2
REMARK    2  A    between atoms: N_8  and  S_9
REMARK    3  A    between atoms: S_9  and  C_12
REMARK    4  A    between atoms: C_14  and  C_20
REMARK    5  A    between atoms: C_17  and  O_18
REMARK    6  A    between atoms: O_18  and  C_19
REMARK    7  A    between atoms: C_20  and  O_22
REMARK    8  A    between atoms: O_22  and  C_23
REMARK    9  A    between atoms: C_23  and  C_25
REMARK   10  A    between atoms: C_23  and  C_26
REMARK   11  A    between atoms: N_28  and  C_29
REMARK                            x       y       z     vdW  Elec       q    Type
REMARK                         _______ _______ _______ _____ _____    ______ ____
ROOT
ATOM      1  C   UNL     1       0.121   0.792   3.655  0.00  0.00    +0.148 A 
ATOM      2  C   UNL     1       0.457   0.462   4.949  0.00  0.00    +0.047 A 
ATOM      3  C   UNL     1      -0.469   0.650   5.979  0.00  0.00    +0.061 A 
ATOM      4  C   UNL     1      -1.733   1.173   5.691  0.00  0.00    +0.018 A 
ATOM      5  C   UNL     1      -2.061   1.500   4.394  0.00  0.00    +0.048 A 
ATOM      6  C   UNL     1      -1.135   1.316   3.374  0.00  0.00    +0.146 A 
ENDROOT
BRANCH   1   7
ATOM      7  S   UNL     1       1.287   0.556   2.356  0.00  0.00    +0.065 S 
ATOM      8  O   UNL     1       2.451  -0.001   2.951  0.00  0.00    -0.153 OA
ATOM      9  O   UNL     1       1.317   1.767   1.612  0.00  0.00    -0.153 OA
BRANCH   7  16
ATOM     10  C   UNL     1       1.614  -2.190   2.959  0.00  0.00    +0.026 C 
ATOM     11  C   UNL     1       0.762  -2.027   1.699  0.00  0.00    +0.077 C 
ATOM     12  C   UNL     1       1.413  -2.783   0.537  0.00  0.00    +0.020 C 
ATOM     13  C   UNL     1       0.634  -2.503  -0.750  0.00  0.00    +0.003 C 
ATOM     14  C   UNL     1       0.681  -1.005  -1.061  0.00  0.00    +0.017 C 
ATOM     15  C   UNL     1       0.022  -0.229   0.083  0.00  0.00    +0.110 C 
ATOM     16  N   UNL     1       0.669  -0.603   1.348  0.00  0.00    -0.174 NA
ENDBRANCH   7  16
ENDBRANCH   1   7
BRANCH   6  17
ATOM     17  O   UNL     1      -1.461   1.645   2.098  0.00  0.00    -0.493 OA
ATOM     18  C   UNL     1      -2.804   2.071   1.860  0.00  0.00    +0.277 C 
ENDBRANCH   6  17
BRANCH   3  19
ATOM     19  C   UNL     1      -0.113   0.298   7.366  0.00  0.00    +0.340 C 
ATOM     20  O   UNL     1       0.986  -0.157   7.615  0.00  0.00    -0.245 OA
BRANCH  19  21
ATOM     21  O   UNL     1      -1.007   0.480   8.358  0.00  0.00    -0.449 OA
BRANCH  21  22
ATOM     22  C   UNL     1      -0.595   0.117   9.677  0.00  0.00    +0.259 C 
ATOM     23  C   UNL     1       0.056   1.322  10.358  0.00  0.00    +0.062 C 
BRANCH  22  24
ATOM     24  C   UNL     1      -1.796  -0.323  10.475  0.00  0.00    +0.254 C 
ATOM     25  O   UNL     1      -2.896  -0.325   9.964  0.00  0.00    -0.272 OA
ATOM     26  N   UNL     1      -1.647  -0.713  11.757  0.00  0.00    -0.309 N 
ATOM     27  H   UNL     1      -0.768  -0.712  12.165  0.00  0.00    +0.149 HD
BRANCH  26  28
ATOM     28  C   UNL     1      -2.814  -1.141  12.532  0.00  0.00    +0.073 C 
ATOM     29  C   UNL     1      -3.474   0.079  13.209  0.00  0.00    +0.022 C 
ATOM     30  C   UNL     1      -3.939  -0.456  14.586  0.00  0.00    +0.002 C 
ATOM     31  C   UNL     1      -2.788  -1.411  14.988  0.00  0.00    +0.002 C 
ATOM     32  C   UNL     1      -2.378  -2.088  13.664  0.00  0.00    +0.022 C 
ENDBRANCH  26  28
ENDBRANCH  22  24
ENDBRANCH  21  22
ENDBRANCH  19  21
ENDBRANCH   3  19
TORSDOF 8
