REMARK  Name = ZINC59812565
REMARK  8 active torsions:
REMARK  status: ('A' for Active; 'I' for Inactive)
REMARK    1  A    between atoms: C_1  and  C_2
REMARK    2  A    between atoms: N_4  and  C_5
REMARK    3  A    between atoms: C_8  and  N_11
REMARK    4  A    between atoms: C_12  and  C_14
REMARK    5  A    between atoms: C_14  and  S_15
REMARK    6  A    between atoms: S_15  and  C_16
REMARK    7  A    between atoms: N_21  and  N_22
REMARK    8  A    between atoms: C_23  and  C_24
REMARK                            x       y       z     vdW  Elec       q    Type
REMARK                         _______ _______ _______ _____ _____    ______ ____
ROOT
ATOM      1  S   UNL     1      -3.323  -9.257  -0.183  0.00  0.00    -0.075 S 
ENDROOT
BRANCH   1   2
ATOM      2  C   UNL     1      -3.002 -10.989  -0.249  0.00  0.00    +0.211 A 
ATOM      3  N   UNL     1      -3.927 -11.946  -0.376  0.00  0.00    -0.186 NA
ATOM      4  C   UNL     1      -3.344 -13.126  -0.392  0.00  0.00    +0.232 A 
ATOM      5  N   UNL     1      -2.013 -12.935  -0.272  0.00  0.00    -0.245 N 
ATOM      6  N   UNL     1      -1.817 -11.547  -0.187  0.00  0.00    -0.144 NA
ATOM      7  N   UNL     1      -3.983 -14.347  -0.509  0.00  0.00    -0.205 N 
ATOM      8  H   UNL     1      -3.465 -15.167  -0.510  0.00  0.00    +0.177 HD
ATOM      9  H   UNL     1      -1.327 -13.620  -0.252  0.00  0.00    +0.192 HD
BRANCH   7  10
ATOM     10  N   UNL     1      -5.378 -14.400  -0.626  0.00  0.00    -0.188 NA
ATOM     11  C   UNL     1      -5.977 -15.546  -0.737  0.00  0.00    +0.138 C 
BRANCH  11  12
ATOM     12  C   UNL     1      -7.446 -15.601  -0.860  0.00  0.00    -0.004 A 
ATOM     13  C   UNL     1      -8.194 -14.421  -0.865  0.00  0.00    +0.009 A 
ATOM     14  C   UNL     1      -9.567 -14.480  -0.981  0.00  0.00    +0.002 A 
ATOM     15  C   UNL     1     -10.204 -15.703  -1.092  0.00  0.00    +0.015 A 
ATOM     16  C   UNL     1      -9.469 -16.877  -1.089  0.00  0.00    +0.018 A 
ATOM     17  C   UNL     1      -8.094 -16.832  -0.979  0.00  0.00    +0.024 A 
ATOM     18 BR   UNL     1     -10.350 -18.543  -1.242  0.00  0.00    -0.050 Br
ENDBRANCH  11  12
ENDBRANCH   7  10
ENDBRANCH   1   2
BRANCH   1  19
ATOM     19  C   UNL     1      -1.678  -8.512  -0.017  0.00  0.00    +0.173 C 
BRANCH  19  21
ATOM     20  N   UNL     1      -0.710  -6.244   0.177  0.00  0.00    -0.285 N 
ATOM     21  C   UNL     1      -1.810  -7.012   0.052  0.00  0.00    +0.227 C 
ATOM     22  O   UNL     1      -2.906  -6.497  -0.006  0.00  0.00    -0.275 OA
ATOM     23  H   UNL     1       0.160  -6.657   0.291  0.00  0.00    +0.155 HD
BRANCH  20  27
ATOM     24  C   UNL     1      -1.047  -2.089   0.076  0.00  0.00    +0.033 A 
ATOM     25  C   UNL     1       0.068  -2.709  -0.474  0.00  0.00    +0.025 A 
ATOM     26  C   UNL     1       0.179  -4.084  -0.440  0.00  0.00    +0.025 A 
ATOM     27  C   UNL     1      -0.823  -4.848   0.143  0.00  0.00    +0.034 A 
ATOM     28  C   UNL     1      -1.938  -4.228   0.693  0.00  0.00    +0.025 A 
ATOM     29  C   UNL     1      -2.047  -2.853   0.664  0.00  0.00    +0.025 A 
BRANCH  24  33
ATOM     30  C   UNL     1      -1.766   1.468   1.081  0.00  0.00    +0.109 C 
ATOM     31  C   UNL     1      -1.737  -0.038   1.069  0.00  0.00    +0.214 C 
ATOM     32  O   UNL     1      -2.232  -0.662   1.984  0.00  0.00    -0.276 OA
ATOM     33  N   UNL     1      -1.161  -0.693   0.042  0.00  0.00    -0.286 N 
ATOM     34  H   UNL     1      -0.824  -0.198  -0.722  0.00  0.00    +0.155 HD
ENDBRANCH  24  33
ENDBRANCH  20  27
ENDBRANCH  19  21
ENDBRANCH   1  19
TORSDOF 7
