REMARK  Name = ZINC12369527
REMARK  9 active torsions:
REMARK  status: ('A' for Active; 'I' for Inactive)
REMARK    1  A    between atoms: C_1  and  C_2
REMARK    2  A    between atoms: C_5  and  N_9
REMARK    3  A    between atoms: C_7  and  C_8
REMARK    4  A    between atoms: C_10  and  N_25
REMARK    5  A    between atoms: C_12  and  C_14
REMARK    6  A    between atoms: C_17  and  O_20
REMARK    7  A    between atoms: O_20  and  C_21
REMARK    8  A    between atoms: N_25  and  S_26
REMARK    9  A    between atoms: S_26  and  C_29
REMARK                            x       y       z     vdW  Elec       q    Type
REMARK                         _______ _______ _______ _____ _____    ______ ____
ROOT
ATOM      1  N   UNL     1       1.940   1.440   0.737  0.00  0.00    -0.217 N 
ATOM      2  C   UNL     1       2.343   0.173   1.034  0.00  0.00    +0.142 A 
ATOM      3  C   UNL     1       3.649   0.061   0.673  0.00  0.00    +0.075 A 
ATOM      4  C   UNL     1       4.059   1.301   0.148  0.00  0.00    +0.095 A 
ATOM      5  N   UNL     1       3.032   2.124   0.189  0.00  0.00    -0.165 NA
ENDROOT
BRANCH   1  10
ATOM      6  C   UNL     1      -3.246   3.576   1.595  0.00  0.00    +0.044 C 
ATOM      7  C   UNL     1      -1.869   3.009   1.367  0.00  0.00    -0.047 A 
ATOM      8  C   UNL     1      -1.721   1.685   0.996  0.00  0.00    +0.006 A 
ATOM      9  C   UNL     1      -0.460   1.160   0.792  0.00  0.00    +0.028 A 
ATOM     10  C   UNL     1       0.660   1.967   0.949  0.00  0.00    +0.068 A 
ATOM     11  C   UNL     1       0.508   3.297   1.315  0.00  0.00    +0.031 A 
ATOM     12  C   UNL     1      -0.756   3.815   1.523  0.00  0.00    -0.046 A 
ATOM     13  C   UNL     1      -0.922   5.259   1.921  0.00  0.00    +0.044 C 
ENDBRANCH   1  10
BRANCH   4  14
ATOM     14  C   UNL     1       5.414   1.625  -0.362  0.00  0.00    +0.002 A 
ATOM     15  C   UNL     1       6.417   0.657  -0.343  0.00  0.00    +0.013 A 
ATOM     16  C   UNL     1       7.675   0.960  -0.822  0.00  0.00    +0.046 A 
ATOM     17  C   UNL     1       7.944   2.230  -1.314  0.00  0.00    +0.130 A 
ATOM     18  C   UNL     1       6.949   3.197  -1.330  0.00  0.00    +0.046 A 
ATOM     19  C   UNL     1       5.688   2.899  -0.857  0.00  0.00    +0.013 A 
BRANCH  17  20
ATOM     20  O   UNL     1       9.185   2.527  -1.781  0.00  0.00    -0.406 OA
BRANCH  20  21
ATOM     21  C   UNL     1      10.162   1.484  -1.735  0.00  0.00    +0.575 C 
ATOM     22  F   UNL     1       9.722   0.399  -2.500  0.00  0.00    -0.133 F 
ATOM     23  F   UNL     1      11.374   1.958  -2.250  0.00  0.00    -0.133 F 
ATOM     24  F   UNL     1      10.347   1.076  -0.410  0.00  0.00    -0.133 F 
ENDBRANCH  20  21
ENDBRANCH  17  20
ENDBRANCH   4  14
BRANCH   2  25
ATOM     25  N   UNL     1       1.559  -0.827   1.600  0.00  0.00    -0.199 N 
ATOM     26  H   UNL     1       0.619  -0.665   1.775  0.00  0.00    +0.175 HD
BRANCH  25  27
ATOM     27  S   UNL     1       2.231  -2.293   1.976  0.00  0.00    +0.074 S 
ATOM     28  O   UNL     1       1.203  -3.068   2.578  0.00  0.00    -0.150 OA
ATOM     29  O   UNL     1       2.933  -2.727   0.820  0.00  0.00    -0.150 OA
BRANCH  27  30
ATOM     30  C   UNL     1       3.442  -2.007   3.224  0.00  0.00    +0.111 A 
ATOM     31  C   UNL     1       3.062  -1.930   4.551  0.00  0.00    +0.029 A 
ATOM     32  C   UNL     1       4.010  -1.706   5.531  0.00  0.00    +0.005 A 
ATOM     33  C   UNL     1       5.340  -1.558   5.185  0.00  0.00    +0.038 A 
ATOM     34  C   UNL     1       5.722  -1.634   3.856  0.00  0.00    +0.125 A 
ATOM     35  C   UNL     1       4.771  -1.865   2.876  0.00  0.00    +0.067 A 
ATOM     36  F   UNL     1       7.022  -1.490   3.517  0.00  0.00    -0.205 F 
ENDBRANCH  27  30
ENDBRANCH  25  27
ENDBRANCH   2  25
TORSDOF 7
