REMARK  Name = ZINC09740871
REMARK  8 active torsions:
REMARK  status: ('A' for Active; 'I' for Inactive)
REMARK    1  A    between atoms: C_1  and  C_2
REMARK    2  A    between atoms: C_2  and  O_3
REMARK    3  A    between atoms: O_3  and  C_4
REMARK    4  A    between atoms: C_14  and  C_16
REMARK    5  A    between atoms: C_16  and  S_17
REMARK    6  A    between atoms: S_17  and  C_18
REMARK    7  A    between atoms: N_22  and  C_23
REMARK    8  A    between atoms: C_23  and  C_24
REMARK                            x       y       z     vdW  Elec       q    Type
REMARK                         _______ _______ _______ _____ _____    ______ ____
ROOT
ATOM      1  C   UNL     1      -0.148   1.182   2.380  0.00  0.00    +0.122 A 
ATOM      2  C   UNL     1       0.998   0.394   2.430  0.00  0.00    +0.048 A 
ATOM      3  C   UNL     1       1.553   0.014   3.623  0.00  0.00    +0.032 A 
ATOM      4  C   UNL     1       0.975   0.413   4.850  0.00  0.00    +0.081 A 
ATOM      5  C   UNL     1      -0.188   1.212   4.764  0.00  0.00    +0.044 A 
ATOM      6  C   UNL     1      -0.738   1.595   3.566  0.00  0.00    +0.063 A 
ATOM      7  S   UNL     1      -0.585   1.487   6.474  0.00  0.00    -0.052 S 
ATOM      8  C   UNL     1       0.770   0.556   7.173  0.00  0.00    +0.165 A 
ATOM      9  N   UNL     1       1.395   0.125   6.103  0.00  0.00    -0.225 NA
ATOM     10  N   UNL     1       1.083   0.343   8.506  0.00  0.00    -0.264 N 
ATOM     11  C   UNL     1       2.160  -0.397   8.836  0.00  0.00    +0.229 C 
ATOM     12  O   UNL     1       2.856  -0.877   7.967  0.00  0.00    -0.275 OA
ATOM     13  H   UNL     1       0.526   0.727   9.202  0.00  0.00    +0.157 HD
ENDROOT
BRANCH   1  14
ATOM     14  O   UNL     1      -0.682   1.547   1.184  0.00  0.00    -0.492 OA
BRANCH  14  16
ATOM     15  C   UNL     1      -0.753   1.593  -1.232  0.00  0.00    +0.048 C 
ATOM     16  C   UNL     1      -0.013   1.086   0.008  0.00  0.00    +0.225 C 
ENDBRANCH  14  16
ENDBRANCH   1  14
BRANCH  11  17
ATOM     17  C   UNL     1       2.499  -0.628  10.286  0.00  0.00    +0.173 C 
BRANCH  17  18
ATOM     18  S   UNL     1       3.988  -1.652  10.402  0.00  0.00    -0.075 S 
BRANCH  18  19
ATOM     19  C   UNL     1       4.150  -1.760  12.153  0.00  0.00    +0.210 A 
ATOM     20  N   UNL     1       3.358  -1.208  13.046  0.00  0.00    -0.101 NA
ATOM     21  N   UNL     1       3.758  -1.487  14.235  0.00  0.00    -0.022 NA
ATOM     22  N   UNL     1       4.819  -2.217  14.191  0.00  0.00    -0.043 NA
ATOM     23  N   UNL     1       5.115  -2.423  12.832  0.00  0.00    -0.215 N 
BRANCH  23  24
ATOM     24  C   UNL     1       6.230  -3.191  12.271  0.00  0.00    +0.190 C 
BRANCH  24  25
ATOM     25  C   UNL     1       7.417  -2.284  12.076  0.00  0.00    +0.011 A 
ATOM     26  C   UNL     1       8.423  -1.997  12.938  0.00  0.00    +0.013 A 
ATOM     27  C   UNL     1       9.420  -1.127  12.540  0.00  0.00    +0.008 A 
ATOM     28  C   UNL     1       9.362  -0.586  11.298  0.00  0.00    +0.045 A 
ATOM     29  S   UNL     1       7.869  -1.314  10.646  0.00  0.00    -0.100 S 
ENDBRANCH  24  25
ENDBRANCH  23  24
ENDBRANCH  18  19
ENDBRANCH  17  18
ENDBRANCH  11  17
TORSDOF 7
