REMARK  Name = ZINC37950983
REMARK  6 active torsions:
REMARK  status: ('A' for Active; 'I' for Inactive)
REMARK    1  A    between atoms: C_1  and  C_2
REMARK    2  A    between atoms: C_7  and  C_8
REMARK    3  A    between atoms: C_8  and  C_9
REMARK    4  A    between atoms: C_8  and  C_10
REMARK    5  A    between atoms: C_8  and  N_13
REMARK    6  A    between atoms: N_13  and  C_14
REMARK                            x       y       z     vdW  Elec       q    Type
REMARK                         _______ _______ _______ _____ _____    ______ ____
ROOT
ATOM      1  C   UNL     1       0.222   0.016   2.558  0.00  0.00    +0.131 C 
ATOM      2  C   UNL     1       1.420   0.870   2.140  0.00  0.00    +0.047 C 
ENDROOT
BRANCH   1   9
ATOM      3  C   UNL     1      -0.366   1.229   0.003  0.00  0.00    +0.044 C 
ATOM      4  C   UNL     1      -0.493  -0.263   0.176  0.00  0.00    -0.045 A 
ATOM      5  C   UNL     1      -0.886  -1.051  -0.890  0.00  0.00    +0.004 A 
ATOM      6  C   UNL     1      -1.002  -2.419  -0.731  0.00  0.00    +0.000 A 
ATOM      7  C   UNL     1      -0.726  -2.999   0.493  0.00  0.00    +0.000 A 
ATOM      8  C   UNL     1      -0.332  -2.211   1.558  0.00  0.00    +0.006 A 
ATOM      9  C   UNL     1      -0.212  -0.843   1.398  0.00  0.00    -0.013 A 
ENDBRANCH   1   9
BRANCH   1  10
ATOM     10  C   UNL     1      -0.915   0.913   2.972  0.00  0.00    +0.238 C 
ATOM     11  O   UNL     1      -0.888   2.094   2.695  0.00  0.00    -0.273 OA
ATOM     12  N   UNL     1      -1.964   0.404   3.649  0.00  0.00    -0.327 N 
ATOM     13  H   UNL     1      -1.986  -0.540   3.870  0.00  0.00    +0.145 HD
ATOM     14  H   UNL     1      -2.696   0.982   3.916  0.00  0.00    +0.145 HD
ENDBRANCH   1  10
BRANCH   1  15
ATOM     15  N   UNL     1       0.603  -0.841   3.684  0.00  0.00    -0.326 N 
ATOM     16  H   UNL     1       0.596  -1.805   3.584  0.00  0.00    +0.147 HD
BRANCH  15  17
ATOM     17  C   UNL     1       0.976  -0.268   4.903  0.00  0.00    +0.042 A 
ATOM     18  C   UNL     1       0.921   1.110   5.070  0.00  0.00    +0.024 A 
ATOM     19  C   UNL     1       1.290   1.673   6.276  0.00  0.00    +0.002 A 
ATOM     20  C   UNL     1       1.715   0.867   7.316  0.00  0.00    +0.001 A 
ATOM     21  C   UNL     1       1.772  -0.504   7.154  0.00  0.00    +0.017 A 
ATOM     22  C   UNL     1       1.399  -1.075   5.952  0.00  0.00    +0.039 A 
ATOM     23 BR   UNL     1       1.470  -2.952   5.732  0.00  0.00    -0.048 Br
ENDBRANCH  15  17
ENDBRANCH   1  15
TORSDOF 4
