REMARK  Name = ZINC53115321
REMARK  5 active torsions:
REMARK  status: ('A' for Active; 'I' for Inactive)
REMARK    1  A    between atoms: C_1  and  C_2
REMARK    2  A    between atoms: C_7  and  C_9
REMARK    3  A    between atoms: C_7  and  N_11
REMARK    4  A    between atoms: C_9  and  O_10
REMARK    5  A    between atoms: C_13  and  N_19
REMARK                            x       y       z     vdW  Elec       q    Type
REMARK                         _______ _______ _______ _____ _____    ______ ____
ROOT
ATOM      1  N   UNL     1       1.371  -2.650  -0.000  0.00  0.00    -0.320 N 
ATOM      2  C   UNL     1       2.721  -2.476  -0.298  0.00  0.00    +0.140 A 
ATOM      3  C   UNL     1       3.233  -2.963  -1.504  0.00  0.00    +0.066 A 
ATOM      4  C   UNL     1       4.580  -2.781  -1.784  0.00  0.00    +0.043 A 
ATOM      5  C   UNL     1       5.367  -2.119  -0.850  0.00  0.00    +0.038 A 
ATOM      6  C   UNL     1       4.792  -1.666   0.320  0.00  0.00    +0.128 A 
ATOM      7  N   UNL     1       3.506  -1.847   0.560  0.00  0.00    -0.238 NA
ATOM      8 BR   UNL     1       7.209  -1.843  -1.177  0.00  0.00    -0.049 Br
ATOM      9  H   UNL     1       0.807  -3.172  -0.592  0.00  0.00    +0.148 HD
ENDROOT
BRANCH   1  15
ATOM     10  C   UNL     1       0.514   1.560  -0.120  0.00  0.00    +0.007 C 
ATOM     11  C   UNL     1       0.309   0.044  -0.074  0.00  0.00    -0.012 C 
ATOM     12  C   UNL     1      -1.187  -0.266  -0.004  0.00  0.00    +0.003 C 
ATOM     13  C   UNL     1      -1.392  -1.782   0.042  0.00  0.00    +0.002 C 
ATOM     14  C   UNL     1      -0.694  -2.354   1.277  0.00  0.00    +0.028 C 
ATOM     15  C   UNL     1       0.803  -2.044   1.206  0.00  0.00    +0.057 C 
ATOM     16  C   UNL     1       1.008  -0.528   1.161  0.00  0.00    +0.031 C 
BRANCH  15  17
ATOM     17  C   UNL     1       1.501  -2.616   2.442  0.00  0.00    +0.181 C 
BRANCH  17  18
ATOM     18  O   UNL     1       1.422  -4.043   2.415  0.00  0.00    -0.393 OA
ATOM     19  H   UNL     1       1.846  -4.474   3.170  0.00  0.00    +0.209 HD
ENDBRANCH  17  18
ENDBRANCH  15  17
ENDBRANCH   1  15
BRANCH   3  20
ATOM     20  N   UNL     1       2.400  -3.624  -2.414  0.00  0.00    -0.355 N 
ATOM     21  H   UNL     1       1.460  -3.747  -2.211  0.00  0.00    +0.142 HD
ATOM     22  H   UNL     1       2.763  -3.958  -3.249  0.00  0.00    +0.142 HD
ENDBRANCH   3  20
TORSDOF 4
