REMARK  Name = ZINC16570162
REMARK  5 active torsions:
REMARK  status: ('A' for Active; 'I' for Inactive)
REMARK    1  A    between atoms: C_12  and  C_33
REMARK    2  A    between atoms: C_15  and  C_17
REMARK    3  A    between atoms: C_17  and  N_18
REMARK    4  A    between atoms: N_18  and  C_19
REMARK    5  A    between atoms: N_24  and  C_25
REMARK                            x       y       z     vdW  Elec       q    Type
REMARK                         _______ _______ _______ _____ _____    ______ ____
ROOT
ATOM      1  C   UNL     1       0.269   0.692   0.229  0.00  0.00    +0.002 A 
ATOM      2  C   UNL     1       0.734   0.085  -0.924  0.00  0.00    +0.002 A 
ATOM      3  C   UNL     1       0.168  -1.094  -1.372  0.00  0.00    +0.025 A 
ATOM      4  C   UNL     1      -0.873  -1.674  -0.664  0.00  0.00    +0.061 A 
ATOM      5  C   UNL     1      -1.346  -1.051   0.497  0.00  0.00    +0.068 A 
ATOM      6  C   UNL     1      -0.772   0.124   0.941  0.00  0.00    +0.028 A 
ATOM      7  N   UNL     1      -2.410  -1.659   1.178  0.00  0.00    -0.316 N 
ATOM      8  C   UNL     1      -2.901  -1.426   2.418  0.00  0.00    +0.092 A 
ATOM      9  C   UNL     1      -3.931  -2.276   2.631  0.00  0.00    +0.020 A 
ATOM     10  C   UNL     1      -4.080  -3.063   1.468  0.00  0.00    +0.025 A 
ATOM     11  C   UNL     1      -3.146  -2.670   0.596  0.00  0.00    +0.052 A 
ATOM     12  C   UNL     1      -2.860  -3.169  -0.799  0.00  0.00    +0.194 C 
ATOM     13  N   UNL     1      -1.450  -2.874  -1.101  0.00  0.00    -0.252 N 
ATOM     14  C   UNL     1      -0.712  -3.760  -1.799  0.00  0.00    +0.238 C 
ATOM     15  O   UNL     1       0.429  -3.487  -2.109  0.00  0.00    -0.273 OA
ENDROOT
BRANCH  12  16
ATOM     16  C   UNL     1      -3.753  -2.463  -1.787  0.00  0.00    +0.131 A 
ATOM     17  C   UNL     1      -4.883  -2.960  -2.322  0.00  0.00    +0.047 A 
ATOM     18  C   UNL     1      -5.395  -1.969  -3.191  0.00  0.00    +0.041 A 
ATOM     19  C   UNL     1      -4.548  -0.926  -3.135  0.00  0.00    +0.195 A 
ATOM     20  O   UNL     1      -3.558  -1.229  -2.279  0.00  0.00    -0.466 OA
ENDBRANCH  12  16
BRANCH  14  21
ATOM     21  C   UNL     1      -1.303  -5.088  -2.193  0.00  0.00    +0.205 C 
BRANCH  21  22
ATOM     22  N   UNL     1      -0.269  -5.918  -2.817  0.00  0.00    -0.274 N 
ATOM     23  C   UNL     1      -0.074  -5.863  -4.149  0.00  0.00    +0.307 C 
ATOM     24  O   UNL     1      -0.819  -5.202  -4.846  0.00  0.00    -0.252 OA
ATOM     25  N   UNL     1       0.947  -6.542  -4.710  0.00  0.00    -0.269 N 
ATOM     26  H   UNL     1       1.474  -7.155  -4.173  0.00  0.00    +0.156 HD
BRANCH  25  27
ATOM     27  C   UNL     1       1.247  -6.362  -6.066  0.00  0.00    +0.038 A 
ATOM     28  C   UNL     1       1.043  -5.126  -6.665  0.00  0.00    +0.026 A 
ATOM     29  C   UNL     1       1.344  -4.949  -8.001  0.00  0.00    +0.043 A 
ATOM     30  C   UNL     1       1.838  -6.004  -8.747  0.00  0.00    +0.159 A 
ATOM     31  C   UNL     1       2.038  -7.241  -8.153  0.00  0.00    +0.160 A 
ATOM     32  C   UNL     1       1.743  -7.421  -6.814  0.00  0.00    +0.064 A 
ATOM     33  F   UNL     1       2.521  -8.271  -8.883  0.00  0.00    -0.202 F 
ATOM     34  F   UNL     1       2.126  -5.830 -10.056  0.00  0.00    -0.202 F 
ENDBRANCH  25  27
BRANCH  22  35
ATOM     35  C   UNL     1       0.554  -6.806  -1.992  0.00  0.00    +0.078 C 
ATOM     36  C   UNL     1       0.105  -7.048  -0.550  0.00  0.00    +0.024 C 
ATOM     37  C   UNL     1       1.330  -6.176  -0.833  0.00  0.00    +0.024 C 
ENDBRANCH  22  35
ENDBRANCH  21  22
ENDBRANCH  14  21
TORSDOF 5
