REMARK  Name = ZINC25581069
REMARK  4 active torsions:
REMARK  status: ('A' for Active; 'I' for Inactive)
REMARK    1  A    between atoms: C_1  and  C_2
REMARK    2  A    between atoms: C_2  and  C_4
REMARK    3  A    between atoms: C_7  and  C_10
REMARK    4  A    between atoms: C_13  and  C_15
REMARK                            x       y       z     vdW  Elec       q    Type
REMARK                         _______ _______ _______ _____ _____    ______ ____
ROOT
ATOM      1  C   UNL     1      -3.794   8.800   0.303  0.00  0.00    +0.136 A 
ATOM      2  C   UNL     1      -5.079   9.287   0.404  0.00  0.00    +0.050 A 
ATOM      3  C   UNL     1      -5.939   8.190   0.313  0.00  0.00    +0.050 A 
ATOM      4  C   UNL     1      -5.143   7.068   0.159  0.00  0.00    +0.130 A 
ATOM      5  O   UNL     1      -3.853   7.462   0.162  0.00  0.00    -0.455 OA
ENDROOT
BRANCH   4   6
ATOM      6  C   UNL     1      -5.602   5.739   0.028  0.00  0.00    +0.066 C 
ATOM      7  C   UNL     1      -4.707   4.710  -0.028  0.00  0.00    +0.084 A 
ATOM      8  C   UNL     1      -3.252   4.730   0.161  0.00  0.00    +0.272 A 
ATOM      9  O   UNL     1      -2.665   5.768   0.407  0.00  0.00    -0.266 OA
ATOM     10  N   UNL     1      -2.590   3.568   0.054  0.00  0.00    -0.253 N 
ATOM     11  C   UNL     1      -1.251   3.146   0.156  0.00  0.00    +0.077 A 
ATOM     12  C   UNL     1      -0.070   3.820   0.417  0.00  0.00    +0.028 A 
ATOM     13  C   UNL     1       1.121   3.123   0.455  0.00  0.00    +0.002 A 
ATOM     14  C   UNL     1       1.140   1.754   0.232  0.00  0.00    +0.002 A 
ATOM     15  C   UNL     1      -0.027   1.071  -0.030  0.00  0.00    +0.030 A 
ATOM     16  C   UNL     1      -1.239   1.765  -0.077  0.00  0.00    +0.091 A 
ATOM     17  N   UNL     1      -2.524   1.385  -0.297  0.00  0.00    -0.221 NA
ATOM     18  C   UNL     1      -3.303   2.426  -0.225  0.00  0.00    +0.182 A 
ATOM     19  S   UNL     1      -4.991   2.977  -0.349  0.00  0.00    -0.046 S 
ENDBRANCH   4   6
BRANCH   1  23
ATOM     20  C   UNL     1      -0.250  11.121   0.433  0.00  0.00    +0.017 A 
ATOM     21  C   UNL     1      -0.172   9.731   0.275  0.00  0.00    +0.012 A 
ATOM     22  C   UNL     1      -1.313   8.984   0.234  0.00  0.00    +0.012 A 
ATOM     23  C   UNL     1      -2.562   9.606   0.348  0.00  0.00    +0.017 A 
ATOM     24  C   UNL     1      -2.641  10.996   0.500  0.00  0.00    +0.012 A 
ATOM     25  C   UNL     1      -1.500  11.743   0.548  0.00  0.00    +0.012 A 
BRANCH  20  27
ATOM     26  C   UNL     1       0.898  13.409   0.729  0.00  0.00    +0.091 C 
ATOM     27  C   UNL     1       0.978  11.925   0.477  0.00  0.00    +0.160 C 
ATOM     28  O   UNL     1       2.057  11.395   0.311  0.00  0.00    -0.292 OA
ENDBRANCH  20  27
ENDBRANCH   1  23
TORSDOF 3
