REMARK  Name = ZINC36610782
REMARK  14 active torsions:
REMARK  status: ('A' for Active; 'I' for Inactive)
REMARK    1  A    between atoms: C_1  and  C_2
REMARK    2  A    between atoms: C_2  and  C_3
REMARK    3  A    between atoms: C_2  and  C_4
REMARK    4  A    between atoms: C_2  and  N_5
REMARK    5  A    between atoms: C_6  and  C_8
REMARK    6  A    between atoms: C_8  and  C_10
REMARK    7  A    between atoms: C_8  and  N_19
REMARK    8  A    between atoms: C_13  and  N_16
REMARK    9  A    between atoms: N_19  and  C_20
REMARK   10  A    between atoms: C_26  and  C_28
REMARK   11  A    between atoms: C_28  and  C_29
REMARK   12  A    between atoms: C_29  and  C_30
REMARK   13  A    between atoms: C_33  and  O_36
REMARK   14  A    between atoms: O_36  and  C_37
REMARK                            x       y       z     vdW  Elec       q    Type
REMARK                         _______ _______ _______ _____ _____    ______ ____
ROOT
ATOM      1  N   UNL     1       4.216  -0.150  -3.056  0.00  0.00    -0.255 N 
ATOM      2  C   UNL     1       5.007  -1.201  -3.348  0.00  0.00    +0.221 C 
ATOM      3  O   UNL     1       4.663  -2.323  -3.040  0.00  0.00    -0.275 OA
ENDROOT
BRANCH   1   4
ATOM      4  C   UNL     1       4.658   1.152  -3.318  0.00  0.00    +0.037 A 
ATOM      5  C   UNL     1       5.724   1.682  -2.605  0.00  0.00    +0.023 A 
ATOM      6  C   UNL     1       6.157   2.967  -2.867  0.00  0.00    +0.002 A 
ATOM      7  C   UNL     1       5.531   3.725  -3.839  0.00  0.00    +0.000 A 
ATOM      8  C   UNL     1       4.469   3.200  -4.551  0.00  0.00    +0.002 A 
ATOM      9  C   UNL     1       4.034   1.913  -4.298  0.00  0.00    +0.023 A 
ENDBRANCH   1   4
BRANCH   1  10
ATOM     10  C   UNL     1       2.895  -0.369  -2.462  0.00  0.00    +0.197 C 
BRANCH  10  11
ATOM     11  C   UNL     1       2.153   0.940  -2.390  0.00  0.00    -0.018 A 
ATOM     12  C   UNL     1       2.704   2.010  -1.708  0.00  0.00    +0.008 A 
ATOM     13  C   UNL     1       2.023   3.211  -1.641  0.00  0.00    +0.033 A 
ATOM     14  C   UNL     1       0.792   3.343  -2.256  0.00  0.00    +0.126 A 
ATOM     15  C   UNL     1       0.242   2.274  -2.938  0.00  0.00    +0.033 A 
ATOM     16  C   UNL     1       0.924   1.074  -3.009  0.00  0.00    +0.008 A 
BRANCH  14  17
ATOM     17  N   UNL     1       0.063   4.629  -2.184  0.00  0.00    +0.056 N 
ATOM     18  O   UNL     1       0.544   5.564  -1.587  0.00  0.00    -0.126 OA
ATOM     19  O   UNL     1      -1.014   4.745  -2.722  0.00  0.00    -0.126 OA
ENDBRANCH  14  17
ENDBRANCH  10  11
BRANCH  10  21
ATOM     20  N   UNL     1       1.966  -1.218  -0.332  0.00  0.00    -0.309 N 
ATOM     21  C   UNL     1       3.055  -0.934  -1.074  0.00  0.00    +0.239 C 
ATOM     22  O   UNL     1       4.164  -1.133  -0.625  0.00  0.00    -0.273 OA
ATOM     23  H   UNL     1       1.079  -1.058  -0.692  0.00  0.00    +0.149 HD
BRANCH  20  25
ATOM     24  C   UNL     1       2.911  -0.780   1.881  0.00  0.00    +0.031 C 
ATOM     25  C   UNL     1       2.122  -1.766   1.017  0.00  0.00    +0.026 C 
ATOM     26  C   UNL     1       2.875  -3.096   0.943  0.00  0.00    +0.031 C 
ATOM     27  C   UNL     1       0.742  -1.996   1.637  0.00  0.00    +0.031 C 
ENDBRANCH  20  25
ENDBRANCH  10  21
ENDBRANCH   1  10
BRANCH   2  28
ATOM     28  C   UNL     1       6.318  -0.984  -4.058  0.00  0.00    +0.101 C 
BRANCH  28  29
ATOM     29  C   UNL     1       6.949  -2.337  -4.391  0.00  0.00    +0.044 C 
BRANCH  29  30
ATOM     30  C   UNL     1       8.260  -2.120  -5.101  0.00  0.00    -0.047 A 
ATOM     31  C   UNL     1       8.290  -2.021  -6.480  0.00  0.00    +0.007 A 
ATOM     32  C   UNL     1       9.491  -1.822  -7.133  0.00  0.00    +0.046 A 
ATOM     33  C   UNL     1      10.667  -1.721  -6.405  0.00  0.00    +0.120 A 
ATOM     34  C   UNL     1      10.634  -1.820  -5.021  0.00  0.00    +0.046 A 
ATOM     35  C   UNL     1       9.430  -2.014  -4.372  0.00  0.00    +0.007 A 
BRANCH  33  36
ATOM     36  O   UNL     1      11.850  -1.525  -7.045  0.00  0.00    -0.495 OA
ATOM     37  C   UNL     1      13.021  -1.431  -6.231  0.00  0.00    +0.277 C 
ENDBRANCH  33  36
ENDBRANCH  29  30
ENDBRANCH  28  29
ENDBRANCH   2  28
TORSDOF 10
