REMARK  Name = ZINC14573543
REMARK  8 active torsions:
REMARK  status: ('A' for Active; 'I' for Inactive)
REMARK    1  A    between atoms: C_1  and  C_2
REMARK    2  A    between atoms: C_5  and  C_26
REMARK    3  A    between atoms: C_6  and  C_8
REMARK    4  A    between atoms: C_8  and  C_10
REMARK    5  A    between atoms: C_8  and  N_11
REMARK    6  A    between atoms: C_12  and  C_14
REMARK    7  A    between atoms: C_15  and  C_25
REMARK    8  A    between atoms: N_17  and  C_19
REMARK                            x       y       z     vdW  Elec       q    Type
REMARK                         _______ _______ _______ _____ _____    ______ ____
ROOT
ATOM      1  N   UNL     1      -0.102   4.060   0.609  0.00  0.00    -0.303 N 
ATOM      2  C   UNL     1      -0.161   5.279   1.182  0.00  0.00    +0.266 C 
ATOM      3  O   UNL     1       0.825   5.989   1.204  0.00  0.00    -0.268 OA
ATOM      4  H   UNL     1      -0.889   3.494   0.592  0.00  0.00    +0.150 HD
ENDROOT
BRANCH   2   5
ATOM      5  C   UNL     1      -1.424   5.751   1.786  0.00  0.00    +0.170 A 
ATOM      6  C   UNL     1      -1.626   6.989   2.419  0.00  0.00    +0.093 A 
ATOM      7  N   UNL     1      -2.880   7.012   2.808  0.00  0.00    -0.152 NA
ATOM      8  N   UNL     1      -3.453   5.792   2.428  0.00  0.00    -0.149 N 
ATOM      9  N   UNL     1      -2.562   5.081   1.831  0.00  0.00    -0.142 NA
ATOM     10  C   UNL     1      -0.604   8.080   2.611  0.00  0.00    +0.070 C 
BRANCH   8  11
ATOM     11  C   UNL     1      -4.781   5.408   2.660  0.00  0.00    +0.086 A 
ATOM     12  C   UNL     1      -5.232   4.168   2.227  0.00  0.00    +0.029 A 
ATOM     13  C   UNL     1      -6.540   3.790   2.463  0.00  0.00    +0.002 A 
ATOM     14  C   UNL     1      -7.402   4.649   3.119  0.00  0.00    +0.000 A 
ATOM     15  C   UNL     1      -6.957   5.886   3.546  0.00  0.00    +0.002 A 
ATOM     16  C   UNL     1      -5.649   6.268   3.319  0.00  0.00    +0.029 A 
ENDBRANCH   8  11
ENDBRANCH   2   5
BRANCH   1  17
ATOM     17  C   UNL     1       1.151   3.592   0.010  0.00  0.00    +0.101 C 
ATOM     18  C   UNL     1       1.256   4.112  -1.425  0.00  0.00    +0.033 C 
BRANCH  17  24
ATOM     19  C   UNL     1      -1.293  -0.775   0.010  0.00  0.00    +0.044 C 
ATOM     20  C   UNL     1       0.002  -0.004   0.002  0.00  0.00    -0.050 A 
ATOM     21  C   UNL     1       1.209  -0.679  -0.014  0.00  0.00    +0.003 A 
ATOM     22  C   UNL     1       2.396   0.028  -0.021  0.00  0.00    +0.004 A 
ATOM     23  C   UNL     1       2.377   1.411  -0.014  0.00  0.00    -0.046 A 
ATOM     24  C   UNL     1       1.171   2.085   0.002  0.00  0.00    -0.024 A 
ATOM     25  C   UNL     1      -0.017   1.378   0.010  0.00  0.00    +0.009 A 
ATOM     26  C   UNL     1       3.672   2.182  -0.021  0.00  0.00    +0.044 C 
ENDBRANCH  17  24
ENDBRANCH   1  17
TORSDOF 4
