REMARK  Name = ZINC39529898
REMARK  5 active torsions:
REMARK  status: ('A' for Active; 'I' for Inactive)
REMARK    1  A    between atoms: C_4  and  O_28
REMARK    2  A    between atoms: C_5  and  C_7
REMARK    3  A    between atoms: C_10  and  N_20
REMARK    4  A    between atoms: C_11  and  C_13
REMARK    5  A    between atoms: C_18  and  O_19
REMARK                            x       y       z     vdW  Elec       q    Type
REMARK                         _______ _______ _______ _____ _____    ______ ____
ROOT
ATOM      1  C   UNL     1       1.265  -2.168  -0.128  0.00  0.00    -0.014 A 
ATOM      2  C   UNL     1       2.088  -2.924  -0.964  0.00  0.00    +0.010 A 
ATOM      3  C   UNL     1       2.094  -4.300  -0.872  0.00  0.00    +0.024 A 
ATOM      4  C   UNL     1       1.282  -4.941   0.054  0.00  0.00    +0.038 A 
ATOM      5  C   UNL     1       0.454  -4.190   0.897  0.00  0.00    +0.007 A 
ATOM      6  C   UNL     1       0.452  -2.802   0.807  0.00  0.00    +0.019 A 
ENDROOT
BRANCH   4   7
ATOM      7  N   UNL     1       1.291  -6.333   0.144  0.00  0.00    -0.331 N 
ATOM      8  C   UNL     1       2.317  -7.033   0.932  0.00  0.00    +0.086 C 
ATOM      9  C   UNL     1       2.933  -8.132   0.059  0.00  0.00    -0.060 C 
ATOM     10  N   UNL     1       1.868  -9.001  -0.457  0.00  0.00    +0.400 N 
ATOM     11  C   UNL     1       0.987  -8.236  -1.348  0.00  0.00    +0.119 C 
ATOM     12  C   UNL     1       0.271  -7.142  -0.541  0.00  0.00    +0.120 C 
ATOM     13  O   UNL     1       0.017  -9.112  -1.926  0.00  0.00    -0.250 OA
ATOM     14  H   UNL     1       2.279  -9.767  -0.968  0.00  0.00    -0.082 HD
ATOM     15  H   UNL     1       1.329  -9.365   0.315  0.00  0.00    -0.082 HD
ENDBRANCH   4   7
BRANCH   1  20
ATOM     16  C   UNL     1       0.059   1.380  -0.430  0.00  0.00    +0.001 A 
ATOM     17  C   UNL     1       1.255   2.077  -0.425  0.00  0.00    +0.004 A 
ATOM     18  C   UNL     1       2.456   1.400  -0.324  0.00  0.00    +0.046 A 
ATOM     19  C   UNL     1       2.468   0.018  -0.227  0.00  0.00    +0.125 A 
ATOM     20  C   UNL     1       1.262  -0.689  -0.231  0.00  0.00    +0.024 A 
ATOM     21  C   UNL     1       0.057   0.003  -0.333  0.00  0.00    +0.012 A 
BRANCH  19  22
ATOM     22  O   UNL     1       3.648  -0.648  -0.128  0.00  0.00    -0.506 OA
ATOM     23  H   UNL     1       3.951  -0.779   0.781  0.00  0.00    +0.292 HD
ENDBRANCH  19  22
ENDBRANCH   1  20
BRANCH   5  24
ATOM     24  C   UNL     1      -0.414  -4.872   1.887  0.00  0.00    +0.025 A 
ATOM     25  C   UNL     1      -1.799  -4.849   1.736  0.00  0.00    +0.012 A 
ATOM     26  C   UNL     1      -2.603  -5.485   2.660  0.00  0.00    +0.001 A 
ATOM     27  C   UNL     1      -2.039  -6.147   3.737  0.00  0.00    +0.004 A 
ATOM     28  C   UNL     1      -0.666  -6.175   3.896  0.00  0.00    +0.046 A 
ATOM     29  C   UNL     1       0.153  -5.546   2.973  0.00  0.00    +0.125 A 
BRANCH  29  30
ATOM     30  O   UNL     1       1.503  -5.579   3.125  0.00  0.00    -0.506 OA
ATOM     31  H   UNL     1       1.857  -4.847   3.648  0.00  0.00    +0.292 HD
ENDBRANCH  29  30
ENDBRANCH   5  24
TORSDOF 5
