REMARK  Name = ZINC13215260
REMARK  6 active torsions:
REMARK  status: ('A' for Active; 'I' for Inactive)
REMARK    1  A    between atoms: C_1  and  O_2
REMARK    2  A    between atoms: O_2  and  C_3
REMARK    3  A    between atoms: C_6  and  C_9
REMARK    4  A    between atoms: C_11  and  C_22
REMARK    5  A    between atoms: C_15  and  N_21
REMARK    6  A    between atoms: C_16  and  C_18
REMARK                            x       y       z     vdW  Elec       q    Type
REMARK                         _______ _______ _______ _____ _____    ______ ____
ROOT
ATOM      1  C   UNL     1       1.899   2.584  -0.681  0.00  0.00    -0.004 A 
ATOM      2  C   UNL     1       0.914   3.383  -1.246  0.00  0.00    +0.041 A 
ATOM      3  C   UNL     1      -0.415   3.009  -1.167  0.00  0.00    +0.145 A 
ATOM      4  N   UNL     1      -0.764   1.895  -0.551  0.00  0.00    -0.235 NA
ATOM      5  C   UNL     1       0.128   1.098  -0.002  0.00  0.00    +0.112 A 
ATOM      6  C   UNL     1       1.512   1.379  -0.022  0.00  0.00    +0.037 A 
ATOM      7  C   UNL     1       2.353   0.395   0.636  0.00  0.00    +0.054 A 
ATOM      8  C   UNL     1       1.748  -0.703   1.211  0.00  0.00    +0.097 A 
ATOM      9  S   UNL     1       0.017  -0.440   0.879  0.00  0.00    -0.062 S 
ENDROOT
BRANCH   1  13
ATOM     10  C   UNL     1       5.993   3.709  -0.908  0.00  0.00    +0.120 A 
ATOM     11  C   UNL     1       5.581   2.486  -1.420  0.00  0.00    +0.046 A 
ATOM     12  C   UNL     1       4.255   2.118  -1.348  0.00  0.00    +0.012 A 
ATOM     13  C   UNL     1       3.325   2.976  -0.760  0.00  0.00    -0.017 A 
ATOM     14  C   UNL     1       3.741   4.208  -0.252  0.00  0.00    +0.012 A 
ATOM     15  C   UNL     1       5.070   4.567  -0.323  0.00  0.00    +0.046 A 
BRANCH  10  17
ATOM     16  C   UNL     1       7.655   5.341  -0.436  0.00  0.00    +0.277 C 
ATOM     17  O   UNL     1       7.300   4.069  -0.981  0.00  0.00    -0.495 OA
ENDBRANCH  10  17
ENDBRANCH   1  13
BRANCH   8  18
ATOM     18  C   UNL     1       2.356  -1.782   1.900  0.00  0.00    +0.250 C 
ATOM     19  O   UNL     1       3.565  -1.809   2.041  0.00  0.00    -0.270 OA
ATOM     20  N   UNL     1       1.597  -2.777   2.398  0.00  0.00    -0.325 N 
ATOM     21  H   UNL     1       0.633  -2.755   2.286  0.00  0.00    +0.145 HD
ATOM     22  H   UNL     1       2.013  -3.515   2.870  0.00  0.00    +0.145 HD
ENDBRANCH   8  18
BRANCH   3  23
ATOM     23  C   UNL     1      -1.475   3.884  -1.784  0.00  0.00    +0.434 C 
ATOM     24  F   UNL     1      -1.685   3.495  -3.112  0.00  0.00    -0.164 F 
ATOM     25  F   UNL     1      -2.668   3.750  -1.065  0.00  0.00    -0.164 F 
ATOM     26  F   UNL     1      -1.057   5.218  -1.749  0.00  0.00    -0.164 F 
ENDBRANCH   3  23
BRANCH   7  27
ATOM     27  N   UNL     1       3.731   0.555   0.686  0.00  0.00    -0.356 N 
ATOM     28  H   UNL     1       4.308  -0.223   0.737  0.00  0.00    +0.142 HD
ATOM     29  H   UNL     1       4.116   1.445   0.671  0.00  0.00    +0.142 HD
ENDBRANCH   7  27
TORSDOF 5
