REMARK  Name = ZINC01774163
REMARK  14 active torsions:
REMARK  status: ('A' for Active; 'I' for Inactive)
REMARK    1  A    between atoms: C_1  and  C_2
REMARK    2  A    between atoms: C_5  and  C_8
REMARK    3  A    between atoms: C_8  and  S_9
REMARK    4  A    between atoms: S_9  and  C_10
REMARK    5  A    between atoms: C_13  and  S_15
REMARK    6  A    between atoms: S_15  and  C_16
REMARK    7  A    between atoms: C_16  and  C_17
REMARK    8  A    between atoms: N_19  and  N_20
REMARK    9  A    between atoms: C_21  and  C_22
REMARK   10  A    between atoms: C_25  and  O_30
REMARK   11  A    between atoms: C_26  and  O_28
REMARK   12  A    between atoms: O_28  and  C_29
REMARK   13  A    between atoms: O_30  and  C_31
REMARK   14  A    between atoms: C_31  and  C_33
REMARK                            x       y       z     vdW  Elec       q    Type
REMARK                         _______ _______ _______ _____ _____    ______ ____
ROOT
ATOM      1  C   UNL     1       0.035   1.489  -0.034  0.00  0.00    +0.242 C 
ATOM      2  O   UNL     1      -1.027   2.075  -0.051  0.00  0.00    -0.273 OA
ATOM      3  N   UNL     1       1.189   2.186  -0.015  0.00  0.00    -0.206 N 
ATOM      4  H   UNL     1       2.038   1.718  -0.006  0.00  0.00    +0.177 HD
ENDROOT
BRANCH   3   5
ATOM      5  N   UNL     1       1.161   3.587  -0.009  0.00  0.00    -0.188 NA
ATOM      6  C   UNL     1       2.272   4.258   0.009  0.00  0.00    +0.138 C 
BRANCH   6   7
ATOM      7  C   UNL     1       2.242   5.732   0.016  0.00  0.00    -0.002 A 
ATOM      8  C   UNL     1       1.019   6.408  -0.003  0.00  0.00    +0.013 A 
ATOM      9  C   UNL     1       0.994   7.787   0.009  0.00  0.00    +0.051 A 
ATOM     10  C   UNL     1       2.180   8.506   0.029  0.00  0.00    +0.173 A 
ATOM     11  C   UNL     1       3.403   7.838   0.042  0.00  0.00    +0.163 A 
ATOM     12  C   UNL     1       3.437   6.456   0.036  0.00  0.00    +0.059 A 
BRANCH  11  13
ATOM     13  O   UNL     1       4.564   8.546   0.061  0.00  0.00    -0.491 OA
ATOM     14  C   UNL     1       5.781   7.797   0.074  0.00  0.00    +0.277 C 
ENDBRANCH  11  13
BRANCH  10  15
ATOM     15  O   UNL     1       2.150   9.865   0.035  0.00  0.00    -0.422 OA
BRANCH  15  16
ATOM     16  C   UNL     1       2.336  10.484  -1.141  0.00  0.00    +0.309 C 
ATOM     17  O   UNL     1       2.423   9.836  -2.158  0.00  0.00    -0.251 OA
ATOM     18  C   UNL     1       2.437  11.987  -1.194  0.00  0.00    +0.136 C 
ENDBRANCH  15  16
ENDBRANCH  10  15
ENDBRANCH   6   7
ENDBRANCH   3   5
BRANCH   1  19
ATOM     19  C   UNL     1       0.066  -0.018  -0.041  0.00  0.00    +0.173 C 
BRANCH  19  20
ATOM     20  S   UNL     1      -1.632  -0.656  -0.067  0.00  0.00    -0.088 S 
BRANCH  20  24
ATOM     21  C   UNL     1      -1.564  -5.091  -0.087  0.00  0.00    +0.160 A 
ATOM     22  N   UNL     1      -0.388  -4.493  -0.068  0.00  0.00    -0.134 NA
ATOM     23  N   UNL     1      -0.319  -3.119  -0.060  0.00  0.00    -0.134 NA
ATOM     24  C   UNL     1      -1.429  -2.406  -0.073  0.00  0.00    +0.160 A 
ATOM     25  S   UNL     1      -2.671  -3.690  -0.088  0.00  0.00    -0.033 S 
BRANCH  21  26
ATOM     26  S   UNL     1      -1.941  -6.812  -0.099  0.00  0.00    -0.092 S 
BRANCH  26  27
ATOM     27  C   UNL     1      -0.315  -7.618  -0.080  0.00  0.00    +0.111 C 
BRANCH  27  32
ATOM     28  C   UNL     1      -1.007 -13.355  -0.114  0.00  0.00    +0.044 C 
ATOM     29  C   UNL     1      -0.827 -11.859  -0.105  0.00  0.00    -0.050 A 
ATOM     30  C   UNL     1      -0.728 -11.167  -1.298  0.00  0.00    +0.003 A 
ATOM     31  C   UNL     1      -0.562  -9.795  -1.290  0.00  0.00    +0.005 A 
ATOM     32  C   UNL     1      -0.496  -9.114  -0.089  0.00  0.00    -0.037 A 
ATOM     33  C   UNL     1      -0.590  -9.806   1.104  0.00  0.00    +0.005 A 
ATOM     34  C   UNL     1      -0.760 -11.178   1.096  0.00  0.00    +0.003 A 
ENDBRANCH  27  32
ENDBRANCH  26  27
ENDBRANCH  21  26
ENDBRANCH  20  24
ENDBRANCH  19  20
ENDBRANCH   1  19
TORSDOF 11
