REMARK  Name = ZINC39455815
REMARK  7 active torsions:
REMARK  status: ('A' for Active; 'I' for Inactive)
REMARK    1  A    between atoms: C_1  and  C_2
REMARK    2  A    between atoms: C_6  and  S_9
REMARK    3  A    between atoms: S_9  and  C_10
REMARK    4  A    between atoms: C_10  and  C_11
REMARK    5  A    between atoms: N_13  and  C_14
REMARK    6  A    between atoms: C_14  and  C_15
REMARK    7  A    between atoms: C_15  and  C_16
REMARK                            x       y       z     vdW  Elec       q    Type
REMARK                         _______ _______ _______ _____ _____    ______ ____
ROOT
ATOM      1  C   UNL     1       1.460  -5.288   1.886  0.00  0.00    +0.223 C 
ATOM      2  O   UNL     1       1.132  -5.762   2.953  0.00  0.00    -0.275 OA
ATOM      3  N   UNL     1       2.289  -5.970   1.071  0.00  0.00    -0.314 N 
ATOM      4  H   UNL     1       2.552  -5.591   0.218  0.00  0.00    +0.149 HD
ENDROOT
BRANCH   1   5
ATOM      5  C   UNL     1       0.941  -3.935   1.471  0.00  0.00    +0.167 C 
BRANCH   5   6
ATOM      6  S   UNL     1      -0.142  -3.279   2.770  0.00  0.00    -0.121 S 
BRANCH   6  11
ATOM      7  C   UNL     1      -0.019   1.526   0.010  0.00  0.00    +0.037 C 
ATOM      8  C   UNL     1       0.002  -0.004   0.002  0.00  0.00    +0.126 C 
ATOM      9  N   UNL     1      -1.378  -0.558   0.092  0.00  0.00    -0.242 NA
ATOM     10  N   UNL     1      -1.409  -1.817   0.828  0.00  0.00    -0.233 NA
ATOM     11  C   UNL     1      -0.676  -1.670   2.124  0.00  0.00    +0.186 C 
ATOM     12  S   UNL     1       0.761  -0.664   1.546  0.00  0.00    -0.110 S 
ATOM     13  H   UNL     1      -1.785  -0.665  -0.825  0.00  0.00    +0.142 HD
ATOM     14  H   UNL     1      -1.022  -2.568   0.277  0.00  0.00    +0.143 HD
ENDBRANCH   6  11
ENDBRANCH   5   6
ENDBRANCH   1   5
BRANCH   3  15
ATOM     15  C   UNL     1       2.794  -7.285   1.475  0.00  0.00    +0.109 C 
BRANCH  15  16
ATOM     16  C   UNL     1       3.707  -7.838   0.380  0.00  0.00    +0.056 C 
BRANCH  16  17
ATOM     17  C   UNL     1       4.227  -9.191   0.794  0.00  0.00    -0.021 A 
ATOM     18  C   UNL     1       3.551 -10.478   0.611  0.00  0.00    +0.003 A 
ATOM     19  C   UNL     1       2.331 -10.862   0.052  0.00  0.00    +0.010 A 
ATOM     20  C   UNL     1       1.979 -12.182   0.032  0.00  0.00    +0.001 A 
ATOM     21  C   UNL     1       2.826 -13.145   0.564  0.00  0.00    +0.002 A 
ATOM     22  C   UNL     1       4.035 -12.788   1.120  0.00  0.00    +0.026 A 
ATOM     23  C   UNL     1       4.413 -11.450   1.151  0.00  0.00    +0.047 A 
ATOM     24  N   UNL     1       5.525 -10.790   1.623  0.00  0.00    -0.360 N 
ATOM     25  C   UNL     1       5.399  -9.446   1.397  0.00  0.00    +0.087 A 
ATOM     26  H   UNL     1       6.286 -11.214   2.049  0.00  0.00    +0.165 HD
ENDBRANCH  16  17
ENDBRANCH  15  16
ENDBRANCH   3  15
TORSDOF 6
