REMARK  Name = ZINC61685236
REMARK  4 active torsions:
REMARK  status: ('A' for Active; 'I' for Inactive)
REMARK    1  A    between atoms: C_2  and  N_18
REMARK    2  A    between atoms: C_5  and  S_8
REMARK    3  A    between atoms: S_8  and  N_11
REMARK    4  A    between atoms: N_11  and  C_12
REMARK                            x       y       z     vdW  Elec       q    Type
REMARK                         _______ _______ _______ _____ _____    ______ ____
ROOT
ATOM      1  C   UNL     1      -0.017   1.379   0.010  0.00  0.00    +0.063 A 
ATOM      2  C   UNL     1       1.177   2.089   0.002  0.00  0.00    +0.030 A 
ATOM      3  C   UNL     1       2.387   1.408  -0.013  0.00  0.00    +0.063 A 
ATOM      4  C   UNL     1       2.401   0.025  -0.021  0.00  0.00    +0.155 A 
ATOM      5  C   UNL     1       1.210  -0.681  -0.014  0.00  0.00    +0.180 A 
ATOM      6  C   UNL     1       0.002  -0.004   0.002  0.00  0.00    +0.155 A 
ATOM      7  F   UNL     1      -1.159  -0.695   0.010  0.00  0.00    -0.203 F 
ATOM      8  F   UNL     1       3.579  -0.638  -0.035  0.00  0.00    -0.203 F 
ENDROOT
BRANCH   5   9
ATOM      9  S   UNL     1       1.231  -2.443  -0.024  0.00  0.00    +0.097 S 
ATOM     10  O   UNL     1      -0.015  -2.861  -0.565  0.00  0.00    -0.148 OA
ATOM     11  O   UNL     1       2.476  -2.831  -0.589  0.00  0.00    -0.148 OA
BRANCH   9  12
ATOM     12  N   UNL     1       1.252  -2.942   1.555  0.00  0.00    -0.093 NA
BRANCH  12  13
ATOM     13  C   UNL     1       1.271  -4.315   1.859  0.00  0.00    +0.133 A 
ATOM     14  C   UNL     1       1.281  -5.371   0.924  0.00  0.00    +0.183 A 
ATOM     15  N   UNL     1       1.298  -6.495   1.583  0.00  0.00    -0.085 NA
ATOM     16  O   UNL     1       1.300  -6.193   2.966  0.00  0.00    -0.361 OA
ATOM     17  C   UNL     1       1.289  -4.854   3.097  0.00  0.00    +0.256 A 
ENDBRANCH  12  13
ENDBRANCH   9  12
ENDBRANCH   5   9
BRANCH   2  18
ATOM     18  N   UNL     1       1.161   3.485   0.009  0.00  0.00    -0.358 N 
ATOM     19  H   UNL     1       0.315   3.960   0.019  0.00  0.00    +0.142 HD
ATOM     20  H   UNL     1       1.995   3.980   0.004  0.00  0.00    +0.142 HD
ENDBRANCH   2  18
TORSDOF 4
