REMARK  Name = ZINC39676460
REMARK  8 active torsions:
REMARK  status: ('A' for Active; 'I' for Inactive)
REMARK    1  A    between atoms: C_1  and  C_2
REMARK    2  A    between atoms: C_2  and  S_3
REMARK    3  A    between atoms: S_3  and  C_4
REMARK    4  A    between atoms: C_5  and  C_10
REMARK    5  A    between atoms: C_14  and  C_23
REMARK    6  A    between atoms: N_25  and  C_26
REMARK    7  A    between atoms: C_26  and  C_27
REMARK    8  A    between atoms: C_27  and  C_28
REMARK                            x       y       z     vdW  Elec       q    Type
REMARK                         _______ _______ _______ _____ _____    ______ ____
ROOT
ATOM      1  C   UNL     1       2.067  -2.695   3.296  0.00  0.00    +0.249 C 
ATOM      2  O   UNL     1       2.114  -1.481   3.363  0.00  0.00    -0.270 OA
ATOM      3  N   UNL     1       2.504  -3.443   4.328  0.00  0.00    -0.296 N 
ATOM      4  C   UNL     1       2.625  -4.919   4.392  0.00  0.00    +0.121 C 
ATOM      5  C   UNL     1       3.943  -5.170   5.158  0.00  0.00    +0.100 C 
ATOM      6  C   UNL     1       4.166  -3.893   5.986  0.00  0.00    -0.004 C 
ATOM      7  C   UNL     1       2.979  -2.977   5.652  0.00  0.00    +0.115 C 
ATOM      8  C   UNL     1       5.474  -3.221   5.580  0.00  0.00    -0.010 C 
ATOM      9  C   UNL     1       5.701  -1.985   6.455  0.00  0.00    -0.082 C 
ATOM     10  N   UNL     1       5.750  -2.386   7.867  0.00  0.00    +0.379 N 
ATOM     11  C   UNL     1       4.457  -2.948   8.274  0.00  0.00    -0.082 C 
ATOM     12  C   UNL     1       4.177  -4.223   7.475  0.00  0.00    -0.010 C 
ATOM     13  H   UNL     1       6.471  -3.081   7.992  0.00  0.00    -0.086 HD
ATOM     14  H   UNL     1       5.961  -1.581   8.437  0.00  0.00    -0.086 HD
ENDROOT
BRANCH   1  16
ATOM     15  C   UNL     1       1.758  -2.792   0.815  0.00  0.00    +0.109 A 
ATOM     16  C   UNL     1       1.531  -3.346   2.087  0.00  0.00    +0.069 A 
ATOM     17  C   UNL     1       0.788  -4.528   2.185  0.00  0.00    +0.017 A 
ATOM     18  C   UNL     1       0.308  -5.101   1.020  0.00  0.00    +0.020 A 
ATOM     19  C   UNL     1       0.573  -4.496  -0.196  0.00  0.00    +0.112 A 
ATOM     20  N   UNL     1       1.270  -3.380  -0.267  0.00  0.00    -0.248 NA
BRANCH  15  21
ATOM     21  S   UNL     1       2.690  -1.304   0.660  0.00  0.00    -0.105 S 
BRANCH  21  23
ATOM     22  C   UNL     1       3.496   0.300  -1.403  0.00  0.00    +0.015 C 
ATOM     23  C   UNL     1       2.708  -0.982  -1.125  0.00  0.00    +0.072 C 
ENDBRANCH  21  23
ENDBRANCH  15  21
ENDBRANCH   1  16
BRANCH   5  24
ATOM     24  C   UNL     1       3.805  -6.367   6.062  0.00  0.00    +0.218 C 
ATOM     25  O   UNL     1       2.728  -6.639   6.548  0.00  0.00    -0.275 OA
ATOM     26  N   UNL     1       4.880  -7.135   6.332  0.00  0.00    -0.315 N 
ATOM     27  H   UNL     1       5.741  -6.917   5.944  0.00  0.00    +0.149 HD
BRANCH  26  28
ATOM     28  C   UNL     1       4.745  -8.299   7.212  0.00  0.00    +0.109 C 
BRANCH  28  29
ATOM     29  C   UNL     1       6.102  -8.992   7.352  0.00  0.00    +0.056 C 
BRANCH  29  30
ATOM     30  C   UNL     1       5.964 -10.189   8.256  0.00  0.00    -0.021 A 
ATOM     31  C   UNL     1       5.537 -11.534   7.863  0.00  0.00    +0.004 A 
ATOM     32  C   UNL     1       5.151 -12.114   6.652  0.00  0.00    +0.030 A 
ATOM     33  C   UNL     1       4.797 -13.444   6.617  0.00  0.00    +0.042 A 
ATOM     34  C   UNL     1       4.821 -14.208   7.777  0.00  0.00    +0.022 A 
ATOM     35  C   UNL     1       5.199 -13.650   8.978  0.00  0.00    +0.027 A 
ATOM     36  C   UNL     1       5.561 -12.309   9.037  0.00  0.00    +0.047 A 
ATOM     37  N   UNL     1       5.974 -11.484  10.059  0.00  0.00    -0.360 N 
ATOM     38  C   UNL     1       6.215 -10.227   9.574  0.00  0.00    +0.087 A 
ATOM     39 CL   UNL     1       4.317 -14.170   5.114  0.00  0.00    -0.084 Cl
ATOM     40  H   UNL     1       6.082 -11.754  10.985  0.00  0.00    +0.165 HD
ENDBRANCH  29  30
ENDBRANCH  28  29
ENDBRANCH  26  28
ENDBRANCH   5  24
TORSDOF 7
