REMARK  Name = ZINC20883323
REMARK  8 active torsions:
REMARK  status: ('A' for Active; 'I' for Inactive)
REMARK    1  A    between atoms: C_1  and  C_2
REMARK    2  A    between atoms: C_2  and  C_3
REMARK    3  A    between atoms: C_2  and  O_4
REMARK    4  A    between atoms: O_4  and  C_5
REMARK    5  A    between atoms: C_8  and  C_11
REMARK    6  A    between atoms: C_16  and  C_26
REMARK    7  A    between atoms: C_29  and  O_35
REMARK    8  A    between atoms: C_30  and  N_32
REMARK                            x       y       z     vdW  Elec       q    Type
REMARK                         _______ _______ _______ _____ _____    ______ ____
ROOT
ATOM      1  C   UNL     1       0.782   1.645  -0.235  0.00  0.00    +0.032 C 
ATOM      2  C   UNL     1      -0.716   1.481  -0.486  0.00  0.00    +0.059 C 
ATOM      3  C   UNL     1      -1.499   1.948   0.730  0.00  0.00    +0.017 C 
ATOM      4  C   UNL     1      -0.987   1.806   1.965  0.00  0.00    +0.036 C 
ATOM      5  C   UNL     1      -1.656   2.219   3.254  0.00  0.00    +0.136 C 
ATOM      6  N   UNL     1      -3.054   2.569   3.120  0.00  0.00    -0.331 N 
ATOM      7  C   UNL     1      -3.449   3.674   2.368  0.00  0.00    +0.049 A 
ATOM      8  C   UNL     1      -4.060   4.770   2.955  0.00  0.00    +0.025 A 
ATOM      9  C   UNL     1      -4.392   5.864   2.174  0.00  0.00    +0.002 A 
ATOM     10  C   UNL     1      -4.114   5.867   0.819  0.00  0.00    +0.002 A 
ATOM     11  C   UNL     1      -3.519   4.766   0.226  0.00  0.00    +0.025 A 
ATOM     12  C   UNL     1      -3.208   3.663   1.002  0.00  0.00    +0.052 A 
ATOM     13  N   UNL     1      -2.714   2.484   0.454  0.00  0.00    -0.316 N 
ATOM     14  C   UNL     1       0.299   1.234   2.147  0.00  0.00    +0.163 C 
ATOM     15  O   UNL     1       0.730   1.095   3.274  0.00  0.00    -0.292 OA
ATOM     16  C   UNL     1       1.146   0.797   0.990  0.00  0.00    +0.088 C 
ATOM     17  H   UNL     1      -3.824   1.960   3.617  0.00  0.00    +0.147 HD
ATOM     18  H   UNL     1      -3.391   1.979  -0.252  0.00  0.00    +0.152 HD
ENDROOT
BRANCH   1  22
ATOM     19  C   UNL     1       2.980   0.289  -3.640  0.00  0.00    +0.121 A 
ATOM     20  C   UNL     1       3.127   1.594  -3.193  0.00  0.00    +0.046 A 
ATOM     21  C   UNL     1       2.415   2.030  -2.092  0.00  0.00    +0.007 A 
ATOM     22  C   UNL     1       1.557   1.167  -1.436  0.00  0.00    -0.043 A 
ATOM     23  C   UNL     1       1.413  -0.136  -1.876  0.00  0.00    +0.007 A 
ATOM     24  C   UNL     1       2.118  -0.575  -2.980  0.00  0.00    +0.046 A 
BRANCH  19  25
ATOM     25  O   UNL     1       3.679  -0.142  -4.723  0.00  0.00    -0.489 OA
BRANCH  25  27
ATOM     26  C   UNL     1       5.838   0.942  -4.750  0.00  0.00    +0.051 C 
ATOM     27  C   UNL     1       4.465   0.829  -5.416  0.00  0.00    +0.167 C 
ATOM     28  C   UNL     1       4.640   0.398  -6.874  0.00  0.00    +0.051 C 
ENDBRANCH  25  27
ENDBRANCH  19  25
ENDBRANCH   1  22
BRANCH   5  29
ATOM     29  C   UNL     1      -0.918   3.408   3.815  0.00  0.00    -0.020 A 
ATOM     30  C   UNL     1      -0.912   4.605   3.123  0.00  0.00    +0.009 A 
ATOM     31  C   UNL     1      -0.241   5.697   3.638  0.00  0.00    +0.048 A 
ATOM     32  C   UNL     1       0.436   5.589   4.844  0.00  0.00    +0.147 A 
ATOM     33  C   UNL     1       0.433   4.385   5.533  0.00  0.00    +0.168 A 
ATOM     34  C   UNL     1      -0.244   3.297   5.016  0.00  0.00    +0.042 A 
BRANCH  33  35
ATOM     35  N   UNL     1       1.155   4.266   6.819  0.00  0.00    +0.060 N 
ATOM     36  O   UNL     1       1.153   3.208   7.423  0.00  0.00    -0.126 OA
ATOM     37  O   UNL     1       1.752   5.225   7.274  0.00  0.00    -0.126 OA
ENDBRANCH  33  35
BRANCH  32  38
ATOM     38  O   UNL     1       1.102   6.661   5.350  0.00  0.00    -0.504 OA
ATOM     39  H   UNL     1       1.639   6.574   6.306  0.00  0.00    +0.292 HD
ENDBRANCH  32  38
ENDBRANCH   5  29
TORSDOF 6
