REMARK  Name = ZINC21517893
REMARK  5 active torsions:
REMARK  status: ('A' for Active; 'I' for Inactive)
REMARK    1  A    between atoms: C_1  and  C_2
REMARK    2  A    between atoms: C_5  and  N_7
REMARK    3  A    between atoms: N_7  and  S_8
REMARK    4  A    between atoms: S_8  and  C_11
REMARK    5  A    between atoms: C_15  and  N_17
REMARK                            x       y       z     vdW  Elec       q    Type
REMARK                         _______ _______ _______ _____ _____    ______ ____
ROOT
ATOM      1  S   UNL     1      -2.784   3.986   0.048  0.00  0.00    +0.094 S 
ATOM      2  O   UNL     1      -3.738   3.091   0.603  0.00  0.00    -0.148 OA
ATOM      3  O   UNL     1      -2.531   5.270   0.603  0.00  0.00    -0.148 OA
ENDROOT
BRANCH   1   4
ATOM      4  C   UNL     1      -1.243   3.133   0.030  0.00  0.00    +0.112 A 
ATOM      5  C   UNL     1      -1.220   1.750   0.017  0.00  0.00    +0.032 A 
ATOM      6  C   UNL     1      -0.013   1.076   0.008  0.00  0.00    +0.042 A 
ATOM      7  C   UNL     1       1.176   1.783   0.000  0.00  0.00    +0.144 A 
ATOM      8  C   UNL     1       1.155   3.174   0.008  0.00  0.00    +0.062 A 
ATOM      9  C   UNL     1      -0.060   3.846   0.022  0.00  0.00    +0.054 A 
ATOM     10  F   UNL     1       2.355   1.124  -0.014  0.00  0.00    -0.204 F 
BRANCH   8  11
ATOM     11  N   UNL     1       2.354   3.893   0.001  0.00  0.00    -0.356 N 
ATOM     12  H   UNL     1       2.336   4.992   0.006  0.00  0.00    +0.142 HD
ATOM     13  H   UNL     1       3.316   3.358  -0.011  0.00  0.00    +0.142 HD
ENDBRANCH   8  11
ENDBRANCH   1   4
BRANCH   1  14
ATOM     14  N   UNL     1      -3.227   4.231  -1.529  0.00  0.00    -0.070 NA
BRANCH  14  19
ATOM     15  C   UNL     1      -4.542   2.004  -5.691  0.00  0.00    +0.066 C 
ATOM     16  C   UNL     1      -4.123   2.005  -4.244  0.00  0.00    +0.048 A 
ATOM     17  C   UNL     1      -3.986   0.843  -3.562  0.00  0.00    +0.071 A 
ATOM     18  S   UNL     1      -3.492   1.455  -1.958  0.00  0.00    -0.057 S 
ATOM     19  C   UNL     1      -3.517   3.148  -2.343  0.00  0.00    +0.202 A 
ATOM     20  N   UNL     1      -3.888   3.138  -3.609  0.00  0.00    -0.227 NA
ENDBRANCH  14  19
ENDBRANCH   1  14
TORSDOF 4
