REMARK  Name = ZINC02779806
REMARK  16 active torsions:
REMARK  status: ('A' for Active; 'I' for Inactive)
REMARK    1  A    between atoms: C_1  and  C_2
REMARK    2  A    between atoms: C_2  and  C_3
REMARK    3  A    between atoms: C_3  and  O_4
REMARK    4  A    between atoms: O_4  and  C_5
REMARK    5  A    between atoms: C_5  and  C_7
REMARK    6  A    between atoms: C_8  and  C_40
REMARK    7  A    between atoms: C_12  and  C_14
REMARK    8  A    between atoms: C_16  and  O_24
REMARK    9  A    between atoms: C_17  and  O_22
REMARK   10  A    between atoms: C_18  and  O_20
REMARK   11  A    between atoms: O_20  and  C_21
REMARK   12  A    between atoms: O_22  and  C_23
REMARK   13  A    between atoms: O_24  and  C_25
REMARK   14  A    between atoms: C_29  and  C_32
REMARK   15  A    between atoms: C_35  and  O_38
REMARK   16  A    between atoms: O_38  and  C_39
REMARK                            x       y       z     vdW  Elec       q    Type
REMARK                         _______ _______ _______ _____ _____    ______ ____
ROOT
ATOM      1  C   UNL     1      -9.411  -4.455  -1.401  0.00  0.00    +0.065 C 
ATOM      2  C   UNL     1      -8.654  -4.081  -2.446  0.00  0.00    +0.016 C 
ATOM      3  N   UNL     1      -7.657  -3.159  -2.286  0.00  0.00    -0.321 N 
ATOM      4  C   UNL     1      -7.146  -2.894  -1.044  0.00  0.00    +0.016 C 
ATOM      5  C   UNL     1      -7.839  -3.222   0.067  0.00  0.00    +0.024 C 
ATOM      6  C   UNL     1      -9.196  -3.872  -0.035  0.00  0.00    +0.092 C 
ATOM      7  C   UNL     1      -7.317  -2.970   1.348  0.00  0.00    +0.162 C 
ATOM      8  O   UNL     1      -7.971  -3.268   2.328  0.00  0.00    -0.292 OA
ATOM      9  C   UNL     1      -5.963  -2.339   1.528  0.00  0.00    +0.088 C 
ATOM     10  C   UNL     1      -5.083  -2.694   0.325  0.00  0.00    +0.032 C 
ATOM     11  C   UNL     1      -5.794  -2.232  -0.949  0.00  0.00    +0.059 C 
ATOM     12  C   UNL     1      -8.904  -4.683  -3.805  0.00  0.00    +0.061 C 
ATOM     13  H   UNL     1      -7.259  -2.622  -3.159  0.00  0.00    +0.152 HD
ENDROOT
BRANCH   6  14
ATOM     14  C   UNL     1     -10.260  -2.840   0.235  0.00  0.00    -0.028 A 
ATOM     15  C   UNL     1     -10.354  -1.720  -0.569  0.00  0.00    +0.054 A 
ATOM     16  C   UNL     1     -11.336  -0.771  -0.327  0.00  0.00    +0.165 A 
ATOM     17  C   UNL     1     -12.219  -0.942   0.732  0.00  0.00    +0.204 A 
ATOM     18  C   UNL     1     -12.118  -2.067   1.542  0.00  0.00    +0.165 A 
ATOM     19  C   UNL     1     -11.137  -3.014   1.289  0.00  0.00    +0.054 A 
BRANCH  18  20
ATOM     20  O   UNL     1     -12.979  -2.239   2.580  0.00  0.00    -0.491 OA
ATOM     21  C   UNL     1     -12.816  -3.418   3.370  0.00  0.00    +0.277 C 
ENDBRANCH  18  20
BRANCH  17  22
ATOM     22  O   UNL     1     -13.180  -0.010   0.977  0.00  0.00    -0.488 OA
ATOM     23  C   UNL     1     -12.837   1.059   1.861  0.00  0.00    +0.277 C 
ENDBRANCH  17  22
BRANCH  16  24
ATOM     24  O   UNL     1     -11.431   0.329  -1.122  0.00  0.00    -0.491 OA
ATOM     25  C   UNL     1     -10.490   0.439  -2.192  0.00  0.00    +0.277 C 
ENDBRANCH  16  24
ENDBRANCH   6  14
BRANCH  10  26
ATOM     26  C   UNL     1      -3.754  -1.994   0.446  0.00  0.00    -0.043 A 
ATOM     27  C   UNL     1      -2.586  -2.733   0.483  0.00  0.00    +0.007 A 
ATOM     28  C   UNL     1      -1.367  -2.094   0.594  0.00  0.00    +0.046 A 
ATOM     29  C   UNL     1      -1.314  -0.710   0.669  0.00  0.00    +0.120 A 
ATOM     30  C   UNL     1      -2.488   0.029   0.637  0.00  0.00    +0.046 A 
ATOM     31  C   UNL     1      -3.705  -0.614   0.521  0.00  0.00    +0.007 A 
BRANCH  29  32
ATOM     32  O   UNL     1      -0.116  -0.079   0.778  0.00  0.00    -0.495 OA
ATOM     33  C   UNL     1      -0.138   1.348   0.850  0.00  0.00    +0.277 C 
ENDBRANCH  29  32
ENDBRANCH  10  26
BRANCH   1  34
ATOM     34  C   UNL     1     -10.431  -5.417  -1.591  0.00  0.00    +0.338 C 
ATOM     35  O   UNL     1     -10.687  -5.818  -2.711  0.00  0.00    -0.245 OA
BRANCH  34  36
ATOM     36  O   UNL     1     -11.120  -5.888  -0.532  0.00  0.00    -0.461 OA
BRANCH  36  37
ATOM     37  C   UNL     1     -12.136  -6.857  -0.798  0.00  0.00    +0.232 C 
BRANCH  37  39
ATOM     38  C   UNL     1     -13.891  -8.308   0.231  0.00  0.00    +0.007 C 
ATOM     39  C   UNL     1     -12.803  -7.271   0.516  0.00  0.00    +0.038 C 
ENDBRANCH  37  39
ENDBRANCH  36  37
ENDBRANCH  34  36
ENDBRANCH   1  34
TORSDOF 10
