REMARK  Name = ZINC01312422
REMARK  10 active torsions:
REMARK  status: ('A' for Active; 'I' for Inactive)
REMARK    1  A    between atoms: C_1  and  C_2
REMARK    2  A    between atoms: C_2  and  C_3
REMARK    3  A    between atoms: C_5  and  C_26
REMARK    4  A    between atoms: C_6  and  C_11
REMARK    5  A    between atoms: C_7  and  C_9
REMARK    6  A    between atoms: C_9  and  C_10
REMARK    7  A    between atoms: C_14  and  C_25
REMARK    8  A    between atoms: C_20  and  N_24
REMARK    9  A    between atoms: C_21  and  C_22
REMARK   10  A    between atoms: C_26  and  C_27
REMARK                            x       y       z     vdW  Elec       q    Type
REMARK                         _______ _______ _______ _____ _____    ______ ____
ROOT
ATOM      1  C   UNL     1      -0.498   7.423   1.012  0.00  0.00    +0.098 C 
ATOM      2  C   UNL     1      -0.665   8.064   2.365  0.00  0.00    +0.027 A 
ATOM      3  C   UNL     1      -1.771   8.231   3.104  0.00  0.00    +0.039 A 
ATOM      4  N   UNL     1      -1.412   8.857   4.248  0.00  0.00    -0.280 N 
ATOM      5  H   UNL     1      -2.027   9.114   4.994  0.00  0.00    +0.189 HD
ATOM      6  N   UNL     1      -0.027   9.082   4.207  0.00  0.00    -0.158 NA
ATOM      7  C   UNL     1       0.424   8.612   3.083  0.00  0.00    +0.150 A 
ATOM      8  N   UNL     1       1.726   8.593   2.560  0.00  0.00    -0.286 N 
ATOM      9  C   UNL     1       1.871   8.266   1.230  0.00  0.00    +0.101 C 
ATOM     10  C   UNL     1       0.876   7.734   0.483  0.00  0.00    +0.076 C 
ATOM     11  C   UNL     1      -3.165   7.799   2.726  0.00  0.00    +0.065 C 
ATOM     12  H   UNL     1       2.495   8.803   3.114  0.00  0.00    +0.155 HD
ENDROOT
BRANCH   1  16
ATOM     13  C   UNL     1      -0.966   3.192   1.368  0.00  0.00    -0.047 A 
ATOM     14  C   UNL     1      -0.032   3.852   2.145  0.00  0.00    +0.007 A 
ATOM     15  C   UNL     1       0.123   5.220   2.026  0.00  0.00    -0.043 A 
ATOM     16  C   UNL     1      -0.663   5.931   1.138  0.00  0.00    -0.028 A 
ATOM     17  C   UNL     1      -1.600   5.271   0.365  0.00  0.00    -0.043 A 
ATOM     18  C   UNL     1      -1.752   3.902   0.480  0.00  0.00    +0.007 A 
BRANCH  13  20
ATOM     19  C   UNL     1      -0.198   0.998   0.504  0.00  0.00    +0.009 C 
ATOM     20  C   UNL     1      -1.131   1.699   1.494  0.00  0.00    +0.032 C 
ENDBRANCH  13  20
BRANCH  17  21
ATOM     21  C   UNL     1      -2.457   6.045  -0.604  0.00  0.00    +0.032 C 
ATOM     22  C   UNL     1      -1.705   6.218  -1.925  0.00  0.00    +0.009 C 
ENDBRANCH  17  21
BRANCH  15  23
ATOM     23  C   UNL     1       1.145   5.939   2.869  0.00  0.00    +0.032 C 
ATOM     24  C   UNL     1       0.575   6.178   4.268  0.00  0.00    +0.009 C 
ENDBRANCH  15  23
ENDBRANCH   1  16
BRANCH   9  25
ATOM     25  N   UNL     1       3.087   8.493   0.631  0.00  0.00    -0.346 N 
ATOM     26  H   UNL     1       3.215   8.272  -0.305  0.00  0.00    +0.144 HD
ATOM     27  H   UNL     1       3.817   8.874   1.144  0.00  0.00    +0.144 HD
ENDBRANCH   9  25
BRANCH  10  28
ATOM     28  C   UNL     1       1.147   7.450  -0.894  0.00  0.00    +0.099 C 
ATOM     29  N   UNL     1       1.362   7.224  -1.986  0.00  0.00    -0.191 NA
ENDBRANCH  10  28
TORSDOF 6
