REMARK  Name = ZINC03286380
REMARK  10 active torsions:
REMARK  status: ('A' for Active; 'I' for Inactive)
REMARK    1  A    between atoms: C_1  and  C_2
REMARK    2  A    between atoms: C_2  and  N_3
REMARK    3  A    between atoms: C_4  and  C_23
REMARK    4  A    between atoms: C_7  and  S_8
REMARK    5  A    between atoms: S_8  and  C_9
REMARK    6  A    between atoms: C_9  and  C_10
REMARK    7  A    between atoms: N_12  and  C_13
REMARK    8  A    between atoms: C_18  and  C_19
REMARK    9  A    between atoms: C_23  and  S_24
REMARK   10  A    between atoms: S_24  and  C_25
REMARK                            x       y       z     vdW  Elec       q    Type
REMARK                         _______ _______ _______ _____ _____    ______ ____
ROOT
ATOM      1  N   UNL     1      -8.922  -0.418  -0.482  0.00  0.00    -0.306 N 
ATOM      2  C   UNL     1      -9.613   0.761  -0.527  0.00  0.00    +0.144 A 
ATOM      3  N   UNL     1      -8.740   1.725  -0.452  0.00  0.00    -0.133 NA
ATOM      4  N   UNL     1      -7.553   1.240  -0.359  0.00  0.00    -0.122 NA
ATOM      5  C   UNL     1      -7.605  -0.071  -0.378  0.00  0.00    +0.192 A 
ENDROOT
BRANCH   1   7
ATOM      6  C   UNL     1      -9.783  -2.255   0.884  0.00  0.00    +0.027 C 
ATOM      7  C   UNL     1      -9.478  -1.772  -0.536  0.00  0.00    +0.122 C 
ENDBRANCH   1   7
BRANCH   5   8
ATOM      8  S   UNL     1      -6.236  -1.176  -0.279  0.00  0.00    -0.077 S 
BRANCH   8   9
ATOM      9  C   UNL     1      -4.878   0.016  -0.166  0.00  0.00    +0.173 C 
BRANCH   9  10
ATOM     10  C   UNL     1      -3.568  -0.722  -0.069  0.00  0.00    +0.227 C 
ATOM     11  O   UNL     1      -3.554  -1.935  -0.076  0.00  0.00    -0.275 OA
ATOM     12  N   UNL     1      -2.413  -0.035   0.025  0.00  0.00    -0.284 N 
ATOM     13  H   UNL     1      -2.429   0.931   0.112  0.00  0.00    +0.155 HD
BRANCH  12  14
ATOM     14  C   UNL     1      -1.190  -0.714  -0.002  0.00  0.00    +0.045 A 
ATOM     15  C   UNL     1      -1.097  -1.956  -0.618  0.00  0.00    +0.024 A 
ATOM     16  C   UNL     1       0.111  -2.624  -0.642  0.00  0.00    +0.002 A 
ATOM     17  C   UNL     1       1.228  -2.059  -0.054  0.00  0.00    +0.001 A 
ATOM     18  C   UNL     1       1.140  -0.821   0.555  0.00  0.00    +0.014 A 
ATOM     19  C   UNL     1      -0.067  -0.150   0.588  0.00  0.00    +0.076 A 
BRANCH  19  20
ATOM     20  C   UNL     1      -0.163   1.197   1.258  0.00  0.00    +0.419 C 
ATOM     21  F   UNL     1       1.088   1.552   1.773  0.00  0.00    -0.166 F 
ATOM     22  F   UNL     1      -0.571   2.155   0.323  0.00  0.00    -0.166 F 
ATOM     23  F   UNL     1      -1.096   1.135   2.299  0.00  0.00    -0.166 F 
ENDBRANCH  19  20
ENDBRANCH  12  14
ENDBRANCH   9  10
ENDBRANCH   8   9
ENDBRANCH   5   8
BRANCH   2  24
ATOM     24  C   UNL     1     -11.107   0.916  -0.642  0.00  0.00    +0.152 C 
BRANCH  24  25
ATOM     25  S   UNL     1     -11.838   0.966   1.014  0.00  0.00    -0.091 S 
BRANCH  25  26
ATOM     26  C   UNL     1     -13.539   1.147   0.593  0.00  0.00    +0.136 A 
ATOM     27  N   UNL     1     -14.580   1.242   1.389  0.00  0.00    -0.233 NA
ATOM     28  C   UNL     1     -15.840   1.379   0.922  0.00  0.00    +0.079 A 
ATOM     29  C   UNL     1     -17.038   1.491   1.665  0.00  0.00    +0.029 A 
ATOM     30  C   UNL     1     -18.245   1.627   1.030  0.00  0.00    +0.002 A 
ATOM     31  C   UNL     1     -18.337   1.658  -0.354  0.00  0.00    +0.001 A 
ATOM     32  C   UNL     1     -17.185   1.550  -1.112  0.00  0.00    +0.017 A 
ATOM     33  C   UNL     1     -15.972   1.415  -0.484  0.00  0.00    +0.040 A 
ATOM     34  S   UNL     1     -14.287   1.257  -1.027  0.00  0.00    -0.061 S 
ENDBRANCH  25  26
ENDBRANCH  24  25
ENDBRANCH   2  24
TORSDOF 9
