REMARK  Name = ZINC14269318
REMARK  7 active torsions:
REMARK  status: ('A' for Active; 'I' for Inactive)
REMARK    1  A    between atoms: C_4  and  C_7
REMARK    2  A    between atoms: C_7  and  C_9
REMARK    3  A    between atoms: C_7  and  N_22
REMARK    4  A    between atoms: C_9  and  C_10
REMARK    5  A    between atoms: N_12  and  C_13
REMARK    6  A    between atoms: C_13  and  C_14
REMARK    7  A    between atoms: C_14  and  C_15
REMARK                            x       y       z     vdW  Elec       q    Type
REMARK                         _______ _______ _______ _____ _____    ______ ____
ROOT
ATOM      1  C   UNL     1       0.002  -0.004   0.002  0.00  0.00    +0.113 C 
ENDROOT
BRANCH   1   2
ATOM      2  N   UNL     1      -0.959  -0.511   0.985  0.00  0.00    -0.292 N 
ATOM      3  C   UNL     1      -0.630  -0.547   2.292  0.00  0.00    +0.298 C 
ATOM      4  O   UNL     1       0.427  -0.076   2.666  0.00  0.00    -0.253 OA
ATOM      5  N   UNL     1      -1.472  -1.106   3.183  0.00  0.00    -0.313 N 
ATOM      6  H   UNL     1      -1.831  -0.820   0.696  0.00  0.00    +0.151 HD
ATOM      7  H   UNL     1      -2.315  -1.481   2.885  0.00  0.00    +0.146 HD
ATOM      8  H   UNL     1      -1.236  -1.132   4.124  0.00  0.00    +0.146 HD
ENDBRANCH   1   2
BRANCH   1  12
ATOM      9  C   UNL     1      -0.358   4.243  -0.282  0.00  0.00    +0.000 A 
ATOM     10  C   UNL     1       0.892   3.660  -0.190  0.00  0.00    +0.000 A 
ATOM     11  C   UNL     1       1.008   2.286  -0.098  0.00  0.00    +0.005 A 
ATOM     12  C   UNL     1      -0.125   1.494  -0.098  0.00  0.00    -0.027 A 
ATOM     13  C   UNL     1      -1.375   2.077  -0.196  0.00  0.00    +0.005 A 
ATOM     14  C   UNL     1      -1.491   3.452  -0.284  0.00  0.00    +0.000 A 
ENDBRANCH   1  12
BRANCH   1  15
ATOM     15  C   UNL     1      -0.285  -0.633  -1.363  0.00  0.00    +0.122 C 
BRANCH  15  16
ATOM     16  C   UNL     1      -0.039  -2.118  -1.294  0.00  0.00    +0.215 C 
ATOM     17  O   UNL     1       0.330  -2.624  -0.255  0.00  0.00    -0.276 OA
ATOM     18  N   UNL     1      -0.229  -2.884  -2.386  0.00  0.00    -0.315 N 
ATOM     19  H   UNL     1      -0.524  -2.479  -3.217  0.00  0.00    +0.149 HD
BRANCH  18  20
ATOM     20  C   UNL     1       0.010  -4.328  -2.319  0.00  0.00    +0.109 C 
BRANCH  20  21
ATOM     21  C   UNL     1      -0.277  -4.956  -3.684  0.00  0.00    +0.054 C 
BRANCH  21  22
ATOM     22  C   UNL     1      -0.031  -6.441  -3.615  0.00  0.00    -0.046 A 
ATOM     23  C   UNL     1       1.221  -6.949  -3.909  0.00  0.00    +0.005 A 
ATOM     24  C   UNL     1       1.449  -8.310  -3.841  0.00  0.00    +0.020 A 
ATOM     25  C   UNL     1       0.421  -9.166  -3.488  0.00  0.00    +0.041 A 
ATOM     26  C   UNL     1      -0.833  -8.659  -3.199  0.00  0.00    +0.020 A 
ATOM     27  C   UNL     1      -1.058  -7.297  -3.263  0.00  0.00    +0.005 A 
ATOM     28 CL   UNL     1       0.705 -10.877  -3.408  0.00  0.00    -0.084 Cl
ENDBRANCH  21  22
ENDBRANCH  20  21
ENDBRANCH  18  20
ENDBRANCH  15  16
ENDBRANCH   1  15
TORSDOF 7
