REMARK  Name = ZINC64971728
REMARK  9 active torsions:
REMARK  status: ('A' for Active; 'I' for Inactive)
REMARK    1  A    between atoms: C_1  and  C_2
REMARK    2  A    between atoms: C_2  and  O_3
REMARK    3  A    between atoms: O_3  and  C_4
REMARK    4  A    between atoms: C_7  and  N_10
REMARK    5  A    between atoms: N_17  and  C_24
REMARK    6  A    between atoms: C_24  and  C_25
REMARK    7  A    between atoms: N_27  and  C_28
REMARK    8  A    between atoms: C_28  and  C_29
REMARK    9  A    between atoms: C_29  and  C_30
REMARK                            x       y       z     vdW  Elec       q    Type
REMARK                         _______ _______ _______ _____ _____    ______ ____
ROOT
ATOM      1  N   UNL     1      -1.988  -5.983   0.096  0.00  0.00    -0.269 N 
ATOM      2  C   UNL     1      -3.222  -6.523   0.093  0.00  0.00    +0.311 C 
ATOM      3  O   UNL     1      -4.200  -5.806   0.004  0.00  0.00    -0.252 OA
ATOM      4  N   UNL     1      -3.373  -7.859   0.188  0.00  0.00    -0.245 N 
ATOM      5  C   UNL     1      -2.207  -8.749   0.295  0.00  0.00    +0.211 C 
ATOM      6  C   UNL     1      -2.429  -9.958  -0.578  0.00  0.00    +0.238 C 
ATOM      7  O   UNL     1      -1.476 -10.531  -1.062  0.00  0.00    -0.273 OA
ATOM      8  N   UNL     1      -3.673 -10.409  -0.828  0.00  0.00    -0.260 N 
ATOM      9  C   UNL     1      -4.792  -9.737  -0.324  0.00  0.00    +0.058 A 
ATOM     10  C   UNL     1      -4.649  -8.446   0.193  0.00  0.00    +0.060 A 
ATOM     11  C   UNL     1      -5.744  -7.767   0.694  0.00  0.00    +0.025 A 
ATOM     12  C   UNL     1      -6.988  -8.374   0.690  0.00  0.00    +0.002 A 
ATOM     13  C   UNL     1      -7.136  -9.654   0.188  0.00  0.00    +0.002 A 
ATOM     14  C   UNL     1      -6.041 -10.338  -0.328  0.00  0.00    +0.025 A 
ATOM     15  H   UNL     1      -1.207  -6.556   0.042  0.00  0.00    +0.156 HD
ENDROOT
BRANCH   1  19
ATOM     16  C   UNL     1      -1.523  -1.845   0.340  0.00  0.00    +0.121 A 
ATOM     17  C   UNL     1      -0.515  -2.684   0.792  0.00  0.00    +0.047 A 
ATOM     18  C   UNL     1      -0.668  -4.054   0.712  0.00  0.00    +0.027 A 
ATOM     19  C   UNL     1      -1.832  -4.592   0.179  0.00  0.00    +0.035 A 
ATOM     20  C   UNL     1      -2.841  -3.752  -0.273  0.00  0.00    +0.027 A 
ATOM     21  C   UNL     1      -2.688  -2.383  -0.188  0.00  0.00    +0.047 A 
BRANCH  16  22
ATOM     22  O   UNL     1      -1.372  -0.496   0.419  0.00  0.00    -0.492 OA
BRANCH  22  24
ATOM     23  C   UNL     1      -0.159   1.517   0.980  0.00  0.00    +0.048 C 
ATOM     24  C   UNL     1      -0.146  -0.013   0.973  0.00  0.00    +0.225 C 
ENDBRANCH  22  24
ENDBRANCH  16  22
ENDBRANCH   1  19
BRANCH   8  25
ATOM     25  C   UNL     1      -3.857 -11.616  -1.637  0.00  0.00    +0.209 C 
BRANCH  25  26
ATOM     26  C   UNL     1      -3.867 -12.826  -0.739  0.00  0.00    +0.231 C 
ATOM     27  O   UNL     1      -3.734 -12.693   0.460  0.00  0.00    -0.274 OA
ATOM     28  N   UNL     1      -4.024 -14.056  -1.266  0.00  0.00    -0.314 N 
ATOM     29  H   UNL     1      -4.130 -14.163  -2.225  0.00  0.00    +0.149 HD
BRANCH  28  30
ATOM     30  C   UNL     1      -4.034 -15.232  -0.393  0.00  0.00    +0.109 C 
BRANCH  30  31
ATOM     31  C   UNL     1      -4.226 -16.493  -1.238  0.00  0.00    +0.061 C 
BRANCH  31  32
ATOM     32  C   UNL     1      -4.236 -17.703  -0.340  0.00  0.00    -0.009 A 
ATOM     33  C   UNL     1      -5.287 -18.304   0.271  0.00  0.00    +0.011 A 
ATOM     34  C   UNL     1      -5.058 -19.417   1.058  0.00  0.00    +0.008 A 
ATOM     35  C   UNL     1      -3.789 -19.874   1.197  0.00  0.00    +0.045 A 
ATOM     36  S   UNL     1      -2.869 -18.722   0.191  0.00  0.00    -0.102 S 
ENDBRANCH  31  32
ENDBRANCH  30  31
ENDBRANCH  28  30
ENDBRANCH  25  26
ENDBRANCH   8  25
TORSDOF 8
