REMARK  Name = ZINC12790128
REMARK  13 active torsions:
REMARK  status: ('A' for Active; 'I' for Inactive)
REMARK    1  A    between atoms: C_1  and  N_68
REMARK    2  A    between atoms: C_2  and  N_68
REMARK    3  A    between atoms: C_3  and  C_5
REMARK    4  A    between atoms: C_3  and  C_33
REMARK    5  A    between atoms: C_3  and  N_68
REMARK    6  A    between atoms: C_5  and  N_6
REMARK    7  A    between atoms: C_7  and  C_9
REMARK    8  A    between atoms: C_9  and  C_11
REMARK    9  A    between atoms: C_9  and  N_22
REMARK   10  A    between atoms: C_11  and  C_12
REMARK   11  A    between atoms: C_23  and  O_25
REMARK   12  A    between atoms: O_25  and  C_26
REMARK   13  A    between atoms: C_26  and  C_27
REMARK                            x       y       z     vdW  Elec       q    Type
REMARK                         _______ _______ _______ _____ _____    ______ ____
ROOT
ATOM      1  C   UNL     1       2.988  -2.565   1.270  0.00  0.00    +0.166 C 
ENDROOT
BRANCH   1   3
ATOM      2  N   UNL     1       5.430  -2.361   0.930  0.00  0.00    -0.315 N 
ATOM      3  C   UNL     1       4.276  -1.785   1.322  0.00  0.00    +0.234 C 
ATOM      4  O   UNL     1       4.275  -0.638   1.717  0.00  0.00    -0.274 OA
ATOM      5  H   UNL     1       5.431  -3.278   0.615  0.00  0.00    +0.149 HD
BRANCH   2   6
ATOM      6  C   UNL     1       6.682  -1.603   0.981  0.00  0.00    +0.093 C 
BRANCH   6   7
ATOM      7  C   UNL     1       7.848  -2.516   0.599  0.00  0.00    -0.021 C 
BRANCH   7   8
ATOM      8  C   UNL     1       9.123  -1.714   0.557  0.00  0.00    -0.059 A 
ATOM      9  C   UNL     1       9.157  -0.506  -0.115  0.00  0.00    +0.002 A 
ATOM     10  C   UNL     1      10.325   0.232  -0.150  0.00  0.00    +0.000 A 
ATOM     11  C   UNL     1      11.461  -0.241   0.480  0.00  0.00    +0.000 A 
ATOM     12  C   UNL     1      11.428  -1.451   1.148  0.00  0.00    +0.000 A 
ATOM     13  C   UNL     1      10.259  -2.187   1.187  0.00  0.00    +0.002 A 
ENDBRANCH   7   8
BRANCH   7  16
ATOM     14  C   UNL     1       7.644  -2.079  -1.773  0.00  0.00    -0.096 C 
ATOM     15  C   UNL     1       8.544  -4.191  -1.005  0.00  0.00    -0.096 C 
ATOM     16  N   UNL     1       7.570  -3.116  -0.723  0.00  0.00    +0.382 N 
ATOM     17  H   UNL     1       6.624  -3.516  -0.715  0.00  0.00    -0.082 HD
ENDBRANCH   7  16
ENDBRANCH   6   7
ENDBRANCH   2   6
ENDBRANCH   1   3
BRANCH   1  18
ATOM     18  N   UNL     1       1.887  -1.723   1.744  0.00  0.00    -0.269 N 
ATOM     19  C   UNL     1       0.780  -2.290   2.263  0.00  0.00    +0.401 C 
ATOM     20  O   UNL     1       0.695  -3.500   2.337  0.00  0.00    -0.226 OA
ATOM     21  H   UNL     1       1.955  -0.757   1.685  0.00  0.00    +0.153 HD
BRANCH  19  22
ATOM     22  O   UNL     1      -0.232  -1.516   2.699  0.00  0.00    -0.446 OA
BRANCH  22  23
ATOM     23  C   UNL     1      -1.393  -2.196   3.245  0.00  0.00    +0.269 C 
BRANCH  23  24
ATOM     24  C   UNL     1      -2.414  -1.175   3.678  0.00  0.00    -0.010 A 
ATOM     25  C   UNL     1      -2.392  -0.679   4.968  0.00  0.00    +0.007 A 
ATOM     26  C   UNL     1      -3.325   0.260   5.364  0.00  0.00    +0.000 A 
ATOM     27  C   UNL     1      -4.287   0.696   4.473  0.00  0.00    +0.000 A 
ATOM     28  C   UNL     1      -4.313   0.196   3.184  0.00  0.00    +0.000 A 
ATOM     29  C   UNL     1      -3.377  -0.739   2.787  0.00  0.00    +0.007 A 
ENDBRANCH  23  24
ENDBRANCH  22  23
ENDBRANCH  19  22
ENDBRANCH   1  18
BRANCH   1  30
ATOM     30  C   UNL     1       2.713  -3.000  -0.171  0.00  0.00    +0.069 C 
BRANCH  30  31
ATOM     31  C   UNL     1       1.493  -3.883  -0.206  0.00  0.00    -0.020 A 
ATOM     32  C   UNL     1       1.477  -5.225  -0.174  0.00  0.00    +0.087 A 
ATOM     33  N   UNL     1       0.186  -5.677  -0.221  0.00  0.00    -0.360 N 
ATOM     34  H   UNL     1      -0.078  -6.611  -0.211  0.00  0.00    +0.165 HD
ATOM     35  C   UNL     1      -0.682  -4.610  -0.286  0.00  0.00    +0.047 A 
ATOM     36  C   UNL     1       0.098  -3.439  -0.279  0.00  0.00    +0.003 A 
ATOM     37  C   UNL     1      -0.521  -2.190  -0.336  0.00  0.00    +0.010 A 
ATOM     38  C   UNL     1      -1.883  -2.110  -0.399  0.00  0.00    +0.001 A 
ATOM     39  C   UNL     1      -2.658  -3.262  -0.406  0.00  0.00    +0.002 A 
ATOM     40  C   UNL     1      -2.068  -4.505  -0.345  0.00  0.00    +0.026 A 
ENDBRANCH  30  31
ENDBRANCH   1  30
TORSDOF 11
