REMARK  Name = ZINC22400375
REMARK  7 active torsions:
REMARK  status: ('A' for Active; 'I' for Inactive)
REMARK    1  A    between atoms: C_3  and  S_6
REMARK    2  A    between atoms: S_6  and  N_9
REMARK    3  A    between atoms: N_9  and  C_10
REMARK    4  A    between atoms: N_9  and  C_24
REMARK    5  A    between atoms: C_10  and  C_11
REMARK    6  A    between atoms: N_13  and  C_14
REMARK    7  A    between atoms: C_16  and  N_21
REMARK                            x       y       z     vdW  Elec       q    Type
REMARK                         _______ _______ _______ _____ _____    ______ ____
ROOT
ATOM      1  N   UNL     1       3.670   6.178   0.312  0.00  0.00    -0.194 N 
ENDROOT
BRANCH   1   2
ATOM      2  C   UNL     1       4.402   6.417  -0.855  0.00  0.00    +0.052 A 
ATOM      3  C   UNL     1       5.791   6.389  -0.824  0.00  0.00    +0.027 A 
ATOM      4  C   UNL     1       6.512   6.621  -1.979  0.00  0.00    +0.040 A 
ATOM      5  C   UNL     1       5.852   6.892  -3.165  0.00  0.00    +0.124 A 
ATOM      6  C   UNL     1       4.468   6.925  -3.198  0.00  0.00    +0.040 A 
ATOM      7  C   UNL     1       3.743   6.689  -2.047  0.00  0.00    +0.027 A 
ATOM      8  F   UNL     1       6.559   7.123  -4.293  0.00  0.00    -0.205 F 
ENDBRANCH   1   2
BRANCH   1   9
ATOM      9  S   UNL     1       4.356   6.464   1.792  0.00  0.00    +0.081 S 
ATOM     10  O   UNL     1       5.285   7.524   1.612  0.00  0.00    -0.149 OA
ATOM     11  O   UNL     1       3.288   6.538   2.726  0.00  0.00    -0.149 OA
BRANCH   9  14
ATOM     12  C   UNL     1       7.131   3.562   2.384  0.00  0.00    +0.010 A 
ATOM     13  C   UNL     1       6.597   4.761   1.949  0.00  0.00    +0.036 A 
ATOM     14  C   UNL     1       5.297   5.036   2.215  0.00  0.00    +0.146 A 
ATOM     15  S   UNL     1       4.787   3.579   3.112  0.00  0.00    -0.077 S 
ATOM     16  C   UNL     1       6.339   2.698   3.064  0.00  0.00    +0.047 A 
ENDBRANCH   9  14
ENDBRANCH   1   9
BRANCH   1  17
ATOM     17  C   UNL     1       2.297   5.675   0.225  0.00  0.00    +0.227 C 
BRANCH  17  18
ATOM     18  C   UNL     1       2.320   4.173   0.104  0.00  0.00    +0.236 C 
ATOM     19  O   UNL     1       3.378   3.581   0.091  0.00  0.00    -0.274 OA
ATOM     20  N   UNL     1       1.163   3.487   0.009  0.00  0.00    -0.283 N 
ATOM     21  H   UNL     1       0.207   4.027  -0.053  0.00  0.00    +0.155 HD
BRANCH  20  22
ATOM     22  C   UNL     1       1.179   2.087  -0.009  0.00  0.00    +0.054 A 
ATOM     23  C   UNL     1       2.222   1.411  -0.627  0.00  0.00    +0.057 A 
ATOM     24  C   UNL     1       2.235   0.030  -0.644  0.00  0.00    +0.128 A 
ATOM     25  C   UNL     1       1.210  -0.680  -0.046  0.00  0.00    +0.034 A 
ATOM     26  C   UNL     1       0.169  -0.011   0.570  0.00  0.00    +0.024 A 
ATOM     27  C   UNL     1       0.150   1.371   0.591  0.00  0.00    +0.062 A 
ATOM     28 CL   UNL     1      -1.161   2.212   1.358  0.00  0.00    -0.082 Cl
BRANCH  24  29
ATOM     29  N   UNL     1       3.347  -0.691  -1.303  0.00  0.00    +0.056 N 
ATOM     30  O   UNL     1       3.359  -1.909  -1.319  0.00  0.00    -0.126 OA
ATOM     31  O   UNL     1       4.250  -0.066  -1.830  0.00  0.00    -0.126 OA
ENDBRANCH  24  29
ENDBRANCH  20  22
ENDBRANCH  17  18
ENDBRANCH   1  17
TORSDOF 7
