REMARK  Name = ZINC08894835
REMARK  9 active torsions:
REMARK  status: ('A' for Active; 'I' for Inactive)
REMARK    1  A    between atoms: C_1  and  C_2
REMARK    2  A    between atoms: C_7  and  O_8
REMARK    3  A    between atoms: O_8  and  C_9
REMARK    4  A    between atoms: C_9  and  C_10
REMARK    5  A    between atoms: N_12  and  C_13
REMARK    6  A    between atoms: C_13  and  N_15
REMARK    7  A    between atoms: N_15  and  C_16
REMARK    8  A    between atoms: C_21  and  C_22
REMARK    9  A    between atoms: N_24  and  C_26
REMARK                            x       y       z     vdW  Elec       q    Type
REMARK                         _______ _______ _______ _____ _____    ______ ____
ROOT
ATOM      1  C   UNL     1      -2.384   1.612   0.027  0.00  0.00    +0.038 A 
ATOM      2  C   UNL     1      -2.313   0.252   0.124  0.00  0.00    +0.055 A 
ATOM      3  C   UNL     1      -3.476  -0.515  -0.058  0.00  0.00    +0.115 A 
ATOM      4  C   UNL     1      -4.740   0.174  -0.360  0.00  0.00    +0.114 A 
ATOM      5  C   UNL     1      -4.745   1.577  -0.451  0.00  0.00    +0.037 A 
ATOM      6  C   UNL     1      -3.590   2.265  -0.261  0.00  0.00    -0.027 A 
ATOM      7  C   UNL     1      -3.606   3.768  -0.361  0.00  0.00    +0.046 C 
ATOM      8  N   UNL     1      -5.632  -0.797  -0.478  0.00  0.00    -0.147 NA
ATOM      9  N   UNL     1      -5.046  -1.927  -0.286  0.00  0.00    -0.149 N 
ATOM     10  N   UNL     1      -3.789  -1.801  -0.038  0.00  0.00    -0.147 NA
ENDROOT
BRANCH   9  11
ATOM     11  C   UNL     1      -5.704  -3.159  -0.340  0.00  0.00    +0.094 A 
ATOM     12  C   UNL     1      -5.175  -4.198  -1.076  0.00  0.00    +0.030 A 
ATOM     13  C   UNL     1      -5.819  -5.431  -1.131  0.00  0.00    +0.003 A 
ATOM     14  C   UNL     1      -6.992  -5.641  -0.472  0.00  0.00    +0.008 A 
ATOM     15  C   UNL     1      -7.567  -4.606   0.283  0.00  0.00    -0.016 A 
ATOM     16  C   UNL     1      -6.918  -3.349   0.353  0.00  0.00    +0.009 A 
ATOM     17  C   UNL     1      -7.494  -2.316   1.109  0.00  0.00    +0.010 A 
ATOM     18  C   UNL     1      -8.667  -2.535   1.765  0.00  0.00    +0.001 A 
ATOM     19  C   UNL     1      -9.307  -3.771   1.697  0.00  0.00    +0.001 A 
ATOM     20  C   UNL     1      -8.777  -4.795   0.974  0.00  0.00    +0.008 A 
ENDBRANCH   9  11
BRANCH   1  21
ATOM     21  N   UNL     1      -1.224   2.372   0.214  0.00  0.00    -0.296 N 
ATOM     22  H   UNL     1      -1.014   3.095  -0.397  0.00  0.00    +0.154 HD
BRANCH  21  23
ATOM     23  C   UNL     1      -0.399   2.098   1.244  0.00  0.00    +0.141 C 
ATOM     24  S   UNL     1      -0.837   0.917   2.403  0.00  0.00    -0.018 S 
BRANCH  23  27
ATOM     25  C   UNL     1       1.603   2.474   2.384  0.00  0.00    +0.256 C 
ATOM     26  O   UNL     1       1.293   1.637   3.205  0.00  0.00    -0.272 OA
ATOM     27  N   UNL     1       0.775   2.751   1.358  0.00  0.00    -0.265 N 
ATOM     28  H   UNL     1       1.024   3.420   0.701  0.00  0.00    +0.157 HD
BRANCH  25  29
ATOM     29  C   UNL     1       2.916   3.203   2.512  0.00  0.00    +0.325 C 
BRANCH  29  30
ATOM     30  O   UNL     1       3.609   2.737   3.671  0.00  0.00    -0.483 OA
BRANCH  30  37
ATOM     31  C   UNL     1       4.997   1.829   5.958  0.00  0.00    +0.047 C 
ATOM     32  C   UNL     1       5.547   2.892   5.042  0.00  0.00    -0.009 A 
ATOM     33  C   UNL     1       6.777   3.463   5.306  0.00  0.00    +0.007 A 
ATOM     34  C   UNL     1       7.283   4.438   4.466  0.00  0.00    +0.000 A 
ATOM     35  C   UNL     1       6.559   4.843   3.359  0.00  0.00    +0.004 A 
ATOM     36  C   UNL     1       5.332   4.272   3.088  0.00  0.00    +0.046 A 
ATOM     37  C   UNL     1       4.819   3.297   3.933  0.00  0.00    +0.124 A 
ENDBRANCH  30  37
ENDBRANCH  29  30
ENDBRANCH  25  29
ENDBRANCH  23  27
ENDBRANCH  21  23
ENDBRANCH   1  21
TORSDOF 7
