REMARK  Name = ZINC42141758
REMARK  5 active torsions:
REMARK  status: ('A' for Active; 'I' for Inactive)
REMARK    1  A    between atoms: C_4  and  C_19
REMARK    2  A    between atoms: C_5  and  C_7
REMARK    3  A    between atoms: C_7  and  S_8
REMARK    4  A    between atoms: S_8  and  C_9
REMARK    5  A    between atoms: C_14  and  N_18
REMARK                            x       y       z     vdW  Elec       q    Type
REMARK                         _______ _______ _______ _____ _____    ______ ____
ROOT
ATOM      1  S   UNL     1       0.807  -2.788   1.673  0.00  0.00    -0.094 S 
ENDROOT
BRANCH   1   2
ATOM      2  C   UNL     1       0.709  -4.538   1.493  0.00  0.00    +0.136 A 
ATOM      3  N   UNL     1       0.768  -5.257   0.395  0.00  0.00    -0.233 NA
ATOM      4  C   UNL     1       0.678  -6.607   0.407  0.00  0.00    +0.080 A 
ATOM      5  C   UNL     1       0.726  -7.493  -0.694  0.00  0.00    +0.031 A 
ATOM      6  C   UNL     1       0.619  -8.846  -0.511  0.00  0.00    +0.025 A 
ATOM      7  C   UNL     1       0.460  -9.398   0.758  0.00  0.00    +0.026 A 
ATOM      8  C   UNL     1       0.410  -8.555   1.861  0.00  0.00    +0.040 A 
ATOM      9  C   UNL     1       0.517  -7.198   1.680  0.00  0.00    +0.042 A 
ATOM     10  S   UNL     1       0.513  -5.785   2.757  0.00  0.00    -0.061 S 
BRANCH   7  11
ATOM     11  N   UNL     1       0.352 -10.784   0.920  0.00  0.00    -0.358 N 
ATOM     12  H   UNL     1       0.388 -11.367   0.146  0.00  0.00    +0.142 HD
ATOM     13  H   UNL     1       0.242 -11.161   1.807  0.00  0.00    +0.142 HD
ENDBRANCH   7  11
ENDBRANCH   1   2
BRANCH   1  14
ATOM     14  C   UNL     1       1.001  -2.182  -0.026  0.00  0.00    +0.112 C 
BRANCH  14  19
ATOM     15  C   UNL     1       0.064   1.470  -0.247  0.00  0.00    +0.000 A 
ATOM     16  C   UNL     1       1.275   2.091   0.004  0.00  0.00    +0.001 A 
ATOM     17  C   UNL     1       2.404   1.336   0.247  0.00  0.00    +0.013 A 
ATOM     18  C   UNL     1       2.322  -0.058   0.239  0.00  0.00    +0.040 A 
ATOM     19  C   UNL     1       1.098  -0.678  -0.015  0.00  0.00    -0.025 A 
ATOM     20  C   UNL     1      -0.023   0.089  -0.257  0.00  0.00    +0.005 A 
BRANCH  18  21
ATOM     21  C   UNL     1       3.528  -0.874   0.498  0.00  0.00    +0.242 C 
ATOM     22  O   UNL     1       3.434  -2.081   0.599  0.00  0.00    -0.270 OA
ATOM     23  N   UNL     1       4.730  -0.278   0.622  0.00  0.00    -0.325 N 
ATOM     24  H   UNL     1       4.805   0.686   0.541  0.00  0.00    +0.145 HD
ATOM     25  H   UNL     1       5.521  -0.813   0.792  0.00  0.00    +0.145 HD
ENDBRANCH  18  21
ENDBRANCH  14  19
ENDBRANCH   1  14
TORSDOF 5
