REMARK  Name = ZINC40782450
REMARK  5 active torsions:
REMARK  status: ('A' for Active; 'I' for Inactive)
REMARK    1  A    between atoms: C_1  and  C_2
REMARK    2  A    between atoms: C_3  and  C_23
REMARK    3  A    between atoms: C_9  and  N_22
REMARK    4  A    between atoms: C_10  and  N_14
REMARK    5  A    between atoms: N_14  and  C_15
REMARK                            x       y       z     vdW  Elec       q    Type
REMARK                         _______ _______ _______ _____ _____    ______ ____
ROOT
ATOM      1  C   UNL     1       0.021   1.497   0.006  0.00  0.00    +0.066 C 
ATOM      2  C   UNL     1      -0.196   0.006   0.013  0.00  0.00    +0.050 A 
ATOM      3  C   UNL     1      -0.427  -0.681  -1.133  0.00  0.00    +0.011 A 
ATOM      4  S   UNL     1      -0.595  -2.341  -0.497  0.00  0.00    -0.057 S 
ATOM      5  C   UNL     1      -0.358  -1.992   1.132  0.00  0.00    +0.164 A 
ATOM      6  N   UNL     1      -0.163  -0.691   1.134  0.00  0.00    -0.230 NA
ATOM      7  N   UNL     1      -0.361  -2.865   2.210  0.00  0.00    -0.277 N 
ATOM      8  C   UNL     1      -0.144  -2.383   3.496  0.00  0.00    +0.150 A 
ATOM      9  C   UNL     1      -0.140  -3.253   4.588  0.00  0.00    +0.106 A 
ATOM     10  C   UNL     1       0.084  -2.717   5.858  0.00  0.00    +0.149 A 
ATOM     11  N   UNL     1       0.282  -1.406   5.978  0.00  0.00    -0.219 NA
ATOM     12  C   UNL     1       0.270  -0.620   4.921  0.00  0.00    +0.225 A 
ATOM     13  N   UNL     1       0.069  -1.086   3.705  0.00  0.00    -0.219 NA
ATOM     14  C   UNL     1      -0.517  -0.181  -2.551  0.00  0.00    +0.053 C 
ATOM     15  H   UNL     1      -0.516  -3.812   2.067  0.00  0.00    +0.156 HD
ENDROOT
BRANCH   9  16
ATOM     16  N   UNL     1      -0.354  -4.630   4.415  0.00  0.00    -0.353 N 
ATOM     17  H   UNL     1      -0.508  -4.988   3.527  0.00  0.00    +0.143 HD
ATOM     18  H   UNL     1      -0.348  -5.222   5.183  0.00  0.00    +0.143 HD
ENDBRANCH   9  16
BRANCH  10  19
ATOM     19  N   UNL     1       0.098  -3.539   6.979  0.00  0.00    -0.298 N 
ATOM     20  H   UNL     1       0.036  -4.501   6.876  0.00  0.00    +0.154 HD
BRANCH  19  21
ATOM     21  C   UNL     1       0.202  -2.977   8.256  0.00  0.00    +0.033 A 
ATOM     22  C   UNL     1       0.922  -3.632   9.247  0.00  0.00    +0.026 A 
ATOM     23  C   UNL     1       1.024  -3.076  10.507  0.00  0.00    +0.040 A 
ATOM     24  C   UNL     1       0.408  -1.867  10.783  0.00  0.00    +0.124 A 
ATOM     25  C   UNL     1      -0.310  -1.212   9.797  0.00  0.00    +0.040 A 
ATOM     26  C   UNL     1      -0.410  -1.762   8.534  0.00  0.00    +0.026 A 
ATOM     27  F   UNL     1       0.509  -1.324  12.016  0.00  0.00    -0.205 F 
ENDBRANCH  19  21
ENDBRANCH  10  19
TORSDOF 3
