REMARK  Name = ZINC36494015
REMARK  14 active torsions:
REMARK  status: ('A' for Active; 'I' for Inactive)
REMARK    1  A    between atoms: C_1  and  C_2
REMARK    2  A    between atoms: C_2  and  C_3
REMARK    3  A    between atoms: C_3  and  C_4
REMARK    4  A    between atoms: C_4  and  N_5
REMARK    5  A    between atoms: C_6  and  C_8
REMARK    6  A    between atoms: C_8  and  C_10
REMARK    7  A    between atoms: C_8  and  N_17
REMARK    8  A    between atoms: C_15  and  O_16
REMARK    9  A    between atoms: N_17  and  C_18
REMARK   10  A    between atoms: C_18  and  C_19
REMARK   11  A    between atoms: C_24  and  C_26
REMARK   12  A    between atoms: C_32  and  O_34
REMARK   13  A    between atoms: O_34  and  C_35
REMARK   14  A    between atoms: C_35  and  C_36
REMARK                            x       y       z     vdW  Elec       q    Type
REMARK                         _______ _______ _______ _____ _____    ______ ____
ROOT
ATOM      1  N   UNL     1       2.119  -5.731  -4.082  0.00  0.00    -0.277 N 
ATOM      2  C   UNL     1       1.576  -6.240  -5.206  0.00  0.00    +0.237 C 
ATOM      3  O   UNL     1       0.989  -5.513  -5.979  0.00  0.00    -0.274 OA
ENDROOT
BRANCH   2   4
ATOM      4  C   UNL     1       1.699  -7.712  -5.502  0.00  0.00    +0.165 C 
ATOM      5  C   UNL     1       0.558  -8.484  -4.805  0.00  0.00    +0.033 C 
ATOM      6  C   UNL     1       0.182  -9.567  -5.851  0.00  0.00    +0.021 C 
ATOM      7  C   UNL     1       0.384  -8.799  -7.181  0.00  0.00    +0.112 C 
ATOM      8  N   UNL     1       1.567  -7.944  -6.948  0.00  0.00    -0.256 N 
ATOM      9  C   UNL     1       2.387  -7.457  -7.900  0.00  0.00    +0.404 C 
ATOM     10  O   UNL     1       3.333  -6.760  -7.588  0.00  0.00    -0.226 OA
BRANCH   9  11
ATOM     11  O   UNL     1       2.159  -7.742  -9.196  0.00  0.00    -0.445 OA
BRANCH  11  12
ATOM     12  C   UNL     1       3.069  -7.192 -10.151  0.00  0.00    +0.269 C 
BRANCH  12  13
ATOM     13  C   UNL     1       2.658  -7.615 -11.538  0.00  0.00    -0.010 A 
ATOM     14  C   UNL     1       3.153  -8.788 -12.078  0.00  0.00    +0.007 A 
ATOM     15  C   UNL     1       2.776  -9.176 -13.350  0.00  0.00    +0.000 A 
ATOM     16  C   UNL     1       1.904  -8.392 -14.082  0.00  0.00    +0.000 A 
ATOM     17  C   UNL     1       1.408  -7.220 -13.541  0.00  0.00    +0.000 A 
ATOM     18  C   UNL     1       1.782  -6.834 -12.267  0.00  0.00    +0.007 A 
ENDBRANCH  12  13
ENDBRANCH  11  12
ENDBRANCH   9  11
ENDBRANCH   2   4
BRANCH   1  19
ATOM     19  C   UNL     1       1.905  -4.323  -3.738  0.00  0.00    +0.196 C 
BRANCH  19  20
ATOM     20  C   UNL     1       3.236  -3.646  -3.542  0.00  0.00    +0.023 A 
ATOM     21  C   UNL     1       3.677  -3.342  -2.268  0.00  0.00    +0.009 A 
ATOM     22  C   UNL     1       4.899  -2.720  -2.088  0.00  0.00    +0.001 A 
ATOM     23  C   UNL     1       5.683  -2.401  -3.182  0.00  0.00    +0.004 A 
ATOM     24  C   UNL     1       5.247  -2.703  -4.457  0.00  0.00    +0.046 A 
ATOM     25  C   UNL     1       4.024  -3.332  -4.640  0.00  0.00    +0.122 A 
BRANCH  25  26
ATOM     26  O   UNL     1       3.595  -3.635  -5.894  0.00  0.00    -0.506 OA
ATOM     27  H   UNL     1       3.143  -2.907  -6.342  0.00  0.00    +0.292 HD
ENDBRANCH  25  26
ENDBRANCH  19  20
BRANCH  19  29
ATOM     28  N   UNL     1       0.648  -3.040  -2.037  0.00  0.00    -0.313 N 
ATOM     29  C   UNL     1       1.104  -4.234  -2.464  0.00  0.00    +0.238 C 
ATOM     30  O   UNL     1       0.870  -5.237  -1.824  0.00  0.00    -0.273 OA
ATOM     31  H   UNL     1       0.896  -2.229  -2.509  0.00  0.00    +0.149 HD
BRANCH  28  32
ATOM     32  C   UNL     1      -0.222  -2.966  -0.861  0.00  0.00    +0.104 C 
BRANCH  32  33
ATOM     33  C   UNL     1      -0.593  -1.507  -0.592  0.00  0.00    +0.018 C 
BRANCH  33  35
ATOM     34  C   UNL     1      -1.873   0.030   0.906  0.00  0.00    +0.004 C 
ATOM     35  C   UNL     1      -1.502  -1.430   0.637  0.00  0.00    -0.002 C 
ENDBRANCH  33  35
ENDBRANCH  32  33
ENDBRANCH  28  32
ENDBRANCH  19  29
ENDBRANCH   1  19
BRANCH   1  36
ATOM     36  C   UNL     1       2.923  -6.586  -3.205  0.00  0.00    +0.183 C 
BRANCH  36  37
ATOM     37  C   UNL     1       4.335  -6.653  -3.727  0.00  0.00    +0.122 A 
ATOM     38  C   UNL     1       5.361  -5.881  -3.323  0.00  0.00    +0.046 A 
ATOM     39  C   UNL     1       6.493  -6.280  -4.070  0.00  0.00    +0.041 A 
ATOM     40  C   UNL     1       6.092  -7.272  -4.886  0.00  0.00    +0.195 A 
ATOM     41  O   UNL     1       4.786  -7.497  -4.669  0.00  0.00    -0.466 OA
ENDBRANCH  36  37
ENDBRANCH   1  36
TORSDOF 13
