REMARK  Name = ZINC02603883
REMARK  6 active torsions:
REMARK  status: ('A' for Active; 'I' for Inactive)
REMARK    1  A    between atoms: C_1  and  C_2
REMARK    2  A    between atoms: C_2  and  C_3
REMARK    3  A    between atoms: C_3  and  C_4
REMARK    4  A    between atoms: C_4  and  N_5
REMARK    5  A    between atoms: C_13  and  C_16
REMARK    6  A    between atoms: C_20  and  C_22
REMARK                            x       y       z     vdW  Elec       q    Type
REMARK                         _______ _______ _______ _____ _____    ______ ____
ROOT
ATOM      1  N   UNL     1      -0.698   1.558   1.213  0.00  0.00    -0.245 N 
ATOM      2  C   UNL     1      -1.703   0.891   1.866  0.00  0.00    +0.161 A 
ATOM      3  C   UNL     1      -2.071   1.701   2.970  0.00  0.00    +0.061 A 
ATOM      4  C   UNL     1      -3.077   1.283   3.829  0.00  0.00    +0.025 A 
ATOM      5  C   UNL     1      -3.698   0.054   3.564  0.00  0.00    +0.001 A 
ATOM      6  C   UNL     1      -4.725  -0.435   4.392  0.00  0.00    +0.010 A 
ATOM      7  C   UNL     1      -5.307  -1.631   4.108  0.00  0.00    +0.001 A 
ATOM      8  C   UNL     1      -4.898  -2.381   3.005  0.00  0.00    +0.005 A 
ATOM      9  C   UNL     1      -3.909  -1.941   2.183  0.00  0.00    -0.024 A 
ATOM     10  C   UNL     1      -3.280  -0.708   2.441  0.00  0.00    +0.076 A 
ATOM     11  N   UNL     1      -2.308  -0.262   1.644  0.00  0.00    -0.227 NA
ATOM     12  C   UNL     1      -3.486  -2.772   0.998  0.00  0.00    +0.046 C 
ATOM     13  C   UNL     1      -1.211   2.887   2.914  0.00  0.00    +0.156 A 
ATOM     14  N   UNL     1      -0.426   2.756   1.880  0.00  0.00    -0.153 NA
ATOM     15  N   UNL     1      -1.224   3.960   3.810  0.00  0.00    -0.264 N 
ATOM     16  C   UNL     1      -0.373   4.991   3.639  0.00  0.00    +0.251 C 
ATOM     17  O   UNL     1       0.406   4.988   2.706  0.00  0.00    -0.270 OA
ATOM     18  H   UNL     1      -1.929   3.963   4.654  0.00  0.00    +0.157 HD
ENDROOT
BRANCH  16  19
ATOM     19  C   UNL     1      -0.388   6.125   4.586  0.00  0.00    +0.055 A 
ATOM     20  C   UNL     1      -1.286   6.135   5.655  0.00  0.00    +0.014 A 
ATOM     21  C   UNL     1      -1.290   7.194   6.539  0.00  0.00    +0.001 A 
ATOM     22  C   UNL     1      -0.415   8.252   6.361  0.00  0.00    +0.001 A 
ATOM     23  C   UNL     1       0.473   8.253   5.301  0.00  0.00    +0.021 A 
ATOM     24  C   UNL     1       0.493   7.196   4.412  0.00  0.00    +0.053 A 
ATOM     25 CL   UNL     1       1.608   7.199   3.081  0.00  0.00    -0.083 Cl
ENDBRANCH  16  19
BRANCH   1  26
ATOM     26  C   UNL     1      -0.013   1.086   0.008  0.00  0.00    +0.146 C 
BRANCH  26  27
ATOM     27  C   UNL     1      -0.753   1.593  -1.232  0.00  0.00    +0.023 C 
BRANCH  27  29
ATOM     28  C   UNL     1      -0.777   1.606  -3.730  0.00  0.00    +0.004 C 
ATOM     29  C   UNL     1      -0.037   1.099  -2.490  0.00  0.00    -0.002 C 
ENDBRANCH  27  29
ENDBRANCH  26  27
ENDBRANCH   1  26
TORSDOF 4
