REMARK  Name = ZINC33553002
REMARK  9 active torsions:
REMARK  status: ('A' for Active; 'I' for Inactive)
REMARK    1  A    between atoms: C_1  and  C_2
REMARK    2  A    between atoms: C_2  and  C_3
REMARK    3  A    between atoms: C_2  and  C_4
REMARK    4  A    between atoms: C_2  and  N_5
REMARK    5  A    between atoms: C_10  and  C_29
REMARK    6  A    between atoms: C_13  and  C_18
REMARK    7  A    between atoms: C_13  and  C_26
REMARK    8  A    between atoms: C_18  and  C_19
REMARK    9  A    between atoms: C_22  and  O_25
REMARK                            x       y       z     vdW  Elec       q    Type
REMARK                         _______ _______ _______ _____ _____    ______ ____
ROOT
ATOM      1  N   UNL     1       1.285   2.340   0.141  0.00  0.00    -0.236 N 
ATOM      2  C   UNL     1       0.296   1.389   0.130  0.00  0.00    +0.225 C 
ATOM      3  O   UNL     1       0.433   0.184   0.149  0.00  0.00    -0.275 OA
ATOM      4  C   UNL     1      -0.939   2.128   0.083  0.00  0.00    +0.077 C 
ATOM      5  C   UNL     1      -2.383   1.972   0.280  0.00  0.00    -0.026 C 
ATOM      6  N   UNL     1      -2.906   3.372   0.409  0.00  0.00    +0.396 N 
ATOM      7  C   UNL     1      -1.729   4.299   0.383  0.00  0.00    +0.052 C 
ATOM      8  C   UNL     1      -0.585   3.433   0.891  0.00  0.00    +0.086 C 
ATOM      9  C   UNL     1       0.806   3.599   0.374  0.00  0.00    +0.225 C 
ATOM     10  O   UNL     1       1.395   4.644   0.196  0.00  0.00    -0.275 OA
ATOM     11  H   UNL     1      -3.584   3.588  -0.429  0.00  0.00    -0.083 HD
ATOM     12  H   UNL     1      -3.453   3.473   1.358  0.00  0.00    -0.083 HD
ENDROOT
BRANCH   5  13
ATOM     13  C   UNL     1      -2.665   1.188   1.536  0.00  0.00    -0.053 A 
ATOM     14  C   UNL     1      -2.957   1.838   2.696  0.00  0.00    +0.002 A 
ATOM     15  C   UNL     1      -3.221   1.130   3.868  0.00  0.00    +0.001 A 
ATOM     16  C   UNL     1      -3.195  -0.231   3.885  0.00  0.00    +0.008 A 
ATOM     17  C   UNL     1      -2.897  -0.936   2.707  0.00  0.00    -0.018 A 
ATOM     18  C   UNL     1      -2.634  -0.216   1.514  0.00  0.00    -0.016 A 
ATOM     19  C   UNL     1      -2.342  -0.922   0.334  0.00  0.00    +0.009 A 
ATOM     20  C   UNL     1      -2.321  -2.282   0.351  0.00  0.00    +0.001 A 
ATOM     21  C   UNL     1      -2.584  -2.990   1.523  0.00  0.00    +0.001 A 
ATOM     22  C   UNL     1      -2.861  -2.341   2.686  0.00  0.00    +0.008 A 
ENDBRANCH   5  13
BRANCH   1  24
ATOM     23  C   UNL     1       2.875   0.536  -0.303  0.00  0.00    +0.031 C 
ATOM     24  C   UNL     1       2.702   2.039  -0.074  0.00  0.00    +0.036 C 
ATOM     25  C   UNL     1       3.206   2.803  -1.300  0.00  0.00    +0.031 C 
ATOM     26  C   UNL     1       3.506   2.463   1.157  0.00  0.00    +0.031 C 
ENDBRANCH   1  24
BRANCH   7  27
ATOM     27  C   UNL     1      -1.954   5.473   1.301  0.00  0.00    +0.347 C 
ATOM     28  O   UNL     1      -1.049   5.885   1.988  0.00  0.00    -0.248 OA
ATOM     29  O   UNL     1      -3.159   6.061   1.356  0.00  0.00    -0.248 OA
ENDBRANCH   7  27
BRANCH   7  30
ATOM     30  C   UNL     1      -1.452   4.778  -1.043  0.00  0.00    +0.035 C 
BRANCH  30  31
ATOM     31  C   UNL     1      -2.586   5.654  -1.509  0.00  0.00    -0.048 A 
ATOM     32  C   UNL     1      -3.669   5.093  -2.160  0.00  0.00    +0.007 A 
ATOM     33  C   UNL     1      -4.712   5.894  -2.583  0.00  0.00    +0.045 A 
ATOM     34  C   UNL     1      -4.668   7.263  -2.363  0.00  0.00    +0.117 A 
ATOM     35  C   UNL     1      -3.578   7.824  -1.714  0.00  0.00    +0.045 A 
ATOM     36  C   UNL     1      -2.539   7.018  -1.289  0.00  0.00    +0.007 A 
BRANCH  34  37
ATOM     37  O   UNL     1      -5.691   8.053  -2.783  0.00  0.00    -0.507 OA
ATOM     38  H   UNL     1      -5.654   9.139  -2.608  0.00  0.00    +0.292 HD
ENDBRANCH  34  37
ENDBRANCH  30  31
ENDBRANCH   7  30
TORSDOF 6
