REMARK  Name = ZINC41128885
REMARK  2 active torsions:
REMARK  status: ('A' for Active; 'I' for Inactive)
REMARK    1  A    between atoms: C_3  and  C_7
REMARK    2  A    between atoms: C_12  and  C_14
REMARK                            x       y       z     vdW  Elec       q    Type
REMARK                         _______ _______ _______ _____ _____    ______ ____
ROOT
ATOM      1  C   UNL     1       3.572   1.964   1.225  0.00  0.00    +0.219 C 
ATOM      2  O   UNL     1       3.909   2.838   0.455  0.00  0.00    -0.275 OA
ATOM      3  N   UNL     1       4.414   1.561   2.198  0.00  0.00    -0.300 N 
ATOM      4  C   UNL     1       4.180   0.440   3.126  0.00  0.00    +0.108 C 
ATOM      5  C   UNL     1       5.595  -0.002   3.578  0.00  0.00    +0.033 C 
ATOM      6  C   UNL     1       6.331   1.361   3.672  0.00  0.00    +0.093 C 
ATOM      7  C   UNL     1       5.720   2.163   2.504  0.00  0.00    +0.120 C 
ENDROOT
BRANCH   1  10
ATOM      8  C   UNL     1      -0.202   1.752   0.680  0.00  0.00    +0.027 C 
ATOM      9  C   UNL     1       1.194   2.377   0.632  0.00  0.00    +0.017 C 
ATOM     10  C   UNL     1       2.212   1.327   1.095  0.00  0.00    +0.079 C 
ATOM     11  C   UNL     1       2.265   0.211   0.050  0.00  0.00    +0.039 C 
ATOM     12  C   UNL     1       0.876  -0.251  -0.284  0.00  0.00    -0.030 C 
ATOM     13  C   UNL     1      -0.196   0.421  -0.013  0.00  0.00    -0.031 C 
ENDBRANCH   1  10
BRANCH   6  14
ATOM     14  C   UNL     1       7.814   1.180   3.471  0.00  0.00    +0.215 C 
ATOM     15  O   UNL     1       8.370   1.722   2.540  0.00  0.00    -0.276 OA
ATOM     16  N   UNL     1       8.522   0.416   4.327  0.00  0.00    -0.329 N 
ATOM     17  H   UNL     1       8.076  -0.018   5.072  0.00  0.00    +0.145 HD
ATOM     18  H   UNL     1       9.476   0.300   4.198  0.00  0.00    +0.145 HD
ENDBRANCH   6  14
TORSDOF 2
