REMARK  Name = ZINC12886094
REMARK  4 active torsions:
REMARK  status: ('A' for Active; 'I' for Inactive)
REMARK    1  A    between atoms: C_4  and  C_7
REMARK    2  A    between atoms: C_7  and  N_8
REMARK    3  A    between atoms: C_13  and  C_30
REMARK    4  A    between atoms: C_30  and  C_31
REMARK                            x       y       z     vdW  Elec       q    Type
REMARK                         _______ _______ _______ _____ _____    ______ ____
ROOT
ATOM      1  N   UNL     1      -1.117   1.966   0.017  0.00  0.00    -0.237 N 
ATOM      2  C   UNL     1      -0.885   3.284   0.031  0.00  0.00    +0.224 C 
ATOM      3  O   UNL     1      -1.738   4.145   0.041  0.00  0.00    -0.275 OA
ATOM      4  C   UNL     1       0.606   3.531   0.027  0.00  0.00    +0.073 C 
ATOM      5  C   UNL     1       1.016   4.158  -1.322  0.00  0.00    -0.053 C 
ATOM      6  C   UNL     1       1.909   1.999  -1.359  0.00  0.00    +0.050 C 
ATOM      7  C   UNL     1       1.208   2.099   0.002  0.00  0.00    +0.088 C 
ATOM      8  C   UNL     1      -0.014   1.208   0.009  0.00  0.00    +0.225 C 
ATOM      9  O   UNL     1       0.002  -0.004   0.002  0.00  0.00    -0.275 OA
ATOM     10  C   UNL     1       3.385   2.251  -1.239  0.00  0.00    -0.026 A 
ATOM     11  C   UNL     1       4.131   3.319  -0.791  0.00  0.00    +0.004 A 
ATOM     12  C   UNL     1       5.513   3.252  -0.802  0.00  0.00    +0.002 A 
ATOM     13  C   UNL     1       6.143   2.111  -1.265  0.00  0.00    +0.022 A 
ATOM     14  C   UNL     1       5.400   1.039  -1.716  0.00  0.00    +0.062 A 
ATOM     15  C   UNL     1       4.007   1.099  -1.708  0.00  0.00    +0.054 A 
ATOM     16  N   UNL     1       3.051   0.162  -2.108  0.00  0.00    -0.285 N 
ATOM     17  C   UNL     1       1.794   0.615  -1.936  0.00  0.00    +0.211 C 
ATOM     18  O   UNL     1       0.768   0.022  -2.196  0.00  0.00    -0.277 OA
ATOM     19 CL   UNL     1       6.202  -0.387  -2.296  0.00  0.00    -0.082 Cl
ATOM     20  H   UNL     1       3.267  -0.713  -2.467  0.00  0.00    +0.155 HD
ATOM     21  N   UNL     1       1.265   3.003  -2.188  0.00  0.00    +0.394 N 
ATOM     22  H   UNL     1       1.881   3.269  -2.966  0.00  0.00    -0.083 HD
ATOM     23  H   UNL     1       0.380   2.641  -2.561  0.00  0.00    -0.083 HD
ENDROOT
BRANCH   1  24
ATOM     24  C   UNL     1      -2.468   1.399   0.016  0.00  0.00    +0.151 C 
BRANCH  24  28
ATOM     25  C   UNL     1      -3.772   0.815   4.041  0.00  0.00    +0.000 A 
ATOM     26  C   UNL     1      -4.024   2.014   3.400  0.00  0.00    +0.000 A 
ATOM     27  C   UNL     1      -3.602   2.203   2.098  0.00  0.00    +0.005 A 
ATOM     28  C   UNL     1      -2.928   1.194   1.436  0.00  0.00    -0.030 A 
ATOM     29  C   UNL     1      -2.681  -0.007   2.075  0.00  0.00    +0.005 A 
ATOM     30  C   UNL     1      -3.099  -0.194   3.380  0.00  0.00    +0.000 A 
ENDBRANCH  24  28
ENDBRANCH   1  24
BRANCH   5  31
ATOM     31  C   UNL     1      -0.113   5.033  -1.870  0.00  0.00    +0.022 C 
BRANCH  31  32
ATOM     32  C   UNL     1       0.328   5.672  -3.162  0.00  0.00    -0.024 A 
ATOM     33  C   UNL     1       0.860   6.896  -3.307  0.00  0.00    +0.087 A 
ATOM     34  N   UNL     1       1.139   7.130  -4.625  0.00  0.00    -0.360 N 
ATOM     35  H   UNL     1       1.531   7.945  -4.976  0.00  0.00    +0.165 HD
ATOM     36  C   UNL     1       0.777   6.038  -5.382  0.00  0.00    +0.047 A 
ATOM     37  C   UNL     1       0.253   5.077  -4.498  0.00  0.00    +0.003 A 
ATOM     38  C   UNL     1      -0.201   3.852  -4.991  0.00  0.00    +0.010 A 
ATOM     39  C   UNL     1      -0.134   3.593  -6.331  0.00  0.00    +0.001 A 
ATOM     40  C   UNL     1       0.382   4.538  -7.207  0.00  0.00    +0.002 A 
ATOM     41  C   UNL     1       0.836   5.753  -6.742  0.00  0.00    +0.026 A 
ENDBRANCH  31  32
ENDBRANCH   5  31
TORSDOF 4
