REMARK  Name = ZINC36046126
REMARK  13 active torsions:
REMARK  status: ('A' for Active; 'I' for Inactive)
REMARK    1  A    between atoms: C_1  and  C_2
REMARK    2  A    between atoms: C_5  and  C_8
REMARK    3  A    between atoms: N_10  and  C_11
REMARK    4  A    between atoms: N_10  and  C_15
REMARK    5  A    between atoms: C_11  and  C_12
REMARK    6  A    between atoms: C_12  and  C_13
REMARK    7  A    between atoms: C_12  and  C_14
REMARK    8  A    between atoms: C_15  and  C_16
REMARK    9  A    between atoms: C_21  and  C_33
REMARK   10  A    between atoms: N_23  and  C_24
REMARK   11  A    between atoms: C_27  and  C_30
REMARK   12  A    between atoms: C_30  and  C_31
REMARK   13  A    between atoms: C_30  and  C_32
REMARK                            x       y       z     vdW  Elec       q    Type
REMARK                         _______ _______ _______ _____ _____    ______ ____
ROOT
ATOM      1  C   UNL     1       1.722  -6.600   0.961  0.00  0.00    +0.237 C 
ATOM      2  O   UNL     1       2.478  -5.656   0.876  0.00  0.00    -0.274 OA
ATOM      3  N   UNL     1       2.207  -7.857   0.915  0.00  0.00    -0.254 N 
ATOM      4  C   UNL     1       3.571  -8.071   0.770  0.00  0.00    +0.207 A 
ATOM      5  N   UNL     1       4.484  -7.136   0.674  0.00  0.00    -0.214 NA
ATOM      6  C   UNL     1       5.699  -7.712   0.545  0.00  0.00    +0.091 A 
ATOM      7  C   UNL     1       5.530  -9.058   0.563  0.00  0.00    +0.122 A 
ATOM      8  N   UNL     1       4.183  -9.287   0.710  0.00  0.00    -0.287 N 
ATOM      9  H   UNL     1       1.602  -8.613   0.983  0.00  0.00    +0.158 HD
ENDROOT
BRANCH   8  10
ATOM     10  C   UNL     1       3.556 -10.539   0.783  0.00  0.00    +0.049 A 
ATOM     11  C   UNL     1       2.652 -10.806   1.802  0.00  0.00    +0.026 A 
ATOM     12  C   UNL     1       2.035 -12.040   1.871  0.00  0.00    +0.006 A 
ATOM     13  C   UNL     1       2.317 -13.009   0.926  0.00  0.00    -0.045 A 
ATOM     14  C   UNL     1       3.217 -12.746  -0.091  0.00  0.00    +0.006 A 
ATOM     15  C   UNL     1       3.833 -11.512  -0.168  0.00  0.00    +0.026 A 
BRANCH  13  16
ATOM     16  C   UNL     1       1.643 -14.354   1.004  0.00  0.00    +0.013 C 
ATOM     17  C   UNL     1       0.838 -14.596  -0.274  0.00  0.00    +0.012 C 
ATOM     18  C   UNL     1       2.702 -15.448   1.155  0.00  0.00    +0.012 C 
ENDBRANCH  13  16
ENDBRANCH   8  10
BRANCH   6  19
ATOM     19  C   UNL     1       6.992  -6.997   0.408  0.00  0.00    +0.002 A 
ATOM     20  C   UNL     1       8.178  -7.717   0.276  0.00  0.00    +0.010 A 
ATOM     21  C   UNL     1       9.378  -7.047   0.149  0.00  0.00    +0.001 A 
ATOM     22  C   UNL     1       9.405  -5.664   0.153  0.00  0.00    +0.000 A 
ATOM     23  C   UNL     1       8.230  -4.945   0.284  0.00  0.00    +0.001 A 
ATOM     24  C   UNL     1       7.024  -5.604   0.405  0.00  0.00    +0.010 A 
ENDBRANCH   6  19
BRANCH   1  25
ATOM     25  C   UNL     1       0.242  -6.369   1.118  0.00  0.00    +0.204 C 
BRANCH  25  28
ATOM     26  C   UNL     1      -0.360  -4.288   0.002  0.00  0.00    +0.247 C 
ATOM     27  O   UNL     1      -0.525  -3.084   0.009  0.00  0.00    -0.270 OA
ATOM     28  N   UNL     1      -0.028  -4.929   1.140  0.00  0.00    -0.288 N 
BRANCH  26  33
ATOM     29  C   UNL     1      -0.993  -7.253  -4.889  0.00  0.00    +0.044 C 
ATOM     30  C   UNL     1      -0.827  -6.476  -3.608  0.00  0.00    -0.050 A 
ATOM     31  C   UNL     1       0.310  -6.651  -2.840  0.00  0.00    +0.004 A 
ATOM     32  C   UNL     1       0.468  -5.943  -1.666  0.00  0.00    +0.013 A 
ATOM     33  C   UNL     1      -0.522  -5.049  -1.255  0.00  0.00    +0.037 A 
ATOM     34  C   UNL     1      -1.667  -4.878  -2.035  0.00  0.00    +0.013 A 
ATOM     35  C   UNL     1      -1.810  -5.588  -3.209  0.00  0.00    +0.004 A 
ENDBRANCH  26  33
BRANCH  28  36
ATOM     36  C   UNL     1       0.063  -4.186   2.400  0.00  0.00    +0.111 C 
BRANCH  36  37
ATOM     37  C   UNL     1      -1.330  -4.060   3.020  0.00  0.00    +0.000 C 
ATOM     38  C   UNL     1      -1.844  -5.449   3.405  0.00  0.00    +0.009 C 
ATOM     39  C   UNL     1      -1.255  -3.179   4.268  0.00  0.00    +0.009 C 
ENDBRANCH  36  37
ENDBRANCH  28  36
ENDBRANCH  25  28
ENDBRANCH   1  25
TORSDOF 8
