REMARK  Name = ZINC36358912
REMARK  3 active torsions:
REMARK  status: ('A' for Active; 'I' for Inactive)
REMARK    1  A    between atoms: C_3  and  C_17
REMARK    2  A    between atoms: C_7  and  N_16
REMARK    3  A    between atoms: C_8  and  C_10
REMARK                            x       y       z     vdW  Elec       q    Type
REMARK                         _______ _______ _______ _____ _____    ______ ____
ROOT
ATOM      1  C   UNL     1      -0.024   1.379   0.424  0.00  0.00    +0.014 A 
ATOM      2  C   UNL     1       1.150   2.038   0.641  0.00  0.00    +0.029 A 
ATOM      3  C   UNL     1       2.362   1.341   0.648  0.00  0.00    +0.072 A 
ATOM      4  N   UNL     1       2.380   0.030   0.442  0.00  0.00    -0.239 NA
ATOM      5  C   UNL     1       1.272  -0.640   0.230  0.00  0.00    +0.111 A 
ATOM      6  C   UNL     1      -0.001  -0.021   0.205  0.00  0.00    +0.029 A 
ATOM      7  C   UNL     1      -1.116  -0.920  -0.046  0.00  0.00    +0.049 A 
ATOM      8  C   UNL     1      -0.861  -2.244  -0.231  0.00  0.00    +0.043 A 
ATOM      9  S   UNL     1       0.911  -2.352  -0.077  0.00  0.00    -0.067 S 
ENDROOT
BRANCH   8  10
ATOM     10  C   UNL     1      -1.822  -3.330  -0.495  0.00  0.00    -0.007 A 
ATOM     11  C   UNL     1      -2.821  -3.188  -1.469  0.00  0.00    +0.029 A 
ATOM     12  C   UNL     1      -3.697  -4.229  -1.683  0.00  0.00    +0.111 A 
ATOM     13  N   UNL     1      -3.606  -5.347  -0.986  0.00  0.00    -0.263 NA
ATOM     14  C   UNL     1      -2.682  -5.523  -0.060  0.00  0.00    +0.111 A 
ATOM     15  C   UNL     1      -1.760  -4.537   0.216  0.00  0.00    +0.029 A 
ENDBRANCH   8  10
BRANCH   3  16
ATOM     16  C   UNL     1       3.631   2.070   0.885  0.00  0.00    +0.003 A 
ATOM     17  C   UNL     1       3.636   3.450   1.109  0.00  0.00    +0.030 A 
ATOM     18  C   UNL     1       4.840   4.088   1.325  0.00  0.00    +0.111 A 
ATOM     19  N   UNL     1       5.974   3.415   1.322  0.00  0.00    -0.263 NA
ATOM     20  C   UNL     1       6.013   2.112   1.114  0.00  0.00    +0.111 A 
ATOM     21  C   UNL     1       4.855   1.395   0.896  0.00  0.00    +0.030 A 
ENDBRANCH   3  16
BRANCH   7  22
ATOM     22  N   UNL     1      -2.427  -0.434  -0.095  0.00  0.00    -0.357 N 
ATOM     23  H   UNL     1      -2.591   0.521  -0.052  0.00  0.00    +0.142 HD
ATOM     24  H   UNL     1      -3.171  -1.051  -0.172  0.00  0.00    +0.142 HD
ENDBRANCH   7  22
TORSDOF 3
