REMARK  Name = ZINC23449391
REMARK  8 active torsions:
REMARK  status: ('A' for Active; 'I' for Inactive)
REMARK    1  A    between atoms: C_4  and  C_7
REMARK    2  A    between atoms: C_7  and  N_8
REMARK    3  A    between atoms: C_9  and  C_28
REMARK    4  A    between atoms: C_12  and  S_13
REMARK    5  A    between atoms: S_13  and  C_14
REMARK    6  A    between atoms: C_14  and  C_15
REMARK    7  A    between atoms: N_17  and  C_18
REMARK    8  A    between atoms: C_20  and  N_25
REMARK                            x       y       z     vdW  Elec       q    Type
REMARK                         _______ _______ _______ _____ _____    ______ ____
ROOT
ATOM      1  N   UNL     1       4.192  -0.976   1.318  0.00  0.00    -0.297 N 
ATOM      2  C   UNL     1       4.981  -0.160   2.097  0.00  0.00    +0.172 A 
ATOM      3  N   UNL     1       5.130  -0.761   3.257  0.00  0.00    -0.128 NA
ATOM      4  N   UNL     1       4.498  -1.880   3.255  0.00  0.00    -0.122 NA
ATOM      5  C   UNL     1       3.901  -2.061   2.099  0.00  0.00    +0.193 A 
ENDROOT
BRANCH   2   6
ATOM      6  C   UNL     1       5.550   1.140   1.706  0.00  0.00    +0.056 A 
ATOM      7  C   UNL     1       6.103   2.115   2.496  0.00  0.00    +0.019 A 
ATOM      8  C   UNL     1       6.576   3.262   1.898  0.00  0.00    +0.008 A 
ATOM      9  C   UNL     1       6.481   3.393   0.550  0.00  0.00    +0.046 A 
ATOM     10  S   UNL     1       5.708   1.855   0.077  0.00  0.00    -0.094 S 
ENDBRANCH   2   6
BRANCH   1  11
ATOM     11  C   UNL     1       3.751  -0.732  -0.058  0.00  0.00    +0.161 C 
BRANCH  11  15
ATOM     12  C   UNL     1       0.039   1.382  -0.010  0.00  0.00    +0.000 A 
ATOM     13  C   UNL     1       1.232   2.081  -0.022  0.00  0.00    +0.000 A 
ATOM     14  C   UNL     1       2.433   1.397  -0.037  0.00  0.00    +0.005 A 
ATOM     15  C   UNL     1       2.441   0.014  -0.040  0.00  0.00    -0.028 A 
ATOM     16  C   UNL     1       1.248  -0.684  -0.028  0.00  0.00    +0.005 A 
ATOM     17  C   UNL     1       0.047   0.000  -0.014  0.00  0.00    +0.000 A 
ENDBRANCH  11  15
ENDBRANCH   1  11
BRANCH   5  18
ATOM     18  S   UNL     1       2.914  -3.446   1.637  0.00  0.00    -0.077 S 
BRANCH  18  19
ATOM     19  C   UNL     1       2.930  -4.505   3.110  0.00  0.00    +0.173 C 
BRANCH  19  20
ATOM     20  C   UNL     1       2.111  -5.743   2.847  0.00  0.00    +0.228 C 
ATOM     21  O   UNL     1       1.570  -5.895   1.772  0.00  0.00    -0.275 OA
ATOM     22  N   UNL     1       1.979  -6.680   3.806  0.00  0.00    -0.282 N 
ATOM     23  H   UNL     1       2.464  -6.591   4.641  0.00  0.00    +0.155 HD
BRANCH  22  24
ATOM     24  C   UNL     1       1.144  -7.784   3.596  0.00  0.00    +0.071 A 
ATOM     25  C   UNL     1       1.023  -8.335   2.327  0.00  0.00    +0.059 A 
ATOM     26  C   UNL     1       0.199  -9.424   2.123  0.00  0.00    +0.128 A 
ATOM     27  C   UNL     1      -0.508  -9.967   3.181  0.00  0.00    +0.035 A 
ATOM     28  C   UNL     1      -0.392  -9.422   4.447  0.00  0.00    +0.042 A 
ATOM     29  C   UNL     1       0.437  -8.335   4.659  0.00  0.00    +0.145 A 
ATOM     30  F   UNL     1       0.555  -7.806   5.897  0.00  0.00    -0.204 F 
BRANCH  26  31
ATOM     31  N   UNL     1       0.070 -10.011   0.770  0.00  0.00    +0.056 N 
ATOM     32  O   UNL     1       0.687  -9.536  -0.155  0.00  0.00    -0.126 OA
ATOM     33  O   UNL     1      -0.651 -10.964   0.591  0.00  0.00    -0.126 OA
ENDBRANCH  26  31
ENDBRANCH  22  24
ENDBRANCH  19  20
ENDBRANCH  18  19
ENDBRANCH   5  18
TORSDOF 8
