REMARK  Name = ZINC41585389
REMARK  9 active torsions:
REMARK  status: ('A' for Active; 'I' for Inactive)
REMARK    1  A    between atoms: C_1  and  C_2
REMARK    2  A    between atoms: C_2  and  O_3
REMARK    3  A    between atoms: O_3  and  C_4
REMARK    4  A    between atoms: C_9  and  C_10
REMARK    5  A    between atoms: C_15  and  C_36
REMARK    6  A    between atoms: C_17  and  O_35
REMARK    7  A    between atoms: C_18  and  C_21
REMARK    8  A    between atoms: C_21  and  N_22
REMARK    9  A    between atoms: N_25  and  C_28
REMARK                            x       y       z     vdW  Elec       q    Type
REMARK                         _______ _______ _______ _____ _____    ______ ____
ROOT
ATOM      1  C   UNL     1      -3.969  -1.535   0.031  0.00  0.00    +0.061 C 
ATOM      2  C   UNL     1      -5.211  -2.075  -0.062  0.00  0.00    +0.176 C 
ATOM      3  C   UNL     1      -6.475  -1.333  -0.170  0.00  0.00    +0.232 C 
ATOM      4  O   UNL     1      -6.631  -0.124  -0.194  0.00  0.00    -0.283 OA
ATOM      5  C   UNL     1      -7.513  -2.377  -0.242  0.00  0.00    +0.071 A 
ATOM      6  C   UNL     1      -8.903  -2.336  -0.353  0.00  0.00    -0.033 A 
ATOM      7  C   UNL     1      -9.618  -3.499  -0.398  0.00  0.00    +0.050 A 
ATOM      8  C   UNL     1      -8.962  -4.726  -0.334  0.00  0.00    +0.122 A 
ATOM      9  C   UNL     1      -7.582  -4.782  -0.224  0.00  0.00    +0.020 A 
ATOM     10  C   UNL     1      -6.840  -3.608  -0.177  0.00  0.00    +0.145 A 
ATOM     11  O   UNL     1      -5.510  -3.396  -0.080  0.00  0.00    -0.451 OA
ATOM     12  C   UNL     1      -9.615  -1.010  -0.421  0.00  0.00    +0.045 C 
ENDROOT
BRANCH   1  18
ATOM     13  C   UNL     1      -1.521  -1.851  -0.299  0.00  0.00    +0.128 A 
ATOM     14  C   UNL     1      -0.410  -2.678  -0.350  0.00  0.00    +0.046 A 
ATOM     15  C   UNL     1      -0.548  -4.037  -0.145  0.00  0.00    +0.004 A 
ATOM     16  C   UNL     1      -1.794  -4.585   0.114  0.00  0.00    +0.001 A 
ATOM     17  C   UNL     1      -2.911  -3.780   0.169  0.00  0.00    +0.011 A 
ATOM     18  C   UNL     1      -2.786  -2.400  -0.032  0.00  0.00    +0.020 A 
BRANCH  13  19
ATOM     19  O   UNL     1      -1.386  -0.515  -0.501  0.00  0.00    -0.492 OA
BRANCH  19  21
ATOM     20  C   UNL     1      -0.116   1.487  -0.966  0.00  0.00    +0.048 C 
ATOM     21  C   UNL     1      -0.069  -0.029  -0.768  0.00  0.00    +0.226 C 
ENDBRANCH  19  21
ENDBRANCH  13  19
ENDBRANCH   1  18
BRANCH   8  22
ATOM     22  O   UNL     1      -9.680  -5.877  -0.379  0.00  0.00    -0.506 OA
ATOM     23  H   UNL     1      -9.819  -6.219  -1.273  0.00  0.00    +0.292 HD
ENDBRANCH   8  22
BRANCH   9  24
ATOM     24  C   UNL     1      -6.885  -6.117  -0.154  0.00  0.00    -0.035 C 
BRANCH  24  25
ATOM     25  N   UNL     1      -6.550  -6.565  -1.512  0.00  0.00    +0.385 N 
ATOM     26  C   UNL     1      -7.786  -6.800  -2.268  0.00  0.00    -0.059 C 
ATOM     27  C   UNL     1      -7.438  -7.156  -3.717  0.00  0.00    +0.086 C 
ATOM     28  N   UNL     1      -6.508  -8.296  -3.707  0.00  0.00    -0.331 N 
ATOM     29  C   UNL     1      -5.318  -8.211  -2.845  0.00  0.00    +0.086 C 
ATOM     30  C   UNL     1      -5.767  -7.805  -1.437  0.00  0.00    -0.059 C 
ATOM     31  H   UNL     1      -6.005  -5.853  -1.975  0.00  0.00    -0.081 HD
BRANCH  28  32
ATOM     32  C   UNL     1      -6.747  -9.427  -4.493  0.00  0.00    +0.065 A 
ATOM     33  C   UNL     1      -6.243  -9.496  -5.785  0.00  0.00    +0.026 A 
ATOM     34  C   UNL     1      -6.481 -10.615  -6.559  0.00  0.00    +0.002 A 
ATOM     35  C   UNL     1      -7.220 -11.666  -6.050  0.00  0.00    +0.003 A 
ATOM     36  C   UNL     1      -7.725 -11.602  -4.764  0.00  0.00    +0.040 A 
ATOM     37  C   UNL     1      -7.486 -10.488  -3.981  0.00  0.00    +0.144 A 
ATOM     38  F   UNL     1      -7.974 -10.428  -2.723  0.00  0.00    -0.204 F 
ENDBRANCH  28  32
ENDBRANCH  24  25
ENDBRANCH   9  24
TORSDOF 7
