REMARK  Name = ZINC14162287
REMARK  15 active torsions:
REMARK  status: ('A' for Active; 'I' for Inactive)
REMARK    1  A    between atoms: C_1  and  C_2
REMARK    2  A    between atoms: C_2  and  N_3
REMARK    3  A    between atoms: N_3  and  C_4
REMARK    4  A    between atoms: N_3  and  S_6
REMARK    5  A    between atoms: C_4  and  C_5
REMARK    6  A    between atoms: S_6  and  C_9
REMARK    7  A    between atoms: C_12  and  N_15
REMARK    8  A    between atoms: C_16  and  C_18
REMARK    9  A    between atoms: C_18  and  N_19
REMARK   10  A    between atoms: C_22  and  C_26
REMARK   11  A    between atoms: C_22  and  C_27
REMARK   12  A    between atoms: C_30  and  C_33
REMARK   13  A    between atoms: C_33  and  C_34
REMARK   14  A    between atoms: C_33  and  C_35
REMARK   15  A    between atoms: C_33  and  C_36
REMARK                            x       y       z     vdW  Elec       q    Type
REMARK                         _______ _______ _______ _____ _____    ______ ____
ROOT
ATOM      1  C   UNL     1       0.199   3.459  -3.138  0.00  0.00    +0.214 C 
ENDROOT
BRANCH   1   2
ATOM      2  N   UNL     1       0.352   2.759  -1.860  0.00  0.00    -0.215 N 
ATOM      3  C   UNL     1      -0.617   2.027  -1.277  0.00  0.00    +0.251 C 
ATOM      4  O   UNL     1      -1.738   1.831  -1.695  0.00  0.00    -0.272 OA
ATOM      5  C   UNL     1      -0.015   1.500   0.010  0.00  0.00    +0.135 C 
ATOM      6  N   UNL     1       1.353   2.047   0.001  0.00  0.00    -0.281 N 
ATOM      7  C   UNL     1       1.472   2.767  -1.129  0.00  0.00    +0.310 C 
ATOM      8  O   UNL     1       2.485   3.359  -1.449  0.00  0.00    -0.252 OA
ATOM      9  C   UNL     1      -0.792   2.014   1.223  0.00  0.00    +0.047 C 
ATOM     10  H   UNL     1       2.035   1.913   0.678  0.00  0.00    +0.152 HD
BRANCH   5  11
ATOM     11  C   UNL     1       0.017  -0.007   0.002  0.00  0.00    -0.015 A 
ATOM     12  C   UNL     1      -0.998  -0.716  -0.613  0.00  0.00    +0.006 A 
ATOM     13  C   UNL     1      -0.967  -2.098  -0.624  0.00  0.00    +0.004 A 
ATOM     14  C   UNL     1       0.074  -2.771  -0.012  0.00  0.00    -0.042 A 
ATOM     15  C   UNL     1       1.086  -2.062   0.607  0.00  0.00    +0.004 A 
ATOM     16  C   UNL     1       1.058  -0.680   0.615  0.00  0.00    +0.006 A 
BRANCH  14  17
ATOM     17  C   UNL     1       0.105  -4.277  -0.019  0.00  0.00    -0.013 C 
ATOM     18  C   UNL     1       0.092  -4.795   1.420  0.00  0.00    +0.015 C 
ATOM     19  C   UNL     1      -1.121  -4.809  -0.764  0.00  0.00    +0.015 C 
ATOM     20  C   UNL     1       1.377  -4.758  -0.722  0.00  0.00    +0.015 C 
ENDBRANCH  14  17
ENDBRANCH   5  11
ENDBRANCH   1   2
BRANCH   1  22
ATOM     21  N   UNL     1       0.546   2.975  -5.539  0.00  0.00    -0.284 N 
ATOM     22  C   UNL     1       0.605   2.543  -4.264  0.00  0.00    +0.235 C 
ATOM     23  O   UNL     1       0.984   1.416  -4.023  0.00  0.00    -0.274 OA
ATOM     24  H   UNL     1       0.179   3.851  -5.738  0.00  0.00    +0.155 HD
BRANCH  21  28
ATOM     25  C   UNL     1       1.937   0.550  -8.628  0.00  0.00    +0.106 A 
ATOM     26  C   UNL     1       1.318  -0.019  -7.530  0.00  0.00    +0.030 A 
ATOM     27  C   UNL     1       0.855   0.783  -6.504  0.00  0.00    +0.025 A 
ATOM     28  C   UNL     1       1.013   2.161  -6.577  0.00  0.00    +0.034 A 
ATOM     29  C   UNL     1       1.630   2.729  -7.684  0.00  0.00    +0.025 A 
ATOM     30  C   UNL     1       2.095   1.921  -8.703  0.00  0.00    +0.030 A 
BRANCH  25  31
ATOM     31  S   UNL     1       2.525  -0.476  -9.934  0.00  0.00    +0.061 S 
ATOM     32  O   UNL     1       3.552   0.253 -10.592  0.00  0.00    -0.153 OA
ATOM     33  O   UNL     1       2.744  -1.763  -9.373  0.00  0.00    -0.153 OA
BRANCH  31  34
ATOM     34  N   UNL     1       1.288  -0.639 -11.023  0.00  0.00    -0.177 NA
BRANCH  34  36
ATOM     35  C   UNL     1       1.838  -0.246 -13.374  0.00  0.00    +0.022 C 
ATOM     36  C   UNL     1       1.153   0.315 -12.126  0.00  0.00    +0.106 C 
ENDBRANCH  34  36
BRANCH  34  37
ATOM     37  C   UNL     1       0.330  -1.738 -10.884  0.00  0.00    +0.106 C 
ATOM     38  C   UNL     1      -0.899  -1.249 -10.115  0.00  0.00    +0.022 C 
ENDBRANCH  34  37
ENDBRANCH  31  34
ENDBRANCH  25  31
ENDBRANCH  21  28
ENDBRANCH   1  22
TORSDOF 9
