REMARK  Name = ZINC05383699
REMARK  18 active torsions:
REMARK  status: ('A' for Active; 'I' for Inactive)
REMARK    1  A    between atoms: C_1  and  C_2
REMARK    2  A    between atoms: C_2  and  C_3
REMARK    3  A    between atoms: C_2  and  C_4
REMARK    4  A    between atoms: C_2  and  C_5
REMARK    5  A    between atoms: C_5  and  C_7
REMARK    6  A    between atoms: C_5  and  O_27
REMARK    7  A    between atoms: C_9  and  C_20
REMARK    8  A    between atoms: C_11  and  C_13
REMARK    9  A    between atoms: C_13  and  C_15
REMARK   10  A    between atoms: C_13  and  O_19
REMARK   11  A    between atoms: C_15  and  C_16
REMARK   12  A    between atoms: C_15  and  C_17
REMARK   13  A    between atoms: C_15  and  C_18
REMARK   14  A    between atoms: C_20  and  C_22
REMARK   15  A    between atoms: C_20  and  O_26
REMARK   16  A    between atoms: C_22  and  C_23
REMARK   17  A    between atoms: C_22  and  C_24
REMARK   18  A    between atoms: C_22  and  C_25
REMARK                            x       y       z     vdW  Elec       q    Type
REMARK                         _______ _______ _______ _____ _____    ______ ____
ROOT
ATOM      1  C   UNL     1      -0.103   0.912   0.057  0.00  0.00    -0.018 A 
ATOM      2  C   UNL     1       0.979   1.767   0.156  0.00  0.00    +0.012 A 
ATOM      3  C   UNL     1       2.264   1.272   0.028  0.00  0.00    -0.018 A 
ATOM      4  C   UNL     1       2.466  -0.076  -0.196  0.00  0.00    +0.012 A 
ATOM      5  C   UNL     1       1.384  -0.931  -0.295  0.00  0.00    -0.018 A 
ATOM      6  C   UNL     1       0.099  -0.436  -0.169  0.00  0.00    +0.012 A 
ENDROOT
BRANCH   1   7
ATOM      7  C   UNL     1      -1.504   1.452   0.188  0.00  0.00    +0.150 C 
BRANCH   7   9
ATOM      8  C   UNL     1      -2.059   0.761  -2.148  0.00  0.00    +0.013 C 
ATOM      9  C   UNL     1      -1.992   1.942  -1.177  0.00  0.00    -0.008 C 
ATOM     10  C   UNL     1      -3.384   2.560  -1.030  0.00  0.00    +0.013 C 
ATOM     11  C   UNL     1      -1.021   2.993  -1.719  0.00  0.00    +0.013 C 
ENDBRANCH   7   9
BRANCH   7  12
ATOM     12  O   UNL     1      -1.510   2.541   1.114  0.00  0.00    -0.387 OA
ATOM     13  H   UNL     1      -0.942   3.280   0.856  0.00  0.00    +0.210 HD
ENDBRANCH   7  12
ENDBRANCH   1   7
BRANCH   5  14
ATOM     14  C   UNL     1       1.605  -2.401  -0.539  0.00  0.00    +0.150 C 
BRANCH  14  15
ATOM     15  C   UNL     1       1.876  -2.636  -2.026  0.00  0.00    -0.008 C 
ATOM     16  C   UNL     1       3.124  -1.857  -2.446  0.00  0.00    +0.013 C 
ATOM     17  C   UNL     1       2.100  -4.129  -2.274  0.00  0.00    +0.013 C 
ATOM     18  C   UNL     1       0.676  -2.158  -2.845  0.00  0.00    +0.013 C 
ENDBRANCH  14  15
BRANCH  14  19
ATOM     19  O   UNL     1       2.726  -2.849   0.226  0.00  0.00    -0.387 OA
ATOM     20  H   UNL     1       3.553  -2.396   0.012  0.00  0.00    +0.210 HD
ENDBRANCH  14  19
ENDBRANCH   5  14
BRANCH   3  21
ATOM     21  C   UNL     1       3.443   2.204   0.135  0.00  0.00    +0.150 C 
BRANCH  21  22
ATOM     22  C   UNL     1       3.974   2.192   1.570  0.00  0.00    -0.008 C 
ATOM     23  C   UNL     1       4.445   0.781   1.928  0.00  0.00    +0.013 C 
ATOM     24  C   UNL     1       5.146   3.167   1.689  0.00  0.00    +0.013 C 
ATOM     25  C   UNL     1       2.859   2.616   2.529  0.00  0.00    +0.013 C 
ENDBRANCH  21  22
BRANCH  21  26
ATOM     26  O   UNL     1       4.473   1.773  -0.757  0.00  0.00    -0.387 OA
ATOM     27  H   UNL     1       4.798   0.879  -0.580  0.00  0.00    +0.210 HD
ENDBRANCH  21  26
ENDBRANCH   3  21
TORSDOF 9
