REMARK  Name = ZINC39461463
REMARK  11 active torsions:
REMARK  status: ('A' for Active; 'I' for Inactive)
REMARK    1  A    between atoms: C_1  and  C_2
REMARK    2  A    between atoms: C_2  and  C_4
REMARK    3  A    between atoms: C_2  and  N_16
REMARK    4  A    between atoms: C_7  and  C_10
REMARK    5  A    between atoms: N_16  and  C_17
REMARK    6  A    between atoms: N_16  and  C_18
REMARK    7  A    between atoms: C_18  and  C_19
REMARK    8  A    between atoms: N_27  and  C_30
REMARK    9  A    between atoms: C_30  and  C_31
REMARK   10  A    between atoms: C_35  and  O_37
REMARK   11  A    between atoms: O_37  and  C_38
REMARK                            x       y       z     vdW  Elec       q    Type
REMARK                         _______ _______ _______ _____ _____    ______ ____
ROOT
ATOM      1  C   UNL     1       2.064  -2.341   1.990  0.00  0.00    +0.001 A 
ATOM      2  C   UNL     1       1.540  -2.911   3.104  0.00  0.00    +0.017 A 
ATOM      3  C   UNL     1       2.454  -3.364   4.153  0.00  0.00    -0.001 A 
ATOM      4  C   UNL     1       1.972  -3.960   5.324  0.00  0.00    +0.013 A 
ATOM      5  C   UNL     1       2.850  -4.372   6.285  0.00  0.00    +0.039 A 
ATOM      6  C   UNL     1       4.220  -4.205   6.111  0.00  0.00    +0.125 A 
ATOM      7  C   UNL     1       4.716  -3.619   4.963  0.00  0.00    +0.064 A 
ATOM      8  C   UNL     1       3.840  -3.193   3.972  0.00  0.00    +0.055 A 
ATOM      9  N   UNL     1       4.309  -2.606   2.816  0.00  0.00    -0.304 N 
ATOM     10  C   UNL     1       3.461  -2.198   1.855  0.00  0.00    +0.253 A 
ATOM     11  O   UNL     1       3.911  -1.688   0.843  0.00  0.00    -0.267 OA
ATOM     12  F   UNL     1       5.072  -4.620   7.073  0.00  0.00    -0.205 F 
ENDROOT
BRANCH   1  13
ATOM     13  C   UNL     1       1.151  -1.864   0.890  0.00  0.00    -0.037 C 
BRANCH  13  14
ATOM     14  N   UNL     1       0.881  -0.431   1.065  0.00  0.00    +0.384 N 
ATOM     15  C   UNL     1       0.129  -0.223   2.310  0.00  0.00    -0.095 C 
ATOM     16  H   UNL     1       1.754   0.073   1.112  0.00  0.00    -0.081 HD
BRANCH  14  18
ATOM     17  C   UNL     1      -0.120   1.570   0.069  0.00  0.00    -0.011 C 
ATOM     18  C   UNL     1       0.092   0.061  -0.072  0.00  0.00    -0.049 C 
BRANCH  18  19
ATOM     19  C   UNL     1       0.839  -0.229  -1.375  0.00  0.00    +0.081 C 
ATOM     20  C   UNL     1       2.212   0.473  -1.381  0.00  0.00    +0.079 C 
ATOM     21  C   UNL     1       2.132   1.419  -2.558  0.00  0.00    +0.068 C 
ATOM     22  N   UNL     1       0.980   1.307  -3.122  0.00  0.00    -0.191 NA
ATOM     23  N   UNL     1       0.137   0.371  -2.520  0.00  0.00    -0.267 N 
ATOM     24  H   UNL     1      -0.764   0.152  -2.807  0.00  0.00    +0.168 HD
BRANCH  21  25
ATOM     25  C   UNL     1       3.208   2.329  -2.992  0.00  0.00    -0.002 A 
ATOM     26  C   UNL     1       4.423   2.360  -2.302  0.00  0.00    +0.010 A 
ATOM     27  C   UNL     1       5.425   3.214  -2.714  0.00  0.00    +0.001 A 
ATOM     28  C   UNL     1       5.229   4.039  -3.807  0.00  0.00    +0.000 A 
ATOM     29  C   UNL     1       4.029   4.014  -4.495  0.00  0.00    +0.001 A 
ATOM     30  C   UNL     1       3.020   3.161  -4.098  0.00  0.00    +0.010 A 
ENDBRANCH  21  25
ENDBRANCH  18  19
ENDBRANCH  14  18
ENDBRANCH  13  14
ENDBRANCH   1  13
BRANCH   9  31
ATOM     31  C   UNL     1       5.751  -2.429   2.629  0.00  0.00    +0.160 C 
BRANCH  31  32
ATOM     32  C   UNL     1       6.322  -3.646   1.948  0.00  0.00    -0.024 A 
ATOM     33  C   UNL     1       6.779  -4.710   2.704  0.00  0.00    +0.005 A 
ATOM     34  C   UNL     1       7.304  -5.828   2.082  0.00  0.00    +0.004 A 
ATOM     35  C   UNL     1       7.374  -5.884   0.703  0.00  0.00    +0.045 A 
ATOM     36  C   UNL     1       6.916  -4.818  -0.057  0.00  0.00    +0.120 A 
ATOM     37  C   UNL     1       6.384  -3.700   0.569  0.00  0.00    +0.051 A 
BRANCH  36  38
ATOM     38  O   UNL     1       6.984  -4.871  -1.413  0.00  0.00    -0.495 OA
ATOM     39  C   UNL     1       7.537  -6.055  -1.990  0.00  0.00    +0.277 C 
ENDBRANCH  36  38
ENDBRANCH  31  32
ENDBRANCH   9  31
TORSDOF 8
