REMARK  Name = ZINC00661095
REMARK  11 active torsions:
REMARK  status: ('A' for Active; 'I' for Inactive)
REMARK    1  A    between atoms: C_1  and  C_2
REMARK    2  A    between atoms: C_2  and  N_3
REMARK    3  A    between atoms: C_4  and  C_23
REMARK    4  A    between atoms: C_7  and  S_8
REMARK    5  A    between atoms: S_8  and  C_9
REMARK    6  A    between atoms: C_9  and  C_10
REMARK    7  A    between atoms: N_12  and  C_13
REMARK    8  A    between atoms: C_23  and  C_25
REMARK    9  A    between atoms: C_23  and  N_26
REMARK   10  A    between atoms: C_27  and  C_29
REMARK   11  A    between atoms: C_32  and  C_35
REMARK                            x       y       z     vdW  Elec       q    Type
REMARK                         _______ _______ _______ _____ _____    ______ ____
ROOT
ATOM      1  N   UNL     1      -0.389   0.717  -4.051  0.00  0.00    -0.305 N 
ATOM      2  C   UNL     1       0.682   0.113  -4.651  0.00  0.00    +0.154 A 
ATOM      3  N   UNL     1       1.514  -0.227  -3.707  0.00  0.00    -0.132 NA
ATOM      4  N   UNL     1       1.049   0.124  -2.562  0.00  0.00    -0.122 NA
ATOM      5  C   UNL     1      -0.119   0.703  -2.713  0.00  0.00    +0.192 A 
ENDROOT
BRANCH   1   7
ATOM      6  C   UNL     1      -1.336   2.735  -5.057  0.00  0.00    +0.027 C 
ATOM      7  C   UNL     1      -1.578   1.265  -4.709  0.00  0.00    +0.122 C 
ENDBRANCH   1   7
BRANCH   2   8
ATOM      8  C   UNL     1       0.865  -0.118  -6.129  0.00  0.00    +0.138 C 
ATOM      9  C   UNL     1       0.623  -1.595  -6.448  0.00  0.00    +0.036 C 
BRANCH   8  10
ATOM     10  N   UNL     1       2.230   0.248  -6.515  0.00  0.00    -0.302 N 
ATOM     11  C   UNL     1       2.496   0.612  -7.785  0.00  0.00    +0.245 C 
ATOM     12  O   UNL     1       1.604   0.637  -8.610  0.00  0.00    -0.270 OA
ATOM     13  H   UNL     1       2.942   0.228  -5.856  0.00  0.00    +0.150 HD
BRANCH  11  14
ATOM     14  C   UNL     1       3.874   0.982  -8.174  0.00  0.00    +0.037 A 
ATOM     15  C   UNL     1       4.900   0.960  -7.228  0.00  0.00    +0.013 A 
ATOM     16  C   UNL     1       6.184   1.301  -7.599  0.00  0.00    +0.004 A 
ATOM     17  C   UNL     1       6.454   1.675  -8.903  0.00  0.00    -0.050 A 
ATOM     18  C   UNL     1       5.441   1.704  -9.845  0.00  0.00    +0.004 A 
ATOM     19  C   UNL     1       4.153   1.360  -9.488  0.00  0.00    +0.013 A 
ATOM     20  C   UNL     1       7.858   2.052  -9.300  0.00  0.00    +0.044 C 
ENDBRANCH  11  14
ENDBRANCH   8  10
ENDBRANCH   2   8
BRANCH   5  21
ATOM     21  S   UNL     1      -1.143   1.347  -1.431  0.00  0.00    -0.077 S 
BRANCH  21  22
ATOM     22  C   UNL     1      -0.123   0.957   0.012  0.00  0.00    +0.173 C 
BRANCH  22  23
ATOM     23  C   UNL     1      -0.819   1.430   1.262  0.00  0.00    +0.227 C 
ATOM     24  O   UNL     1      -1.899   1.977   1.185  0.00  0.00    -0.275 OA
ATOM     25  N   UNL     1      -0.242   1.246   2.466  0.00  0.00    -0.285 N 
ATOM     26  H   UNL     1       0.584   0.742   2.536  0.00  0.00    +0.155 HD
BRANCH  25  27
ATOM     27  C   UNL     1      -0.833   1.782   3.615  0.00  0.00    +0.034 A 
ATOM     28  C   UNL     1      -1.517   3.001   3.537  0.00  0.00    +0.024 A 
ATOM     29  C   UNL     1      -2.106   3.542   4.636  0.00  0.00    +0.010 A 
ATOM     30  C   UNL     1      -2.022   2.881   5.874  0.00  0.00    -0.018 A 
ATOM     31  C   UNL     1      -2.615   3.420   7.028  0.00  0.00    +0.008 A 
ATOM     32  C   UNL     1      -2.516   2.755   8.211  0.00  0.00    +0.001 A 
ATOM     33  C   UNL     1      -1.832   1.543   8.298  0.00  0.00    +0.001 A 
ATOM     34  C   UNL     1      -1.244   0.991   7.202  0.00  0.00    +0.008 A 
ATOM     35  C   UNL     1      -1.327   1.649   5.962  0.00  0.00    -0.016 A 
ATOM     36  C   UNL     1      -0.732   1.107   4.811  0.00  0.00    +0.031 A 
ENDBRANCH  25  27
ENDBRANCH  22  23
ENDBRANCH  21  22
ENDBRANCH   5  21
TORSDOF 8
