REMARK  Name = ZINC02649676
REMARK  6 active torsions:
REMARK  status: ('A' for Active; 'I' for Inactive)
REMARK    1  A    between atoms: C_1  and  C_2
REMARK    2  A    between atoms: C_5  and  N_9
REMARK    3  A    between atoms: C_10  and  C_12
REMARK    4  A    between atoms: C_12  and  S_13
REMARK    5  A    between atoms: S_13  and  C_14
REMARK    6  A    between atoms: C_18  and  N_20
REMARK                            x       y       z     vdW  Elec       q    Type
REMARK                         _______ _______ _______ _____ _____    ______ ____
ROOT
ATOM      1  C   UNL     1       6.036  -0.782  -0.569  0.00  0.00    +0.173 C 
ENDROOT
BRANCH   1   3
ATOM      2  N   UNL     1       3.623  -0.651  -0.037  0.00  0.00    -0.283 N 
ATOM      3  C   UNL     1       4.742  -0.019  -0.444  0.00  0.00    +0.228 C 
ATOM      4  O   UNL     1       4.708   1.164  -0.709  0.00  0.00    -0.275 OA
ATOM      5  H   UNL     1       3.666  -1.579   0.244  0.00  0.00    +0.155 HD
BRANCH   2  10
ATOM      6  C   UNL     1      -1.329   2.119   0.024  0.00  0.00    +0.044 C 
ATOM      7  C   UNL     1      -0.016   1.379   0.010  0.00  0.00    -0.048 A 
ATOM      8  C   UNL     1       0.787   1.377   1.135  0.00  0.00    +0.020 A 
ATOM      9  C   UNL     1       1.994   0.705   1.123  0.00  0.00    +0.040 A 
ATOM     10  C   UNL     1       2.401   0.030  -0.021  0.00  0.00    +0.062 A 
ATOM     11  C   UNL     1       1.591   0.035  -1.150  0.00  0.00    +0.040 A 
ATOM     12  C   UNL     1       0.385   0.709  -1.131  0.00  0.00    +0.020 A 
ATOM     13 BR   UNL     1       2.139  -0.881  -2.712  0.00  0.00    -0.048 Br
ATOM     14 BR   UNL     1       3.092   0.702   2.663  0.00  0.00    -0.048 Br
ENDBRANCH   2  10
ENDBRANCH   1   3
BRANCH   1  15
ATOM     15  S   UNL     1       7.343   0.336  -1.132  0.00  0.00    -0.077 S 
BRANCH  15  16
ATOM     16  C   UNL     1       8.701  -0.786  -1.189  0.00  0.00    +0.192 A 
ATOM     17  N   UNL     1       8.508  -2.051  -0.846  0.00  0.00    -0.207 NA
ATOM     18  C   UNL     1       9.508  -2.928  -0.883  0.00  0.00    +0.122 A 
ATOM     19  C   UNL     1      10.772  -2.498  -1.276  0.00  0.00    +0.086 A 
ATOM     20  C   UNL     1      10.938  -1.160  -1.624  0.00  0.00    +0.122 A 
ATOM     21  N   UNL     1       9.890  -0.342  -1.569  0.00  0.00    -0.207 NA
ATOM     22  N   UNL     1       9.296  -4.251  -0.528  0.00  0.00    -0.343 N 
ATOM     23  H   UNL     1      10.031  -4.884  -0.554  0.00  0.00    +0.144 HD
ATOM     24  H   UNL     1       8.413  -4.545  -0.255  0.00  0.00    +0.144 HD
BRANCH  20  25
ATOM     25  N   UNL     1      12.178  -0.687  -2.022  0.00  0.00    -0.343 N 
ATOM     26  H   UNL     1      12.287   0.246  -2.264  0.00  0.00    +0.144 HD
ATOM     27  H   UNL     1      12.938  -1.289  -2.060  0.00  0.00    +0.144 HD
ENDBRANCH  20  25
ENDBRANCH  15  16
ENDBRANCH   1  15
TORSDOF 5
