REMARK  Name = ZINC09561712
REMARK  9 active torsions:
REMARK  status: ('A' for Active; 'I' for Inactive)
REMARK    1  A    between atoms: C_4  and  C_7
REMARK    2  A    between atoms: C_7  and  C_8
REMARK    3  A    between atoms: C_8  and  N_9
REMARK    4  A    between atoms: C_10  and  C_12
REMARK    5  A    between atoms: C_12  and  N_13
REMARK    6  A    between atoms: N_20  and  C_21
REMARK    7  A    between atoms: C_21  and  C_22
REMARK    8  A    between atoms: N_28  and  C_31
REMARK    9  A    between atoms: C_31  and  C_32
REMARK                            x       y       z     vdW  Elec       q    Type
REMARK                         _______ _______ _______ _____ _____    ______ ____
ROOT
ATOM      1  N   UNL     1      -0.614  -2.305  -0.005  0.00  0.00    -0.250 N 
ATOM      2  C   UNL     1      -0.990  -1.009   0.006  0.00  0.00    +0.283 A 
ATOM      3  O   UNL     1      -2.170  -0.709   0.019  0.00  0.00    -0.265 OA
ATOM      4  C   UNL     1       0.002  -0.004   0.002  0.00  0.00    +0.152 A 
ATOM      5  C   UNL     1       1.341  -0.375  -0.013  0.00  0.00    +0.168 A 
ATOM      6  N   UNL     1       2.063   0.749  -0.014  0.00  0.00    -0.218 NA
ATOM      7  C   UNL     1       1.266   1.788  -0.000  0.00  0.00    +0.202 A 
ATOM      8  N   UNL     1      -0.017   1.376   0.010  0.00  0.00    -0.320 N 
ATOM      9  N   UNL     1       1.662  -1.722  -0.023  0.00  0.00    -0.272 N 
ATOM     10  C   UNL     1       0.685  -2.649  -0.018  0.00  0.00    +0.334 A 
ATOM     11  O   UNL     1       0.986  -3.827  -0.028  0.00  0.00    -0.246 OA
ENDROOT
BRANCH   1  12
ATOM     12  C   UNL     1      -1.639  -3.352  -0.001  0.00  0.00    +0.225 C 
BRANCH  12  14
ATOM     13  N   UNL     1      -2.901  -4.668   1.671  0.00  0.00    -0.314 N 
ATOM     14  C   UNL     1      -1.977  -3.719   1.421  0.00  0.00    +0.233 C 
ATOM     15  O   UNL     1      -1.417  -3.161   2.341  0.00  0.00    -0.274 OA
ATOM     16  H   UNL     1      -3.348  -5.115   0.935  0.00  0.00    +0.149 HD
BRANCH  13  17
ATOM     17  C   UNL     1      -3.229  -5.025   3.053  0.00  0.00    +0.109 C 
BRANCH  17  18
ATOM     18  C   UNL     1      -4.299  -6.119   3.057  0.00  0.00    +0.054 C 
BRANCH  18  22
ATOM     19  C   UNL     1      -5.258  -7.160   7.087  0.00  0.00    +0.000 A 
ATOM     20  C   UNL     1      -5.959  -6.154   6.447  0.00  0.00    +0.000 A 
ATOM     21  C   UNL     1      -5.648  -5.818   5.143  0.00  0.00    +0.004 A 
ATOM     22  C   UNL     1      -4.637  -6.486   4.479  0.00  0.00    -0.046 A 
ATOM     23  C   UNL     1      -3.940  -7.495   5.116  0.00  0.00    +0.004 A 
ATOM     24  C   UNL     1      -4.247  -7.829   6.422  0.00  0.00    +0.000 A 
ENDBRANCH  18  22
ENDBRANCH  17  18
ENDBRANCH  13  17
ENDBRANCH  12  14
ENDBRANCH   1  12
BRANCH   8  25
ATOM     25  C   UNL     1      -1.206   2.232   0.020  0.00  0.00    +0.158 C 
BRANCH  25  26
ATOM     26  C   UNL     1      -1.679   2.417   1.439  0.00  0.00    -0.028 A 
ATOM     27  C   UNL     1      -2.597   1.537   1.982  0.00  0.00    +0.005 A 
ATOM     28  C   UNL     1      -3.027   1.704   3.285  0.00  0.00    +0.000 A 
ATOM     29  C   UNL     1      -2.547   2.757   4.042  0.00  0.00    +0.000 A 
ATOM     30  C   UNL     1      -1.633   3.639   3.497  0.00  0.00    +0.000 A 
ATOM     31  C   UNL     1      -1.199   3.469   2.196  0.00  0.00    +0.005 A 
ENDBRANCH  25  26
ENDBRANCH   8  25
BRANCH   9  32
ATOM     32  C   UNL     1       3.066  -2.140  -0.038  0.00  0.00    +0.163 C 
BRANCH  32  33
ATOM     33  C   UNL     1       3.561  -2.290   1.377  0.00  0.00    -0.028 A 
ATOM     34  C   UNL     1       4.134  -1.213   2.027  0.00  0.00    +0.005 A 
ATOM     35  C   UNL     1       4.584  -1.350   3.327  0.00  0.00    +0.000 A 
ATOM     36  C   UNL     1       4.470  -2.567   3.973  0.00  0.00    +0.000 A 
ATOM     37  C   UNL     1       3.901  -3.645   3.322  0.00  0.00    +0.000 A 
ATOM     38  C   UNL     1       3.447  -3.507   2.024  0.00  0.00    +0.005 A 
ENDBRANCH  32  33
ENDBRANCH   9  32
TORSDOF 9
