REMARK  Name = ZINC59292638
REMARK  8 active torsions:
REMARK  status: ('A' for Active; 'I' for Inactive)
REMARK    1  A    between atoms: C_1  and  C_2
REMARK    2  A    between atoms: C_8  and  C_12
REMARK    3  A    between atoms: C_12  and  C_13
REMARK    4  A    between atoms: C_13  and  N_14
REMARK    5  A    between atoms: N_14  and  C_15
REMARK    6  A    between atoms: C_15  and  N_17
REMARK    7  A    between atoms: N_17  and  C_18
REMARK    8  A    between atoms: C_23  and  C_24
REMARK                            x       y       z     vdW  Elec       q    Type
REMARK                         _______ _______ _______ _____ _____    ______ ____
ROOT
ATOM      1  N   UNL     1      -1.421  -2.820   5.737  0.00  0.00    -0.326 N 
ATOM      2  H   UNL     1      -0.575  -2.535   6.114  0.00  0.00    +0.148 HD
ENDROOT
BRANCH   1   3
ATOM      3  C   UNL     1      -2.565  -2.627   6.424  0.00  0.00    +0.135 C 
ATOM      4  S   UNL     1      -4.059  -3.130   5.757  0.00  0.00    -0.019 S 
BRANCH   3   5
ATOM      5  N   UNL     1      -2.531  -2.038   7.636  0.00  0.00    -0.297 N 
ATOM      6  H   UNL     1      -1.680  -1.825   8.048  0.00  0.00    +0.154 HD
BRANCH   5   7
ATOM      7  C   UNL     1      -3.725  -1.734   8.299  0.00  0.00    +0.036 A 
ATOM      8  C   UNL     1      -4.778  -1.153   7.605  0.00  0.00    +0.025 A 
ATOM      9  C   UNL     1      -5.956  -0.854   8.262  0.00  0.00    +0.022 A 
ATOM     10  C   UNL     1      -6.087  -1.134   9.611  0.00  0.00    +0.041 A 
ATOM     11  C   UNL     1      -5.040  -1.714  10.305  0.00  0.00    +0.025 A 
ATOM     12  C   UNL     1      -3.862  -2.019   9.651  0.00  0.00    -0.028 A 
ATOM     13  C   UNL     1      -2.724  -2.656  10.406  0.00  0.00    +0.046 C 
ATOM     14 CL   UNL     1      -7.568  -0.756  10.434  0.00  0.00    -0.084 Cl
ENDBRANCH   5   7
ENDBRANCH   3   5
ENDBRANCH   1   3
BRANCH   1  15
ATOM     15  C   UNL     1      -1.458  -3.459   4.419  0.00  0.00    +0.108 C 
BRANCH  15  16
ATOM     16  C   UNL     1      -0.037  -3.556   3.860  0.00  0.00    +0.056 C 
BRANCH  16  24
ATOM     17  C   UNL     1      -1.068  -0.511  -0.880  0.00  0.00    +0.044 C 
ATOM     18  C   UNL     1      -0.783  -1.933  -0.474  0.00  0.00    -0.050 A 
ATOM     19  C   UNL     1      -0.721  -2.927  -1.441  0.00  0.00    +0.005 A 
ATOM     20  C   UNL     1      -0.463  -4.234  -1.091  0.00  0.00    +0.026 A 
ATOM     21  C   UNL     1      -0.261  -4.564   0.245  0.00  0.00    +0.047 A 
ATOM     22  C   UNL     1      -0.325  -3.554   1.222  0.00  0.00    +0.003 A 
ATOM     23  C   UNL     1      -0.583  -2.235   0.844  0.00  0.00    +0.013 A 
ATOM     24  C   UNL     1      -0.074  -4.215   2.505  0.00  0.00    -0.021 A 
ATOM     25  C   UNL     1       0.117  -5.518   2.245  0.00  0.00    +0.087 A 
ATOM     26  N   UNL     1       0.009  -5.745   0.900  0.00  0.00    -0.360 N 
ATOM     27  H   UNL     1       0.108  -6.610   0.471  0.00  0.00    +0.165 HD
ENDBRANCH  16  24
ENDBRANCH  15  16
ENDBRANCH   1  15
TORSDOF 6
