REMARK  Name = ZINC09438869
REMARK  14 active torsions:
REMARK  status: ('A' for Active; 'I' for Inactive)
REMARK    1  A    between atoms: C_1  and  C_2
REMARK    2  A    between atoms: C_2  and  C_3
REMARK    3  A    between atoms: C_2  and  C_4
REMARK    4  A    between atoms: C_4  and  O_5
REMARK    5  A    between atoms: O_5  and  C_6
REMARK    6  A    between atoms: C_9  and  C_12
REMARK    7  A    between atoms: C_12  and  C_14
REMARK    8  A    between atoms: N_18  and  C_29
REMARK    9  A    between atoms: C_19  and  C_21
REMARK   10  A    between atoms: C_29  and  C_30
REMARK   11  A    between atoms: C_30  and  C_31
REMARK   12  A    between atoms: C_31  and  N_32
REMARK   13  A    between atoms: N_32  and  C_33
REMARK   14  A    between atoms: N_32  and  C_34
REMARK                            x       y       z     vdW  Elec       q    Type
REMARK                         _______ _______ _______ _____ _____    ______ ____
ROOT
ATOM      1  C   UNL     1      -4.664   3.825   6.639  0.00  0.00    +0.076 C 
ATOM      2  C   UNL     1      -5.231   4.217   7.803  0.00  0.00    +0.249 C 
ATOM      3  C   UNL     1      -4.213   4.891   8.636  0.00  0.00    +0.288 C 
ATOM      4  O   UNL     1      -4.411   5.354   9.742  0.00  0.00    -0.266 OA
ATOM      5  N   UNL     1      -3.034   4.920   7.988  0.00  0.00    -0.284 N 
ATOM      6  C   UNL     1      -3.217   4.259   6.690  0.00  0.00    +0.145 C 
ATOM      7  O   UNL     1      -6.524   4.022   8.150  0.00  0.00    -0.282 OA
ENDROOT
BRANCH   6   8
ATOM      8  C   UNL     1      -2.312   3.058   6.586  0.00  0.00    -0.021 A 
ATOM      9  C   UNL     1      -1.625   2.811   5.413  0.00  0.00    +0.007 A 
ATOM     10  C   UNL     1      -0.794   1.710   5.316  0.00  0.00    +0.022 A 
ATOM     11  C   UNL     1      -0.651   0.855   6.395  0.00  0.00    +0.059 A 
ATOM     12  C   UNL     1      -1.340   1.103   7.570  0.00  0.00    +0.060 A 
ATOM     13  C   UNL     1      -2.166   2.208   7.666  0.00  0.00    +0.027 A 
ATOM     14 CL   UNL     1      -1.161   0.031   8.924  0.00  0.00    -0.082 Cl
ATOM     15 CL   UNL     1       0.391  -0.528   6.274  0.00  0.00    -0.082 Cl
ENDBRANCH   6   8
BRANCH   1  16
ATOM     16  C   UNL     1      -5.327   3.120   5.537  0.00  0.00    +0.195 C 
ATOM     17  O   UNL     1      -5.736   1.986   5.699  0.00  0.00    -0.287 OA
BRANCH  16  21
ATOM     18  C   UNL     1      -5.820   5.040   1.780  0.00  0.00    +0.121 A 
ATOM     19  C   UNL     1      -5.254   5.733   2.844  0.00  0.00    +0.046 A 
ATOM     20  C   UNL     1      -5.097   5.117   4.065  0.00  0.00    +0.015 A 
ATOM     21  C   UNL     1      -5.498   3.787   4.231  0.00  0.00    +0.022 A 
ATOM     22  C   UNL     1      -6.061   3.092   3.157  0.00  0.00    +0.015 A 
ATOM     23  C   UNL     1      -6.220   3.718   1.941  0.00  0.00    +0.046 A 
BRANCH  18  24
ATOM     24  O   UNL     1      -5.977   5.653   0.580  0.00  0.00    -0.492 OA
BRANCH  24  25
ATOM     25  C   UNL     1      -5.545   7.011   0.484  0.00  0.00    +0.232 C 
BRANCH  25  27
ATOM     26  C   UNL     1      -4.927   6.756  -1.923  0.00  0.00    +0.010 C 
ATOM     27  C   UNL     1      -5.800   7.529  -0.933  0.00  0.00    +0.020 C 
ATOM     28  C   UNL     1      -5.454   9.018  -1.002  0.00  0.00    +0.010 C 
ENDBRANCH  25  27
ENDBRANCH  24  25
ENDBRANCH  18  24
ENDBRANCH  16  21
ENDBRANCH   1  16
BRANCH   5  29
ATOM     29  C   UNL     1      -1.789   5.508   8.488  0.00  0.00    +0.107 C 
BRANCH  29  30
ATOM     30  C   UNL     1      -1.714   6.977   8.068  0.00  0.00    +0.000 C 
BRANCH  30  31
ATOM     31  C   UNL     1      -0.414   7.591   8.590  0.00  0.00    -0.078 C 
BRANCH  31  32
ATOM     32  N   UNL     1      -0.342   9.002   8.187  0.00  0.00    +0.376 N 
ATOM     33  C   UNL     1      -1.391   9.792   8.847  0.00  0.00    -0.097 C 
ATOM     34  C   UNL     1       0.988   9.561   8.461  0.00  0.00    -0.097 C 
ATOM     35  H   UNL     1      -0.513   9.053   7.102  0.00  0.00    -0.083 HD
ENDBRANCH  31  32
ENDBRANCH  30  31
ENDBRANCH  29  30
ENDBRANCH   5  29
TORSDOF 10
