REMARK  Name = ZINC41002497
REMARK  11 active torsions:
REMARK  status: ('A' for Active; 'I' for Inactive)
REMARK    1  A    between atoms: C_1  and  C_2
REMARK    2  A    between atoms: C_2  and  S_3
REMARK    3  A    between atoms: S_3  and  C_4
REMARK    4  A    between atoms: C_9  and  C_19
REMARK    5  A    between atoms: C_11  and  C_15
REMARK    6  A    between atoms: C_12  and  C_14
REMARK    7  A    between atoms: C_15  and  O_17
REMARK    8  A    between atoms: O_17  and  C_18
REMARK    9  A    between atoms: C_22  and  O_25
REMARK   10  A    between atoms: O_25  and  C_26
REMARK   11  A    between atoms: C_26  and  C_27
REMARK                            x       y       z     vdW  Elec       q    Type
REMARK                         _______ _______ _______ _____ _____    ______ ____
ROOT
ATOM      1  C   UNL     1       1.228  -2.389   1.115  0.00  0.00    +0.210 A 
ATOM      2  N   UNL     1       0.603  -3.051   0.130  0.00  0.00    -0.187 NA
ATOM      3  C   UNL     1       0.565  -4.324   0.416  0.00  0.00    +0.219 A 
ATOM      4  N   UNL     1       1.171  -4.505   1.615  0.00  0.00    -0.220 N 
ATOM      5  N   UNL     1       1.596  -3.248   2.042  0.00  0.00    -0.141 NA
ATOM      6  C   UNL     1       1.307  -5.807   2.263  0.00  0.00    +0.179 C 
ATOM      7  C   UNL     1       0.958  -6.894   1.281  0.00  0.00    +0.082 C 
ATOM      8  C   UNL     1       0.360  -6.654   0.104  0.00  0.00    +0.020 C 
ATOM      9  N   UNL     1       0.030  -5.385  -0.302  0.00  0.00    -0.287 N 
ATOM     10  C   UNL     1       0.041  -7.815  -0.802  0.00  0.00    +0.061 C 
ATOM     11  H   UNL     1      -0.555  -5.235  -1.062  0.00  0.00    +0.155 HD
ENDROOT
BRANCH   6  12
ATOM     12  C   UNL     1       0.377  -5.880   3.446  0.00  0.00    -0.018 A 
ATOM     13  C   UNL     1      -0.986  -5.745   3.261  0.00  0.00    +0.009 A 
ATOM     14  C   UNL     1      -1.841  -5.811   4.345  0.00  0.00    +0.046 A 
ATOM     15  C   UNL     1      -1.330  -6.013   5.619  0.00  0.00    +0.121 A 
ATOM     16  C   UNL     1       0.038  -6.149   5.801  0.00  0.00    +0.046 A 
ATOM     17  C   UNL     1       0.889  -6.087   4.714  0.00  0.00    +0.009 A 
BRANCH  15  18
ATOM     18  O   UNL     1      -2.169  -6.077   6.686  0.00  0.00    -0.487 OA
BRANCH  18  19
ATOM     19  C   UNL     1      -1.573  -6.288   7.968  0.00  0.00    +0.264 C 
BRANCH  19  20
ATOM     20  C   UNL     1      -2.649  -6.331   9.021  0.00  0.00    -0.009 A 
ATOM     21  C   UNL     1      -3.049  -5.166   9.649  0.00  0.00    +0.007 A 
ATOM     22  C   UNL     1      -4.036  -5.205  10.616  0.00  0.00    +0.001 A 
ATOM     23  C   UNL     1      -4.625  -6.409  10.955  0.00  0.00    +0.015 A 
ATOM     24  C   UNL     1      -4.225  -7.575  10.327  0.00  0.00    +0.018 A 
ATOM     25  C   UNL     1      -3.241  -7.534   9.356  0.00  0.00    +0.022 A 
ATOM     26 BR   UNL     1      -5.029  -9.222  10.791  0.00  0.00    -0.050 Br
ENDBRANCH  19  20
ENDBRANCH  18  19
ENDBRANCH  15  18
ENDBRANCH   6  12
BRANCH   7  27
ATOM     27  C   UNL     1       1.273  -8.230   1.616  0.00  0.00    +0.339 C 
ATOM     28  O   UNL     1       2.428  -8.613   1.568  0.00  0.00    -0.245 OA
BRANCH  27  29
ATOM     29  O   UNL     1       0.295  -9.082   1.988  0.00  0.00    -0.465 OA
ATOM     30  C   UNL     1       0.686 -10.418   2.312  0.00  0.00    +0.280 C 
ENDBRANCH  27  29
ENDBRANCH   7  27
BRANCH   1  31
ATOM     31  S   UNL     1       1.515  -0.652   1.159  0.00  0.00    -0.085 S 
BRANCH  31  33
ATOM     32  C   UNL     1       0.958   1.471  -0.474  0.00  0.00    +0.016 C 
ATOM     33  C   UNL     1       0.777  -0.046  -0.383  0.00  0.00    +0.074 C 
ENDBRANCH  31  33
ENDBRANCH   1  31
TORSDOF 8
