REMARK  Name = ZINC02634089
REMARK  12 active torsions:
REMARK  status: ('A' for Active; 'I' for Inactive)
REMARK    1  A    between atoms: C_1  and  C_2
REMARK    2  A    between atoms: C_4  and  C_30
REMARK    3  A    between atoms: C_5  and  C_9
REMARK    4  A    between atoms: C_7  and  C_8
REMARK    5  A    between atoms: C_9  and  C_11
REMARK    6  A    between atoms: C_11  and  N_12
REMARK    7  A    between atoms: C_15  and  C_19
REMARK    8  A    between atoms: C_15  and  C_20
REMARK    9  A    between atoms: C_23  and  C_26
REMARK   10  A    between atoms: C_26  and  C_27
REMARK   11  A    between atoms: C_26  and  C_28
REMARK   12  A    between atoms: C_26  and  C_29
REMARK                            x       y       z     vdW  Elec       q    Type
REMARK                         _______ _______ _______ _____ _____    ______ ____
ROOT
ATOM      1  N   UNL     1      -4.011   5.723   0.322  0.00  0.00    -0.216 N 
ATOM      2  C   UNL     1      -4.718   6.074  -0.770  0.00  0.00    +0.251 C 
ATOM      3  O   UNL     1      -4.332   6.089  -1.919  0.00  0.00    -0.272 OA
ATOM      4  C   UNL     1      -6.098   6.444  -0.264  0.00  0.00    +0.135 C 
ATOM      5  N   UNL     1      -5.997   6.247   1.192  0.00  0.00    -0.281 N 
ATOM      6  C   UNL     1      -4.743   5.826   1.437  0.00  0.00    +0.310 C 
ATOM      7  O   UNL     1      -4.321   5.569   2.548  0.00  0.00    -0.252 OA
ATOM      8  C   UNL     1      -6.416   7.905  -0.589  0.00  0.00    +0.047 C 
ATOM      9  H   UNL     1      -6.698   6.393   1.847  0.00  0.00    +0.152 HD
ENDROOT
BRANCH   4  10
ATOM     10  C   UNL     1      -7.145   5.532  -0.851  0.00  0.00    -0.015 A 
ATOM     11  C   UNL     1      -7.002   5.056  -2.141  0.00  0.00    +0.006 A 
ATOM     12  C   UNL     1      -7.961   4.217  -2.677  0.00  0.00    +0.004 A 
ATOM     13  C   UNL     1      -9.066   3.860  -1.927  0.00  0.00    -0.042 A 
ATOM     14  C   UNL     1      -9.210   4.340  -0.639  0.00  0.00    +0.004 A 
ATOM     15  C   UNL     1      -8.250   5.177  -0.101  0.00  0.00    +0.006 A 
BRANCH  13  16
ATOM     16  C   UNL     1     -10.113   2.949  -2.514  0.00  0.00    -0.013 C 
ATOM     17  C   UNL     1     -11.461   3.671  -2.538  0.00  0.00    +0.015 C 
ATOM     18  C   UNL     1      -9.714   2.566  -3.940  0.00  0.00    +0.015 C 
ATOM     19  C   UNL     1     -10.225   1.685  -1.659  0.00  0.00    +0.015 C 
ENDBRANCH  13  16
ENDBRANCH   4  10
BRANCH   1  20
ATOM     20  C   UNL     1      -2.612   5.289   0.292  0.00  0.00    +0.197 C 
BRANCH  20  21
ATOM     21  C   UNL     1      -2.555   3.792   0.129  0.00  0.00    +0.181 C 
ATOM     22  O   UNL     1      -3.581   3.151   0.046  0.00  0.00    -0.290 OA
BRANCH  21  27
ATOM     23  C   UNL     1       2.530   1.119  -0.099  0.00  0.00    +0.044 C 
ATOM     24  C   UNL     1       1.197   1.820  -0.039  0.00  0.00    -0.047 A 
ATOM     25  C   UNL     1       0.033   1.104  -0.258  0.00  0.00    +0.007 A 
ATOM     26  C   UNL     1      -1.190   1.739  -0.210  0.00  0.00    -0.040 A 
ATOM     27  C   UNL     1      -1.253   3.108   0.071  0.00  0.00    +0.022 A 
ATOM     28  C   UNL     1      -0.072   3.824   0.291  0.00  0.00    +0.015 A 
ATOM     29  C   UNL     1       1.144   3.175   0.234  0.00  0.00    -0.047 A 
ATOM     30  C   UNL     1       2.417   3.945   0.470  0.00  0.00    +0.044 C 
ATOM     31  C   UNL     1      -2.456   0.959  -0.454  0.00  0.00    +0.044 C 
ENDBRANCH  21  27
ENDBRANCH  20  21
ENDBRANCH   1  20
TORSDOF 5
