REMARK  Name = ZINC13498767
REMARK  12 active torsions:
REMARK  status: ('A' for Active; 'I' for Inactive)
REMARK    1  A    between atoms: C_1  and  C_2
REMARK    2  A    between atoms: C_2  and  C_3
REMARK    3  A    between atoms: C_2  and  C_4
REMARK    4  A    between atoms: C_4  and  C_6
REMARK    5  A    between atoms: C_4  and  N_70
REMARK    6  A    between atoms: N_10  and  C_11
REMARK    7  A    between atoms: C_11  and  C_12
REMARK    8  A    between atoms: C_17  and  C_18
REMARK    9  A    between atoms: C_17  and  N_70
REMARK   10  A    between atoms: C_23  and  O_30
REMARK   11  A    between atoms: O_30  and  C_31
REMARK   12  A    between atoms: C_32  and  N_70
REMARK                            x       y       z     vdW  Elec       q    Type
REMARK                         _______ _______ _______ _____ _____    ______ ____
ROOT
ATOM      1  N   UNL     1      -8.512  -1.768   4.174  0.00  0.00    +0.391 N 
ATOM      2  H   UNL     1      -8.149  -1.880   5.128  0.00  0.00    -0.080 HD
ENDROOT
BRANCH   1   3
ATOM      3  C   UNL     1      -8.023  -2.885   3.340  0.00  0.00    -0.067 C 
ATOM      4  C   UNL     1      -8.921  -4.106   3.550  0.00  0.00    -0.015 C 
ATOM      5  C   UNL     1      -8.401  -5.273   2.708  0.00  0.00    -0.002 C 
ATOM      6  C   UNL     1      -6.972  -5.612   3.135  0.00  0.00    -0.000 C 
ATOM      7  C   UNL     1      -6.073  -4.392   2.924  0.00  0.00    -0.002 C 
ATOM      8  C   UNL     1      -6.593  -3.225   3.766  0.00  0.00    -0.015 C 
ENDBRANCH   1   3
BRANCH   1   9
ATOM      9  C   UNL     1      -9.989  -1.780   4.219  0.00  0.00    +0.006 C 
BRANCH   9  10
ATOM     10  C   UNL     1     -10.439  -1.058   5.463  0.00  0.00    +0.139 A 
ATOM     11  N   UNL     1     -10.004   0.101   5.896  0.00  0.00    -0.115 NA
ATOM     12  N   UNL     1     -10.631   0.379   6.987  0.00  0.00    -0.023 NA
ATOM     13  N   UNL     1     -11.455  -0.572   7.260  0.00  0.00    -0.044 NA
ATOM     14  N   UNL     1     -11.370  -1.474   6.341  0.00  0.00    -0.223 N 
BRANCH  14  15
ATOM     15  C   UNL     1     -12.139  -2.719   6.270  0.00  0.00    +0.221 C 
BRANCH  15  16
ATOM     16  C   UNL     1     -11.397  -3.811   6.996  0.00  0.00    +0.126 A 
ATOM     17  C   UNL     1     -11.520  -4.112   8.301  0.00  0.00    +0.046 A 
ATOM     18  C   UNL     1     -10.648  -5.196   8.555  0.00  0.00    +0.041 A 
ATOM     19  C   UNL     1     -10.038  -5.486   7.392  0.00  0.00    +0.195 A 
ATOM     20  O   UNL     1     -10.495  -4.644   6.451  0.00  0.00    -0.466 OA
ENDBRANCH  15  16
ENDBRANCH  14  15
ENDBRANCH   9  10
BRANCH   9  22
ATOM     21  C   UNL     1     -10.243  -1.901   1.736  0.00  0.00    +0.006 C 
ATOM     22  C   UNL     1     -10.567  -1.081   2.986  0.00  0.00    -0.024 C 
ATOM     23  C   UNL     1     -12.085  -0.956   3.135  0.00  0.00    +0.006 C 
ENDBRANCH   9  22
ENDBRANCH   1   9
BRANCH   1  24
ATOM     24  C   UNL     1      -8.033  -0.481   3.627  0.00  0.00    -0.036 C 
BRANCH  24  25
ATOM     25  C   UNL     1      -6.571  -0.330   3.955  0.00  0.00    +0.001 A 
ATOM     26  C   UNL     1      -5.637  -0.529   2.991  0.00  0.00    +0.017 A 
ATOM     27  C   UNL     1      -4.225  -0.375   3.342  0.00  0.00    -0.001 A 
ATOM     28  C   UNL     1      -3.218  -0.568   2.389  0.00  0.00    +0.013 A 
ATOM     29  C   UNL     1      -1.910  -0.412   2.744  0.00  0.00    +0.046 A 
ATOM     30  C   UNL     1      -1.567  -0.073   4.052  0.00  0.00    +0.122 A 
ATOM     31  C   UNL     1      -2.548   0.122   5.009  0.00  0.00    +0.072 A 
ATOM     32  C   UNL     1      -3.885  -0.027   4.664  0.00  0.00    +0.053 A 
ATOM     33  N   UNL     1      -4.883   0.161   5.597  0.00  0.00    -0.322 N 
ATOM     34  H   UNL     1      -4.647   0.401   6.507  0.00  0.00    +0.169 HD
ATOM     35  C   UNL     1      -6.177   0.017   5.264  0.00  0.00    +0.251 A 
ATOM     36  O   UNL     1      -7.033   0.191   6.115  0.00  0.00    -0.268 OA
BRANCH  30  37
ATOM     37  O   UNL     1      -0.260   0.073   4.388  0.00  0.00    -0.495 OA
ATOM     38  C   UNL     1       0.704  -0.142   3.355  0.00  0.00    +0.277 C 
ENDBRANCH  30  37
ENDBRANCH  24  25
ENDBRANCH   1  24
TORSDOF 9
