REMARK  Name = ZINC44875938
REMARK  10 active torsions:
REMARK  status: ('A' for Active; 'I' for Inactive)
REMARK    1  A    between atoms: C_1  and  C_2
REMARK    2  A    between atoms: N_5  and  C_8
REMARK    3  A    between atoms: C_8  and  C_9
REMARK    4  A    between atoms: C_12  and  C_15
REMARK    5  A    between atoms: C_15  and  N_16
REMARK    6  A    between atoms: C_17  and  C_19
REMARK    7  A    between atoms: C_19  and  N_20
REMARK    8  A    between atoms: N_20  and  C_21
REMARK    9  A    between atoms: N_20  and  S_29
REMARK   10  A    between atoms: S_29  and  C_32
REMARK                            x       y       z     vdW  Elec       q    Type
REMARK                         _______ _______ _______ _____ _____    ______ ____
ROOT
ATOM      1  N   UNL     1       2.545  -4.386   7.029  0.00  0.00    -0.310 N 
ATOM      2  C   UNL     1       2.892  -4.542   8.322  0.00  0.00    +0.232 C 
ATOM      3  O   UNL     1       3.036  -5.654   8.782  0.00  0.00    -0.274 OA
ATOM      4  H   UNL     1       2.429  -3.496   6.661  0.00  0.00    +0.149 HD
ENDROOT
BRANCH   1   5
ATOM      5  C   UNL     1       2.342  -5.562   6.179  0.00  0.00    +0.139 C 
BRANCH   5   9
ATOM      6  C   UNL     1       1.271  -4.306   2.239  0.00  0.00    -0.064 A 
ATOM      7  C   UNL     1       2.601  -4.486   2.569  0.00  0.00    +0.002 A 
ATOM      8  C   UNL     1       2.948  -4.892   3.844  0.00  0.00    +0.005 A 
ATOM      9  C   UNL     1       1.965  -5.118   4.789  0.00  0.00    -0.030 A 
ATOM     10  C   UNL     1       0.634  -4.938   4.459  0.00  0.00    +0.005 A 
ATOM     11  C   UNL     1       0.288  -4.528   3.185  0.00  0.00    +0.002 A 
BRANCH   6  12
ATOM     12  C   UNL     1       0.893  -3.863   0.849  0.00  0.00    -0.043 C 
BRANCH  12  17
ATOM     13  C   UNL     1       1.504   1.701  -0.241  0.00  0.00    +0.007 C 
ATOM     14  C   UNL     1       1.629   0.177  -0.288  0.00  0.00    -0.018 C 
ATOM     15  C   UNL     1       0.254  -0.442  -0.555  0.00  0.00    -0.016 C 
ATOM     16  C   UNL     1       0.372  -1.967  -0.522  0.00  0.00    -0.078 C 
ATOM     17  N   UNL     1       0.856  -2.396   0.796  0.00  0.00    +0.382 N 
ATOM     18  C   UNL     1       2.204  -1.865   1.029  0.00  0.00    -0.078 C 
ATOM     19  C   UNL     1       2.156  -0.335   1.055  0.00  0.00    -0.016 C 
ATOM     20  H   UNL     1       0.232  -2.051   1.510  0.00  0.00    -0.081 HD
ENDBRANCH  12  17
ENDBRANCH   6  12
ENDBRANCH   5   9
ENDBRANCH   1   5
BRANCH   2  21
ATOM     21  C   UNL     1       3.100  -3.332   9.196  0.00  0.00    +0.226 C 
BRANCH  21  22
ATOM     22  N   UNL     1       3.542  -3.761  10.526  0.00  0.00    -0.197 N 
BRANCH  22  23
ATOM     23  C   UNL     1       4.894  -4.021  10.762  0.00  0.00    +0.071 A 
ATOM     24  C   UNL     1       5.426  -5.268  10.458  0.00  0.00    +0.026 A 
ATOM     25  C   UNL     1       6.763  -5.523  10.693  0.00  0.00    +0.003 A 
ATOM     26  C   UNL     1       7.573  -4.540  11.230  0.00  0.00    +0.021 A 
ATOM     27  C   UNL     1       7.048  -3.296  11.535  0.00  0.00    +0.061 A 
ATOM     28  C   UNL     1       5.711  -3.032  11.297  0.00  0.00    +0.082 A 
ATOM     29 CL   UNL     1       5.053  -1.470  11.672  0.00  0.00    -0.080 Cl
ATOM     30 CL   UNL     1       8.068  -2.065  12.210  0.00  0.00    -0.082 Cl
ENDBRANCH  22  23
BRANCH  22  31
ATOM     31  S   UNL     1       2.439  -3.937  11.748  0.00  0.00    +0.043 S 
ATOM     32  O   UNL     1       3.202  -3.835  12.943  0.00  0.00    -0.155 OA
ATOM     33  O   UNL     1       1.420  -2.989  11.457  0.00  0.00    -0.155 OA
ATOM     34  C   UNL     1       1.797  -5.622  11.558  0.00  0.00    +0.218 C 
ENDBRANCH  22  31
ENDBRANCH  21  22
ENDBRANCH   2  21
TORSDOF 8
