REMARK  Name = ZINC50594004
REMARK  6 active torsions:
REMARK  status: ('A' for Active; 'I' for Inactive)
REMARK    1  A    between atoms: C_1  and  C_2
REMARK    2  A    between atoms: C_4  and  C_13
REMARK    3  A    between atoms: N_5  and  C_7
REMARK    4  A    between atoms: C_7  and  C_8
REMARK    5  A    between atoms: C_8  and  S_9
REMARK    6  A    between atoms: S_9  and  C_12
REMARK                            x       y       z     vdW  Elec       q    Type
REMARK                         _______ _______ _______ _____ _____    ______ ____
ROOT
ATOM      1  C   UNL     1      -0.018   1.503   0.010  0.00  0.00    +0.068 C 
ATOM      2  C   UNL     1       0.002  -0.004   0.002  0.00  0.00    +0.074 A 
ATOM      3  C   UNL     1       0.008  -0.818  -1.136  0.00  0.00    +0.061 A 
ATOM      4  C   UNL     1       0.027  -2.108  -0.725  0.00  0.00    +0.050 A 
ATOM      5  N   UNL     1       0.034  -2.109   0.625  0.00  0.00    -0.266 N 
ATOM      6  N   UNL     1       0.023  -0.777   1.058  0.00  0.00    -0.175 NA
ATOM      7  C   UNL     1       0.039  -3.324  -1.615  0.00  0.00    +0.066 C 
ATOM      8 BR   UNL     1      -0.009  -0.222  -2.930  0.00  0.00    -0.047 Br
ENDROOT
BRANCH   5   9
ATOM      9  C   UNL     1       0.053  -3.295   1.486  0.00  0.00    +0.166 C 
BRANCH   9  10
ATOM     10  C   UNL     1       1.503  -3.688   1.779  0.00  0.00    +0.189 C 
BRANCH  10  11
ATOM     11  S   UNL     1       1.528  -5.155   2.844  0.00  0.00    -0.032 S 
ATOM     12  O   UNL     1       0.966  -4.807   4.102  0.00  0.00    -0.175 OA
ATOM     13  O   UNL     1       0.976  -6.246   2.119  0.00  0.00    -0.175 OA
ATOM     14  C   UNL     1       3.302  -5.456   3.072  0.00  0.00    +0.194 C 
ENDBRANCH  10  11
ENDBRANCH   9  10
ENDBRANCH   5   9
TORSDOF 3
