REMARK  Name = ZINC51120298
REMARK  4 active torsions:
REMARK  status: ('A' for Active; 'I' for Inactive)
REMARK    1  A    between atoms: C_6  and  N_7
REMARK    2  A    between atoms: C_8  and  C_10
REMARK    3  A    between atoms: C_12  and  N_17
REMARK    4  A    between atoms: N_17  and  N_18
REMARK                            x       y       z     vdW  Elec       q    Type
REMARK                         _______ _______ _______ _____ _____    ______ ____
ROOT
ATOM      1  N   UNL     1      -1.199  -0.721   0.010  0.00  0.00    -0.281 N 
ATOM      2  C   UNL     1      -1.183  -2.064  -0.099  0.00  0.00    +0.248 C 
ATOM      3  O   UNL     1      -0.124  -2.660  -0.113  0.00  0.00    -0.270 OA
ATOM      4  H   UNL     1      -2.044  -0.251   0.089  0.00  0.00    +0.155 HD
ENDROOT
BRANCH   1  10
ATOM      5  C   UNL     1       0.065   1.248  -0.586  0.00  0.00    +0.025 A 
ATOM      6  C   UNL     1       1.252   1.954  -0.586  0.00  0.00    +0.025 A 
ATOM      7  C   UNL     1       2.379   1.415   0.008  0.00  0.00    +0.076 A 
ATOM      8  C   UNL     1       2.321   0.165   0.604  0.00  0.00    +0.143 A 
ATOM      9  C   UNL     1       1.134  -0.545   0.606  0.00  0.00    +0.063 A 
ATOM     10  C   UNL     1       0.003  -0.005   0.010  0.00  0.00    +0.036 A 
ATOM     11  F   UNL     1       3.423  -0.359   1.184  0.00  0.00    -0.204 F 
ATOM     12 CL   UNL     1       3.870   2.306   0.006  0.00  0.00    -0.081 Cl
ENDBRANCH   1  10
BRANCH   2  13
ATOM     13  C   UNL     1      -2.456  -2.814  -0.202  0.00  0.00    +0.043 A 
ATOM     14  C   UNL     1      -2.461  -4.206  -0.310  0.00  0.00    +0.057 A 
ATOM     15  C   UNL     1      -3.679  -4.870  -0.404  0.00  0.00    +0.134 A 
ATOM     16  N   UNL     1      -4.819  -4.197  -0.392  0.00  0.00    -0.220 NA
ATOM     17  C   UNL     1      -4.852  -2.881  -0.292  0.00  0.00    +0.132 A 
ATOM     18  C   UNL     1      -3.686  -2.147  -0.188  0.00  0.00    +0.053 A 
ATOM     19 CL   UNL     1      -6.382  -2.062  -0.282  0.00  0.00    -0.062 Cl
BRANCH  15  20
ATOM     20  N   UNL     1      -3.700  -6.255  -0.513  0.00  0.00    -0.267 N 
ATOM     21  H   UNL     1      -2.868  -6.754  -0.522  0.00  0.00    +0.167 HD
BRANCH  20  22
ATOM     22  N   UNL     1      -4.893  -6.915  -0.606  0.00  0.00    -0.255 NA
ATOM     23  H   UNL     1      -5.437  -6.571  -1.383  0.00  0.00    +0.140 HD
ATOM     24  H   UNL     1      -4.750  -7.912  -0.678  0.00  0.00    +0.140 HD
ENDBRANCH  20  22
ENDBRANCH  15  20
ENDBRANCH   2  13
TORSDOF 4
