REMARK  Name = ZINC19314724
REMARK  10 active torsions:
REMARK  status: ('A' for Active; 'I' for Inactive)
REMARK    1  A    between atoms: C_1  and  C_2
REMARK    2  A    between atoms: C_2  and  C_3
REMARK    3  A    between atoms: C_3  and  C_4
REMARK    4  A    between atoms: C_4  and  C_5
REMARK    5  A    between atoms: C_5  and  C_30
REMARK    6  A    between atoms: N_8  and  C_12
REMARK    7  A    between atoms: C_12  and  C_13
REMARK    8  A    between atoms: N_15  and  C_16
REMARK    9  A    between atoms: N_15  and  C_24
REMARK   10  A    between atoms: C_16  and  C_17
REMARK                            x       y       z     vdW  Elec       q    Type
REMARK                         _______ _______ _______ _____ _____    ______ ____
ROOT
ATOM      1  C   UNL     1       0.861  -2.232   3.502  0.00  0.00    +0.138 C 
ATOM      2  C   UNL     1       2.292  -1.809   3.232  0.00  0.00    +0.251 C 
ATOM      3  O   UNL     1       2.975  -2.105   2.275  0.00  0.00    -0.272 OA
ATOM      4  N   UNL     1       2.646  -1.036   4.278  0.00  0.00    -0.215 N 
ATOM      5  C   UNL     1       1.649  -0.913   5.161  0.00  0.00    +0.310 C 
ATOM      6  O   UNL     1       1.730  -0.264   6.186  0.00  0.00    -0.252 OA
ATOM      7  N   UNL     1       0.544  -1.591   4.789  0.00  0.00    -0.281 N 
ATOM      8  H   UNL     1      -0.450  -1.728   5.242  0.00  0.00    +0.152 HD
ENDROOT
BRANCH   1   9
ATOM      9  C   UNL     1       0.765  -3.732   3.618  0.00  0.00    -0.015 A 
ATOM     10  C   UNL     1       0.459  -4.493   2.506  0.00  0.00    +0.009 A 
ATOM     11  C   UNL     1       0.374  -5.868   2.611  0.00  0.00    +0.039 A 
ATOM     12  C   UNL     1       0.587  -6.483   3.833  0.00  0.00    +0.123 A 
ATOM     13  C   UNL     1       0.888  -5.719   4.948  0.00  0.00    +0.039 A 
ATOM     14  C   UNL     1       0.977  -4.345   4.839  0.00  0.00    +0.009 A 
ATOM     15  F   UNL     1       0.500  -7.827   3.937  0.00  0.00    -0.205 F 
ENDBRANCH   1   9
BRANCH   1  16
ATOM     16  C   UNL     1      -0.068  -1.719   2.400  0.00  0.00    +0.040 C 
BRANCH  16  17
ATOM     17  C   UNL     1       0.049  -0.196   2.303  0.00  0.00    +0.003 C 
BRANCH  17  19
ATOM     18  C   UNL     1      -0.764   1.840   1.104  0.00  0.00    +0.004 C 
ATOM     19  C   UNL     1      -0.881   0.317   1.202  0.00  0.00    -0.003 C 
ENDBRANCH  17  19
ENDBRANCH  16  17
ENDBRANCH   1  16
BRANCH   4  20
ATOM     20  C   UNL     1       3.961  -0.408   4.429  0.00  0.00    +0.213 C 
BRANCH  20  21
ATOM     21  C   UNL     1       3.943   0.956   3.789  0.00  0.00    +0.234 C 
ATOM     22  O   UNL     1       2.961   1.329   3.183  0.00  0.00    -0.274 OA
ATOM     23  N   UNL     1       5.018   1.762   3.892  0.00  0.00    -0.293 N 
BRANCH  23  24
ATOM     24  C   UNL     1       6.244   1.272   4.528  0.00  0.00    +0.076 C 
ATOM     25  C   UNL     1       6.592   2.166   5.720  0.00  0.00    +0.022 C 
ATOM     26  C   UNL     1       7.872   1.654   6.384  0.00  0.00    +0.002 C 
ATOM     27  C   UNL     1       9.019   1.684   5.372  0.00  0.00    +0.000 C 
ATOM     28  C   UNL     1       8.671   0.791   4.180  0.00  0.00    +0.002 C 
ATOM     29  C   UNL     1       7.391   1.303   3.516  0.00  0.00    +0.022 C 
ENDBRANCH  23  24
BRANCH  23  30
ATOM     30  C   UNL     1       4.961   3.129   3.367  0.00  0.00    +0.143 C 
BRANCH  30  31
ATOM     31  C   UNL     1       4.323   4.034   4.389  0.00  0.00    -0.030 A 
ATOM     32  C   UNL     1       2.946   4.110   4.480  0.00  0.00    +0.008 A 
ATOM     33  C   UNL     1       2.359   4.935   5.421  0.00  0.00    +0.038 A 
ATOM     34  C   UNL     1       3.152   5.694   6.265  0.00  0.00    +0.123 A 
ATOM     35  C   UNL     1       4.531   5.621   6.170  0.00  0.00    +0.038 A 
ATOM     36  C   UNL     1       5.115   4.791   5.232  0.00  0.00    +0.008 A 
ATOM     37  F   UNL     1       2.580   6.505   7.182  0.00  0.00    -0.205 F 
ENDBRANCH  30  31
ENDBRANCH  23  30
ENDBRANCH  20  21
ENDBRANCH   4  20
TORSDOF 9
