REMARK  Name = ZINC64898456
REMARK  7 active torsions:
REMARK  status: ('A' for Active; 'I' for Inactive)
REMARK    1  A    between atoms: C_1  and  C_2
REMARK    2  A    between atoms: C_4  and  C_24
REMARK    3  A    between atoms: C_6  and  N_8
REMARK    4  A    between atoms: C_9  and  N_14
REMARK    5  A    between atoms: C_11  and  C_13
REMARK    6  A    between atoms: C_15  and  C_17
REMARK    7  A    between atoms: C_18  and  C_19
REMARK                            x       y       z     vdW  Elec       q    Type
REMARK                         _______ _______ _______ _____ _____    ______ ____
ROOT
ATOM      1  N   UNL     1       0.050  -2.798   2.395  0.00  0.00    -0.218 N 
ATOM      2  C   UNL     1       0.677  -2.417   3.541  0.00  0.00    +0.129 A 
ATOM      3  C   UNL     1       0.445  -3.382   4.473  0.00  0.00    +0.068 A 
ATOM      4  C   UNL     1      -0.341  -4.372   3.879  0.00  0.00    +0.062 A 
ATOM      5  N   UNL     1      -0.582  -4.024   2.641  0.00  0.00    -0.170 NA
ATOM      6  C   UNL     1      -0.833  -5.628   4.552  0.00  0.00    +0.067 C 
ENDROOT
BRANCH   1  12
ATOM      7  C   UNL     1      -0.018   1.503   0.010  0.00  0.00    +0.044 C 
ATOM      8  C   UNL     1       0.002  -0.004   0.002  0.00  0.00    -0.048 A 
ATOM      9  C   UNL     1       0.006  -0.688  -1.200  0.00  0.00    +0.006 A 
ATOM     10  C   UNL     1       0.024  -2.071  -1.211  0.00  0.00    -0.048 A 
ATOM     11  C   UNL     1       0.039  -2.773  -0.022  0.00  0.00    +0.031 A 
ATOM     12  C   UNL     1       0.035  -2.089   1.186  0.00  0.00    +0.068 A 
ATOM     13  C   UNL     1       0.023  -0.700   1.195  0.00  0.00    +0.031 A 
ATOM     14  C   UNL     1       0.027  -2.812  -2.523  0.00  0.00    +0.044 C 
ENDBRANCH   1  12
BRANCH   2  15
ATOM     15  N   UNL     1       1.420  -1.253   3.727  0.00  0.00    -0.267 N 
ATOM     16  C   UNL     1       1.989  -1.000   4.922  0.00  0.00    +0.242 C 
ATOM     17  O   UNL     1       1.854  -1.789   5.840  0.00  0.00    -0.270 OA
ATOM     18  H   UNL     1       1.528  -0.625   2.996  0.00  0.00    +0.157 HD
BRANCH  16  19
ATOM     19  C   UNL     1       2.745   0.183   5.111  0.00  0.00    +0.070 C 
ATOM     20  C   UNL     1       3.316   0.437   6.310  0.00  0.00    +0.033 C 
BRANCH  20  21
ATOM     21  C   UNL     1       4.098   1.663   6.505  0.00  0.00    +0.071 A 
ATOM     22  C   UNL     1       4.705   1.964   7.710  0.00  0.00    +0.074 A 
ATOM     23  S   UNL     1       5.444   3.436   7.383  0.00  0.00    -0.083 S 
ATOM     24  C   UNL     1       4.980   3.626   5.781  0.00  0.00    +0.156 A 
ATOM     25  N   UNL     1       4.275   2.558   5.527  0.00  0.00    -0.248 NA
ENDBRANCH  20  21
ENDBRANCH  16  19
ENDBRANCH   2  15
TORSDOF 4
