REMARK  Name = ZINC38596212
REMARK  9 active torsions:
REMARK  status: ('A' for Active; 'I' for Inactive)
REMARK    1  A    between atoms: C_1  and  C_2
REMARK    2  A    between atoms: C_2  and  C_4
REMARK    3  A    between atoms: C_2  and  N_24
REMARK    4  A    between atoms: C_4  and  C_6
REMARK    5  A    between atoms: C_4  and  N_11
REMARK    6  A    between atoms: N_14  and  C_17
REMARK    7  A    between atoms: C_17  and  C_18
REMARK    8  A    between atoms: N_24  and  S_25
REMARK    9  A    between atoms: S_25  and  C_28
REMARK                            x       y       z     vdW  Elec       q    Type
REMARK                         _______ _______ _______ _____ _____    ______ ____
ROOT
ATOM      1  C   UNL     1       0.529  -0.977   1.427  0.00  0.00    +0.112 C 
ENDROOT
BRANCH   1   2
ATOM      2  N   UNL     1       1.921  -0.548   1.618  0.00  0.00    -0.297 NA
ATOM      3  C   UNL     1       2.720  -0.801   0.411  0.00  0.00    +0.066 C 
ATOM      4  C   UNL     1       4.145  -0.287   0.629  0.00  0.00    -0.063 C 
ATOM      5  N   UNL     1       4.741  -0.971   1.784  0.00  0.00    +0.384 N 
ATOM      6  C   UNL     1       3.946  -0.689   2.986  0.00  0.00    -0.063 C 
ATOM      7  C   UNL     1       2.519  -1.207   2.788  0.00  0.00    +0.066 C 
ATOM      8  H   UNL     1       4.754  -1.966   1.615  0.00  0.00    -0.081 HD
BRANCH   5   9
ATOM      9  C   UNL     1       6.115  -0.491   1.982  0.00  0.00    -0.043 C 
BRANCH   9  10
ATOM     10  C   UNL     1       6.768  -1.279   3.088  0.00  0.00    -0.064 A 
ATOM     11  C   UNL     1       6.668  -0.846   4.397  0.00  0.00    +0.002 A 
ATOM     12  C   UNL     1       7.268  -1.568   5.412  0.00  0.00    +0.000 A 
ATOM     13  C   UNL     1       7.966  -2.724   5.117  0.00  0.00    +0.000 A 
ATOM     14  C   UNL     1       8.065  -3.158   3.809  0.00  0.00    +0.000 A 
ATOM     15  C   UNL     1       7.462  -2.437   2.795  0.00  0.00    +0.002 A 
ENDBRANCH   9  10
ENDBRANCH   5   9
ENDBRANCH   1   2
BRANCH   1  16
ATOM     16  C   UNL     1      -0.279  -0.620   2.648  0.00  0.00    +0.008 A 
ATOM     17  C   UNL     1      -1.242  -1.339   3.274  0.00  0.00    +0.013 A 
ATOM     18  C   UNL     1      -1.856  -0.806   4.393  0.00  0.00    +0.008 A 
ATOM     19  C   UNL     1      -1.475   0.419   4.830  0.00  0.00    +0.045 A 
ATOM     20  S   UNL     1      -0.209   0.856   3.650  0.00  0.00    -0.100 S 
ENDBRANCH   1  16
BRANCH   1  22
ATOM     21  C   UNL     1       0.097   1.241   0.362  0.00  0.00    +0.027 C 
ATOM     22  C   UNL     1      -0.059  -0.272   0.203  0.00  0.00    +0.095 C 
BRANCH  22  23
ATOM     23  N   UNL     1      -1.480  -0.607   0.082  0.00  0.00    -0.185 NA
ATOM     24  H   UNL     1      -2.021  -0.722   0.879  0.00  0.00    +0.148 HD
BRANCH  23  25
ATOM     25  S   UNL     1      -2.163  -0.790  -1.416  0.00  0.00    +0.059 S 
ATOM     26  O   UNL     1      -3.524  -1.137  -1.202  0.00  0.00    -0.153 OA
ATOM     27  O   UNL     1      -1.777   0.345  -2.179  0.00  0.00    -0.153 OA
BRANCH  25  28
ATOM     28  C   UNL     1      -1.399  -2.188  -2.170  0.00  0.00    +0.113 A 
ATOM     29  C   UNL     1      -0.649  -2.033  -3.295  0.00  0.00    +0.029 A 
ATOM     30  C   UNL     1      -0.038  -3.127  -3.905  0.00  0.00    +0.003 A 
ATOM     31  C   UNL     1      -0.173  -4.381  -3.394  0.00  0.00    +0.008 A 
ATOM     32  C   UNL     1      -0.939  -4.579  -2.233  0.00  0.00    -0.016 A 
ATOM     33  C   UNL     1      -1.556  -3.466  -1.609  0.00  0.00    +0.008 A 
ATOM     34  C   UNL     1      -2.318  -3.664  -0.444  0.00  0.00    +0.010 A 
ATOM     35  C   UNL     1      -2.448  -4.917   0.070  0.00  0.00    +0.001 A 
ATOM     36  C   UNL     1      -1.836  -6.011  -0.540  0.00  0.00    +0.001 A 
ATOM     37  C   UNL     1      -1.102  -5.859  -1.676  0.00  0.00    +0.008 A 
ENDBRANCH  25  28
ENDBRANCH  23  25
ENDBRANCH  22  23
ENDBRANCH   1  22
TORSDOF 8
