REMARK  Name = ZINC40756178
REMARK  9 active torsions:
REMARK  status: ('A' for Active; 'I' for Inactive)
REMARK    1  A    between atoms: N_3  and  C_6
REMARK    2  A    between atoms: C_6  and  C_7
REMARK    3  A    between atoms: C_7  and  C_8
REMARK    4  A    between atoms: C_8  and  N_9
REMARK    5  A    between atoms: C_11  and  N_25
REMARK    6  A    between atoms: C_12  and  N_16
REMARK    7  A    between atoms: N_16  and  C_17
REMARK    8  A    between atoms: C_17  and  C_18
REMARK    9  A    between atoms: C_18  and  C_19
REMARK                            x       y       z     vdW  Elec       q    Type
REMARK                         _______ _______ _______ _____ _____    ______ ____
ROOT
ATOM      1  N   UNL     1       6.075   0.589   2.771  0.00  0.00    -0.327 N 
ATOM      2  C   UNL     1       7.444   0.569   3.012  0.00  0.00    +0.145 A 
ATOM      3  C   UNL     1       7.934   0.549   4.319  0.00  0.00    +0.105 A 
ATOM      4  C   UNL     1       9.317   0.529   4.505  0.00  0.00    +0.145 A 
ATOM      5  N   UNL     1      10.111   0.530   3.437  0.00  0.00    -0.219 NA
ATOM      6  C   UNL     1       9.608   0.548   2.219  0.00  0.00    +0.225 A 
ATOM      7  N   UNL     1       8.308   0.562   2.000  0.00  0.00    -0.219 NA
ATOM      8  H   UNL     1       5.452   0.594   3.514  0.00  0.00    +0.148 HD
ENDROOT
BRANCH   3   9
ATOM      9  N   UNL     1       7.058   0.551   5.418  0.00  0.00    -0.353 N 
ATOM     10  H   UNL     1       6.099   0.565   5.273  0.00  0.00    +0.143 HD
ATOM     11  H   UNL     1       7.413   0.537   6.320  0.00  0.00    +0.143 HD
ENDBRANCH   3   9
BRANCH   4  12
ATOM     12  N   UNL     1       9.857   0.510   5.785  0.00  0.00    -0.327 N 
ATOM     13  H   UNL     1       9.271   0.510   6.559  0.00  0.00    +0.148 HD
BRANCH  12  14
ATOM     14  C   UNL     1      11.310   0.489   5.967  0.00  0.00    +0.107 C 
BRANCH  14  15
ATOM     15  C   UNL     1      11.637   0.471   7.462  0.00  0.00    +0.049 C 
BRANCH  15  16
ATOM     16  C   UNL     1      13.132   0.449   7.649  0.00  0.00    -0.072 C 
ATOM     17  C   UNL     1      13.737   1.578   7.839  0.00  0.00    -0.028 C 
ATOM     18  C   UNL     1      15.219   1.717   8.030  0.00  0.00    +0.027 C 
ATOM     19  C   UNL     1      15.833   0.362   8.389  0.00  0.00    +0.004 C 
ATOM     20  C   UNL     1      15.329  -0.681   7.384  0.00  0.00    +0.005 C 
ATOM     21  C   UNL     1      13.827  -0.880   7.609  0.00  0.00    +0.030 C 
ENDBRANCH  15  16
ENDBRANCH  14  15
ENDBRANCH  12  14
ENDBRANCH   4  12
BRANCH   1  22
ATOM     22  C   UNL     1       5.574   0.603   1.395  0.00  0.00    +0.105 C 
BRANCH  22  23
ATOM     23  C   UNL     1       4.044   0.624   1.409  0.00  0.00    +0.040 C 
BRANCH  23  24
ATOM     24  C   UNL     1       3.521   0.638  -0.028  0.00  0.00    +0.124 C 
BRANCH  24  27
ATOM     25  C   UNL     1      -0.016   1.337   0.009  0.00  0.00    +0.101 A 
ATOM     26  C   UNL     1       1.259   1.771  -0.000  0.00  0.00    +0.104 A 
ATOM     27  N   UNL     1       2.056   0.658  -0.014  0.00  0.00    -0.338 N 
ATOM     28  C   UNL     1       1.240  -0.418  -0.012  0.00  0.00    +0.173 A 
ATOM     29  N   UNL     1       0.002  -0.004   0.002  0.00  0.00    -0.352 N 
ATOM     30  H   UNL     1      -0.781  -0.576   0.007  0.00  0.00    +0.166 HD
ENDBRANCH  24  27
ENDBRANCH  23  24
ENDBRANCH  22  23
ENDBRANCH   1  22
TORSDOF 9
