REMARK  Name = ZINC00154325
REMARK  3 active torsions:
REMARK  status: ('A' for Active; 'I' for Inactive)
REMARK    1  A    between atoms: C_1  and  S_2
REMARK    2  A    between atoms: S_2  and  N_5
REMARK    3  A    between atoms: C_12  and  N_14
REMARK                            x       y       z     vdW  Elec       q    Type
REMARK                         _______ _______ _______ _____ _____    ______ ____
ROOT
ATOM      1  N   UNL     1       2.470   3.687  -0.002  0.00  0.00    -0.207 N 
ATOM      2  C   UNL     1       3.446   2.595  -0.017  0.00  0.00    +0.136 C 
ATOM      3  C   UNL     1       2.610   1.305  -0.015  0.00  0.00    +0.058 C 
ATOM      4  C   UNL     1       1.175   1.782   0.000  0.00  0.00    -0.022 A 
ATOM      5  C   UNL     1       1.170   3.168   0.007  0.00  0.00    +0.054 A 
ATOM      6  C   UNL     1      -0.051   3.844   0.022  0.00  0.00    +0.027 A 
ATOM      7  C   UNL     1      -1.237   3.141   0.030  0.00  0.00    +0.024 A 
ATOM      8  C   UNL     1      -1.225   1.753   0.017  0.00  0.00    +0.025 A 
ATOM      9  C   UNL     1      -0.013   1.076   0.008  0.00  0.00    +0.028 A 
ENDROOT
BRANCH   1  11
ATOM     10  C   UNL     1       2.970   5.743   1.758  0.00  0.00    +0.218 C 
ATOM     11  S   UNL     1       2.848   5.299   0.003  0.00  0.00    +0.043 S 
ATOM     12  O   UNL     1       4.127   5.374  -0.611  0.00  0.00    -0.155 OA
ATOM     13  O   UNL     1       1.723   5.937  -0.586  0.00  0.00    -0.155 OA
ENDBRANCH   1  11
BRANCH   8  14
ATOM     14  N   UNL     1      -2.429   1.038   0.020  0.00  0.00    -0.358 N 
ATOM     15  H   UNL     1      -2.418   0.069   0.015  0.00  0.00    +0.142 HD
ATOM     16  H   UNL     1      -3.275   1.514   0.026  0.00  0.00    +0.142 HD
ENDBRANCH   8  14
TORSDOF 2
