REMARK  Name = ZINC08156864
REMARK  8 active torsions:
REMARK  status: ('A' for Active; 'I' for Inactive)
REMARK    1  A    between atoms: C_4  and  O_27
REMARK    2  A    between atoms: C_5  and  C_7
REMARK    3  A    between atoms: C_7  and  C_8
REMARK    4  A    between atoms: C_8  and  C_9
REMARK    5  A    between atoms: N_11  and  CA_12
REMARK    6  A    between atoms: CA_12  and  CB_14
REMARK    7  A    between atoms: CA_12  and  C_25
REMARK    8  A    between atoms: CB_14  and  CG_15
REMARK                            x       y       z     vdW  Elec       q    Type
REMARK                         _______ _______ _______ _____ _____    ______ ____
ROOT
ATOM      1  CA  TRP A   1      -2.570   2.256   6.035  0.00  0.00    +0.191 C 
ENDROOT
BRANCH   1   4
ATOM      2  C   UNK A   0      -1.409   1.126   4.214  0.00  0.00    +0.214 C 
ATOM      3  O   UNK A   0      -0.361   1.360   4.777  0.00  0.00    -0.276 OA
ATOM      4  N   TRP A   1      -2.573   1.532   4.761  0.00  0.00    -0.302 N 
ATOM      5  H   TRP A   1      -3.411   1.345   4.311  0.00  0.00    +0.150 HD
BRANCH   2   6
ATOM      6  C   UNK A   0      -1.412   0.382   2.904  0.00  0.00    +0.100 C 
BRANCH   6   7
ATOM      7  C   UNK A   0       0.026   0.039   2.509  0.00  0.00    +0.048 C 
BRANCH   7  12
ATOM      8  C   UNK A   0       0.040  -2.770  -0.013  0.00  0.00    +0.000 A 
ATOM      9  C   UNK A   0       0.018  -2.074  -1.208  0.00  0.00    +0.004 A 
ATOM     10  C   UNK A   0      -0.006  -0.693  -1.203  0.00  0.00    +0.045 A 
ATOM     11  C   UNK A   0       0.002  -0.004   0.002  0.00  0.00    +0.120 A 
ATOM     12  C   UNK A   0       0.023  -0.705   1.199  0.00  0.00    -0.005 A 
ATOM     13  C   UNK A   0       0.042  -2.087   1.188  0.00  0.00    +0.007 A 
BRANCH  11  14
ATOM     14  O   UNK A   0      -0.016   1.355   0.009  0.00  0.00    -0.506 OA
ATOM     15  H   UNK A   0       0.862   1.760   0.003  0.00  0.00    +0.292 HD
ENDBRANCH  11  14
ENDBRANCH   7  12
ENDBRANCH   6   7
ENDBRANCH   2   6
ENDBRANCH   1   4
BRANCH   1  16
ATOM     16  C   TRP A   1      -2.546   1.269   7.173  0.00  0.00    +0.376 C 
ATOM     17  O   TRP A   1      -2.532   0.082   6.944  0.00  0.00    -0.244 OA
ATOM     18  OXT TRP A   1      -2.539   1.707   8.442  0.00  0.00    -0.244 OA
ENDBRANCH   1  16
BRANCH   1  19
ATOM     19  CB  TRP A   1      -3.830   3.118   6.134  0.00  0.00    +0.071 C 
BRANCH  19  20
ATOM     20  CG  TRP A   1      -3.794   4.184   5.070  0.00  0.00    -0.020 A 
ATOM     21  CD1 TRP A   1      -3.351   5.443   5.215  0.00  0.00    +0.087 A 
ATOM     22  NE1 TRP A   1      -3.473   6.120   4.032  0.00  0.00    -0.360 N 
ATOM     23  HE1 TRP A   1      -3.219   7.045   3.891  0.00  0.00    +0.165 HD
ATOM     24  CE2 TRP A   1      -4.010   5.292   3.072  0.00  0.00    +0.047 A 
ATOM     25  CD2 TRP A   1      -4.230   4.041   3.679  0.00  0.00    +0.003 A 
ATOM     26  CE3 TRP A   1      -4.769   2.991   2.933  0.00  0.00    +0.010 A 
ATOM     27  CZ3 TRP A   1      -5.079   3.183   1.616  0.00  0.00    +0.001 A 
ATOM     28  CH2 TRP A   1      -4.861   4.414   1.013  0.00  0.00    +0.002 A 
ATOM     29  CZ2 TRP A   1      -4.337   5.466   1.732  0.00  0.00    +0.026 A 
ENDBRANCH  19  20
ENDBRANCH   1  19
TORSDOF 8
