REMARK  Name = ZINC36833891
REMARK  7 active torsions:
REMARK  status: ('A' for Active; 'I' for Inactive)
REMARK    1  A    between atoms: C_1  and  C_2
REMARK    2  A    between atoms: C_11  and  N_32
REMARK    3  A    between atoms: C_13  and  S_15
REMARK    4  A    between atoms: S_15  and  C_16
REMARK    5  A    between atoms: C_16  and  C_17
REMARK    6  A    between atoms: N_22  and  C_23
REMARK    7  A    between atoms: C_29  and  C_31
REMARK                            x       y       z     vdW  Elec       q    Type
REMARK                         _______ _______ _______ _____ _____    ______ ____
ROOT
ATOM      1  C   UNL     1      -1.902   0.461  -2.616  0.00  0.00    +0.008 C 
ATOM      2  C   UNL     1      -1.350  -0.932  -2.307  0.00  0.00    -0.009 C 
ATOM      3  C   UNL     1      -0.607  -1.474  -3.531  0.00  0.00    +0.008 C 
ATOM      4  C   UNL     1      -0.270  -2.950  -3.321  0.00  0.00    +0.037 C 
ATOM      5  C   UNL     1       0.461  -3.107  -1.990  0.00  0.00    -0.025 A 
ATOM      6  C   UNL     1       0.386  -2.140  -1.048  0.00  0.00    -0.004 A 
ATOM      7  S   UNL     1       1.367  -2.732   0.308  0.00  0.00    -0.073 S 
ATOM      8  C   UNL     1       1.877  -4.271  -0.387  0.00  0.00    +0.115 A 
ATOM      9  C   UNL     1       1.262  -4.276  -1.664  0.00  0.00    +0.051 A 
ATOM     10  C   UNL     1       1.491  -5.417  -2.487  0.00  0.00    +0.129 A 
ATOM     11  N   UNL     1       2.265  -6.365  -1.966  0.00  0.00    -0.207 NA
ATOM     12  C   UNL     1       2.810  -6.295  -0.760  0.00  0.00    +0.191 A 
ATOM     13  N   UNL     1       2.633  -5.255   0.058  0.00  0.00    -0.215 NA
ATOM     14  C   UNL     1      -0.368  -0.848  -1.130  0.00  0.00    +0.046 C 
ENDROOT
BRANCH  10  15
ATOM     15  N   UNL     1       0.942  -5.531  -3.751  0.00  0.00    -0.343 N 
ATOM     16  H   UNL     1       1.269  -6.209  -4.363  0.00  0.00    +0.144 HD
ATOM     17  H   UNL     1       0.229  -4.933  -4.026  0.00  0.00    +0.144 HD
ENDBRANCH  10  15
BRANCH  12  18
ATOM     18  S   UNL     1       3.812  -7.636  -0.212  0.00  0.00    -0.080 S 
BRANCH  18  19
ATOM     19  C   UNL     1       3.782  -8.803  -1.600  0.00  0.00    +0.133 C 
BRANCH  19  20
ATOM     20  C   UNL     1       4.613 -10.013  -1.257  0.00  0.00    +0.061 A 
ATOM     21  C   UNL     1       5.938 -10.066  -1.543  0.00  0.00    +0.072 A 
ATOM     22  S   UNL     1       6.347 -11.688  -0.918  0.00  0.00    -0.060 S 
ATOM     23  C   UNL     1       4.816 -12.119  -0.369  0.00  0.00    +0.172 A 
ATOM     24  N   UNL     1       4.085 -11.065  -0.661  0.00  0.00    -0.228 NA
ATOM     25  N   UNL     1       4.420 -13.302   0.248  0.00  0.00    -0.219 N 
ATOM     26  C   UNL     1       3.119 -13.511   0.532  0.00  0.00    +0.223 C 
ATOM     27  O   UNL     1       2.306 -12.634   0.330  0.00  0.00    -0.275 OA
ATOM     28  C   UNL     1       2.676 -14.834   1.101  0.00  0.00    +0.110 C 
BRANCH  25  29
ATOM     29  C   UNL     1       5.374 -14.274   0.575  0.00  0.00    +0.043 A 
ATOM     30  C   UNL     1       5.590 -15.350  -0.276  0.00  0.00    +0.024 A 
ATOM     31  C   UNL     1       6.532 -16.307   0.048  0.00  0.00    +0.002 A 
ATOM     32  C   UNL     1       7.258 -16.195   1.220  0.00  0.00    +0.000 A 
ATOM     33  C   UNL     1       7.044 -15.126   2.070  0.00  0.00    +0.002 A 
ATOM     34  C   UNL     1       6.108 -14.162   1.748  0.00  0.00    +0.024 A 
ENDBRANCH  25  29
ENDBRANCH  19  20
ENDBRANCH  18  19
ENDBRANCH  12  18
TORSDOF 5
