REMARK  Name = ZINC09119898
REMARK  15 active torsions:
REMARK  status: ('A' for Active; 'I' for Inactive)
REMARK    1  A    between atoms: C_1  and  C_2
REMARK    2  A    between atoms: C_2  and  N_3
REMARK    3  A    between atoms: N_3  and  C_4
REMARK    4  A    between atoms: C_4  and  C_5
REMARK    5  A    between atoms: N_7  and  C_8
REMARK    6  A    between atoms: C_8  and  C_9
REMARK    7  A    between atoms: C_8  and  C_10
REMARK    8  A    between atoms: C_11  and  C_13
REMARK    9  A    between atoms: C_13  and  S_14
REMARK   10  A    between atoms: S_14  and  C_15
REMARK   11  A    between atoms: C_18  and  C_27
REMARK   12  A    between atoms: N_19  and  C_20
REMARK   13  A    between atoms: C_23  and  C_26
REMARK   14  A    between atoms: C_31  and  O_33
REMARK   15  A    between atoms: O_33  and  C_34
REMARK                            x       y       z     vdW  Elec       q    Type
REMARK                         _______ _______ _______ _____ _____    ______ ____
ROOT
ATOM      1  C   UNL     1       0.587  -0.829   0.924  0.00  0.00    +0.197 A 
ATOM      2  N   UNL     1       0.332  -2.065   0.556  0.00  0.00    -0.122 NA
ATOM      3  N   UNL     1      -0.333  -2.071  -0.543  0.00  0.00    -0.128 NA
ATOM      4  C   UNL     1      -0.549  -0.840  -0.945  0.00  0.00    +0.169 A 
ATOM      5  N   UNL     1       0.038  -0.004  -0.020  0.00  0.00    -0.270 N 
ENDROOT
BRANCH   5   6
ATOM      6  C   UNL     1       0.064   1.397  -0.039  0.00  0.00    +0.051 A 
ATOM      7  C   UNL     1      -1.110   2.116   0.141  0.00  0.00    +0.026 A 
ATOM      8  C   UNL     1      -1.081   3.497   0.128  0.00  0.00    +0.005 A 
ATOM      9  C   UNL     1       0.114   4.163  -0.076  0.00  0.00    -0.050 A 
ATOM     10  C   UNL     1       1.283   3.450  -0.261  0.00  0.00    +0.005 A 
ATOM     11  C   UNL     1       1.262   2.069  -0.243  0.00  0.00    +0.026 A 
ATOM     12  C   UNL     1       0.141   5.670  -0.096  0.00  0.00    +0.044 C 
ENDBRANCH   5   6
BRANCH   4  13
ATOM     13  C   UNL     1      -1.282  -0.427  -2.161  0.00  0.00    +0.023 A 
ATOM     14  C   UNL     1      -2.128  -1.330  -2.808  0.00  0.00    +0.012 A 
ATOM     15  C   UNL     1      -2.814  -0.940  -3.940  0.00  0.00    +0.004 A 
ATOM     16  C   UNL     1      -2.659   0.339  -4.442  0.00  0.00    +0.045 A 
ATOM     17  C   UNL     1      -1.816   1.241  -3.808  0.00  0.00    +0.121 A 
ATOM     18  C   UNL     1      -1.126   0.862  -2.668  0.00  0.00    +0.057 A 
BRANCH  17  19
ATOM     19  O   UNL     1      -1.667   2.497  -4.306  0.00  0.00    -0.495 OA
ATOM     20  C   UNL     1      -2.408   2.820  -5.484  0.00  0.00    +0.277 C 
ENDBRANCH  17  19
ENDBRANCH   4  13
BRANCH   1  21
ATOM     21  S   UNL     1       1.471  -0.328   2.364  0.00  0.00    -0.076 S 
BRANCH  21  22
ATOM     22  C   UNL     1       1.857  -1.947   3.075  0.00  0.00    +0.173 C 
BRANCH  22  24
ATOM     23  N   UNL     1       3.034  -2.837   5.060  0.00  0.00    -0.292 N 
ATOM     24  C   UNL     1       2.635  -1.762   4.352  0.00  0.00    +0.226 C 
ATOM     25  O   UNL     1       2.901  -0.645   4.744  0.00  0.00    -0.275 OA
BRANCH  23  27
ATOM     26  C   UNL     1       3.834  -4.688   3.676  0.00  0.00    +0.024 C 
ATOM     27  C   UNL     1       2.712  -4.186   4.587  0.00  0.00    +0.105 C 
ENDBRANCH  23  27
BRANCH  23  28
ATOM     28  C   UNL     1       3.790  -2.657   6.302  0.00  0.00    +0.203 C 
BRANCH  28  29
ATOM     29  C   UNL     1       2.833  -2.562   7.463  0.00  0.00    +0.231 C 
ATOM     30  O   UNL     1       1.638  -2.638   7.271  0.00  0.00    -0.274 OA
ATOM     31  N   UNL     1       3.306  -2.394   8.714  0.00  0.00    -0.312 N 
ATOM     32  H   UNL     1       4.262  -2.334   8.867  0.00  0.00    +0.149 HD
BRANCH  31  33
ATOM     33  C   UNL     1       2.376  -2.303   9.842  0.00  0.00    +0.067 C 
ATOM     34  C   UNL     1       3.088  -2.734  11.126  0.00  0.00    +0.027 C 
ATOM     35  C   UNL     1       1.892  -0.859   9.988  0.00  0.00    +0.027 C 
ENDBRANCH  31  33
ENDBRANCH  28  29
ENDBRANCH  23  28
ENDBRANCH  22  24
ENDBRANCH  21  22
ENDBRANCH   1  21
TORSDOF 10
