REMARK  Name = ZINC06419992
REMARK  14 active torsions:
REMARK  status: ('A' for Active; 'I' for Inactive)
REMARK    1  A    between atoms: C_1  and  C_2
REMARK    2  A    between atoms: C_2  and  O_3
REMARK    3  A    between atoms: O_3  and  C_4
REMARK    4  A    between atoms: C_6  and  C_14
REMARK    5  A    between atoms: C_9  and  O_10
REMARK    6  A    between atoms: O_10  and  C_11
REMARK    7  A    between atoms: C_11  and  C_12
REMARK    8  A    between atoms: C_11  and  C_13
REMARK    9  A    between atoms: C_17  and  C_28
REMARK   10  A    between atoms: C_23  and  N_27
REMARK   11  A    between atoms: C_24  and  C_25
REMARK   12  A    between atoms: C_28  and  C_29
REMARK   13  A    between atoms: C_28  and  C_30
REMARK   14  A    between atoms: C_28  and  C_31
REMARK                            x       y       z     vdW  Elec       q    Type
REMARK                         _______ _______ _______ _____ _____    ______ ____
ROOT
ATOM      1  C   UNL     1       0.097  -5.485   1.143  0.00  0.00    +0.101 C 
ATOM      2  C   UNL     1       1.196  -6.290   0.499  0.00  0.00    +0.050 A 
ATOM      3  C   UNL     1       1.787  -6.131  -0.748  0.00  0.00    +0.076 A 
ATOM      4  N   UNL     1       2.701  -7.062  -0.887  0.00  0.00    -0.175 NA
ATOM      5  N   UNL     1       2.717  -7.845   0.278  0.00  0.00    -0.246 N 
ATOM      6  H   UNL     1       3.296  -8.605   0.447  0.00  0.00    +0.192 HD
ATOM      7  C   UNL     1       1.789  -7.356   1.115  0.00  0.00    +0.222 A 
ATOM      8  O   UNL     1       1.436  -7.773   2.357  0.00  0.00    -0.423 OA
ATOM      9  C   UNL     1       0.670  -6.947   3.099  0.00  0.00    +0.200 C 
ATOM     10  C   UNL     1       0.024  -5.869   2.600  0.00  0.00    +0.098 C 
ENDROOT
BRANCH   1  13
ATOM     11  C   UNL     1      -3.279  -5.036  -0.492  0.00  0.00    +0.162 A 
ATOM     12  C   UNL     1      -2.071  -4.758   0.127  0.00  0.00    +0.054 A 
ATOM     13  C   UNL     1      -1.217  -5.790   0.470  0.00  0.00    -0.031 A 
ATOM     14  C   UNL     1      -1.565  -7.099   0.198  0.00  0.00    +0.008 A 
ATOM     15  C   UNL     1      -2.769  -7.384  -0.419  0.00  0.00    +0.050 A 
ATOM     16  C   UNL     1      -3.632  -6.355  -0.761  0.00  0.00    +0.162 A 
BRANCH  11  17
ATOM     17  O   UNL     1      -4.120  -4.023  -0.831  0.00  0.00    -0.489 OA
BRANCH  17  19
ATOM     18  C   UNL     1      -4.761  -1.697  -0.976  0.00  0.00    +0.048 C 
ATOM     19  C   UNL     1      -3.692  -2.694  -0.524  0.00  0.00    +0.226 C 
ENDBRANCH  17  19
ENDBRANCH  11  17
BRANCH  16  20
ATOM     20  O   UNL     1      -4.820  -6.633  -1.363  0.00  0.00    -0.486 OA
BRANCH  20  21
ATOM     21  C   UNL     1      -5.072  -7.999  -1.700  0.00  0.00    +0.167 C 
ATOM     22  C   UNL     1      -5.622  -8.733  -0.476  0.00  0.00    +0.051 C 
ATOM     23  C   UNL     1      -6.095  -8.063  -2.836  0.00  0.00    +0.051 C 
ENDBRANCH  20  21
ENDBRANCH  16  20
ENDBRANCH   1  13
BRANCH   3  24
ATOM     24  C   UNL     1       1.439  -5.074  -1.764  0.00  0.00    +0.007 C 
ATOM     25  C   UNL     1       1.500  -3.694  -1.105  0.00  0.00    +0.017 C 
ATOM     26  C   UNL     1       2.437  -5.131  -2.922  0.00  0.00    +0.017 C 
ATOM     27  C   UNL     1       0.026  -5.322  -2.295  0.00  0.00    +0.017 C 
ENDBRANCH   3  24
BRANCH   9  28
ATOM     28  N   UNL     1       0.538  -7.218   4.438  0.00  0.00    -0.328 N 
ATOM     29  H   UNL     1       0.989  -7.984   4.825  0.00  0.00    +0.145 HD
ATOM     30  H   UNL     1      -0.007  -6.642   4.997  0.00  0.00    +0.145 HD
ENDBRANCH   9  28
BRANCH  10  31
ATOM     31  C   UNL     1      -0.759  -5.062   3.487  0.00  0.00    +0.101 C 
ATOM     32  N   UNL     1      -1.379  -4.421   4.191  0.00  0.00    -0.191 NA
ENDBRANCH  10  31
TORSDOF 8
