REMARK  Name = ZINC20842175
REMARK  13 active torsions:
REMARK  status: ('A' for Active; 'I' for Inactive)
REMARK    1  A    between atoms: C_1  and  C_2
REMARK    2  A    between atoms: C_2  and  C_25
REMARK    3  A    between atoms: C_4  and  N_10
REMARK    4  A    between atoms: C_6  and  C_8
REMARK    5  A    between atoms: C_6  and  C_9
REMARK    6  A    between atoms: C_11  and  C_13
REMARK    7  A    between atoms: C_13  and  S_14
REMARK    8  A    between atoms: S_14  and  C_15
REMARK    9  A    between atoms: C_18  and  C_21
REMARK   10  A    between atoms: N_19  and  N_20
REMARK   11  A    between atoms: C_21  and  C_22
REMARK   12  A    between atoms: C_21  and  C_23
REMARK   13  A    between atoms: C_21  and  C_24
REMARK                            x       y       z     vdW  Elec       q    Type
REMARK                         _______ _______ _______ _____ _____    ______ ____
ROOT
ATOM      1  N   UNL     1       2.599   2.616  -6.550  0.00  0.00    -0.312 N 
ATOM      2  C   UNL     1       2.506   2.217  -5.266  0.00  0.00    +0.224 C 
ATOM      3  O   UNL     1       3.494   1.830  -4.678  0.00  0.00    -0.275 OA
ATOM      4  H   UNL     1       1.703   2.967  -7.083  0.00  0.00    +0.149 HD
ENDROOT
BRANCH   1   8
ATOM      5  C   UNL     1       5.664   1.079  -9.317  0.00  0.00    -0.010 C 
ATOM      6  C   UNL     1       4.997   2.449  -9.488  0.00  0.00    -0.072 C 
ATOM      7  C   UNL     1       3.664   2.464  -8.744  0.00  0.00    +0.009 C 
ATOM      8  C   UNL     1       3.896   2.581  -7.238  0.00  0.00    +0.070 C 
ATOM      9  C   UNL     1       4.647   3.884  -6.962  0.00  0.00    +0.009 C 
ATOM     10  C   UNL     1       5.993   3.884  -7.683  0.00  0.00    -0.072 C 
ATOM     11  N   UNL     1       5.885   3.518  -9.080  0.00  0.00    +0.386 N 
ATOM     12  C   UNL     1       6.971   2.964  -6.943  0.00  0.00    -0.010 C 
ATOM     13  C   UNL     1       6.564   5.317  -7.602  0.00  0.00    -0.010 C 
ATOM     14  C   UNL     1       4.692   2.624 -10.992  0.00  0.00    -0.010 C 
ATOM     15  H   UNL     1       6.917   3.267  -9.366  0.00  0.00    -0.084 HD
ATOM     16  H   UNL     1       5.584   4.454  -9.574  0.00  0.00    -0.084 HD
ENDBRANCH   1   8
BRANCH   2  17
ATOM     17  C   UNL     1       1.175   2.253  -4.560  0.00  0.00    +0.173 C 
BRANCH  17  18
ATOM     18  S   UNL     1       1.377   1.661  -2.862  0.00  0.00    -0.075 S 
BRANCH  18  19
ATOM     19  C   UNL     1      -0.282   1.804  -2.288  0.00  0.00    +0.209 A 
ATOM     20  N   UNL     1      -1.313   2.232  -2.980  0.00  0.00    -0.121 NA
ATOM     21  N   UNL     1      -2.369   2.211  -2.248  0.00  0.00    -0.131 NA
ATOM     22  C   UNL     1      -2.079   1.768  -1.057  0.00  0.00    +0.156 A 
ATOM     23  N   UNL     1      -0.741   1.490  -1.041  0.00  0.00    -0.227 N 
BRANCH  22  24
ATOM     24  C   UNL     1      -3.042   1.595   0.090  0.00  0.00    +0.024 C 
ATOM     25  C   UNL     1      -2.591   2.461   1.268  0.00  0.00    +0.019 C 
ATOM     26  C   UNL     1      -4.443   2.022  -0.351  0.00  0.00    +0.019 C 
ATOM     27  C   UNL     1      -3.067   0.126   0.517  0.00  0.00    +0.019 C 
ENDBRANCH  22  24
BRANCH  23  28
ATOM     28  N   UNL     1      -0.012   1.005   0.008  0.00  0.00    -0.295 N 
ATOM     29  H   UNL     1      -0.504   0.791   0.968  0.00  0.00    +0.163 HD
ATOM     30  H   UNL     1       1.068   0.828  -0.108  0.00  0.00    +0.163 HD
ENDBRANCH  23  28
ENDBRANCH  18  19
ENDBRANCH  17  18
ENDBRANCH   2  17
TORSDOF 6
