REMARK  Name = ZINC08089686
REMARK  7 active torsions:
REMARK  status: ('A' for Active; 'I' for Inactive)
REMARK    1  A    between atoms: C_1  and  O_2
REMARK    2  A    between atoms: O_2  and  C_3
REMARK    3  A    between atoms: C_8  and  N_9
REMARK    4  A    between atoms: C_13  and  S_15
REMARK    5  A    between atoms: S_15  and  C_16
REMARK    6  A    between atoms: C_16  and  C_17
REMARK    7  A    between atoms: C_20  and  C_22
REMARK                            x       y       z     vdW  Elec       q    Type
REMARK                         _______ _______ _______ _____ _____    ______ ____
ROOT
ATOM      1  N   UNL     1      -2.072   2.376   3.440  0.00  0.00    -0.289 N 
ATOM      2  C   UNL     1      -2.812   2.868   4.509  0.00  0.00    +0.187 A 
ATOM      3  N   UNL     1      -4.066   2.628   4.838  0.00  0.00    -0.125 NA
ATOM      4  N   UNL     1      -4.608   3.224   5.953  0.00  0.00    -0.133 NA
ATOM      5  C   UNL     1      -3.873   4.041   6.683  0.00  0.00    +0.160 A 
ATOM      6  S   UNL     1      -2.320   4.000   5.800  0.00  0.00    -0.024 S 
ATOM      7  H   UNL     1      -1.178   2.713   3.273  0.00  0.00    +0.154 HD
ENDROOT
BRANCH   1  13
ATOM      8  C   UNL     1      -1.958   1.030   1.432  0.00  0.00    +0.141 A 
ATOM      9  C   UNL     1      -2.499   0.055   0.611  0.00  0.00    +0.047 A 
ATOM     10  C   UNL     1      -3.695  -0.550   0.952  0.00  0.00    +0.004 A 
ATOM     11  C   UNL     1      -4.353  -0.185   2.112  0.00  0.00    +0.002 A 
ATOM     12  C   UNL     1      -3.820   0.787   2.936  0.00  0.00    +0.027 A 
ATOM     13  C   UNL     1      -2.618   1.395   2.603  0.00  0.00    +0.075 A 
BRANCH   8  15
ATOM     14  C   UNL     1      -0.159   1.198  -0.115  0.00  0.00    +0.277 C 
ATOM     15  O   UNL     1      -0.782   1.627   1.098  0.00  0.00    -0.493 OA
ENDBRANCH   8  15
ENDBRANCH   1  13
BRANCH   5  16
ATOM     16  S   UNL     1      -4.306   4.934   8.139  0.00  0.00    -0.091 S 
BRANCH  16  17
ATOM     17  C   UNL     1      -6.037   4.478   8.434  0.00  0.00    +0.135 C 
BRANCH  17  18
ATOM     18  C   UNL     1      -6.538   5.183   9.669  0.00  0.00    +0.090 A 
ATOM     19  C   UNL     1      -7.126   6.391   9.706  0.00  0.00    +0.221 A 
ATOM     20  O   UNL     1      -7.423   6.654  10.996  0.00  0.00    -0.443 OA
ATOM     21  C   UNL     1      -7.013   5.605  11.731  0.00  0.00    +0.234 A 
ATOM     22  N   UNL     1      -6.482   4.712  10.924  0.00  0.00    -0.213 NA
BRANCH  21  23
ATOM     23  C   UNL     1      -7.143   5.475  13.190  0.00  0.00    +0.074 A 
ATOM     24  C   UNL     1      -7.690   6.362  14.099  0.00  0.00    +0.021 A 
ATOM     25  C   UNL     1      -7.698   6.014  15.429  0.00  0.00    +0.008 A 
ATOM     26  C   UNL     1      -7.172   4.819  15.807  0.00  0.00    +0.046 A 
ATOM     27  S   UNL     1      -6.641   4.128  14.249  0.00  0.00    -0.092 S 
ENDBRANCH  21  23
ENDBRANCH  17  18
ENDBRANCH  16  17
ENDBRANCH   5  16
TORSDOF 6
