REMARK  Name = ZINC22227574
REMARK  12 active torsions:
REMARK  status: ('A' for Active; 'I' for Inactive)
REMARK    1  A    between atoms: C_1  and  C_2
REMARK    2  A    between atoms: C_4  and  C_31
REMARK    3  A    between atoms: C_8  and  N_30
REMARK    4  A    between atoms: C_9  and  C_11
REMARK    5  A    between atoms: C_11  and  O_13
REMARK    6  A    between atoms: O_13  and  C_14
REMARK    7  A    between atoms: C_14  and  C_15
REMARK    8  A    between atoms: C_18  and  C_20
REMARK    9  A    between atoms: C_24  and  O_28
REMARK   10  A    between atoms: C_25  and  O_26
REMARK   11  A    between atoms: O_26  and  C_27
REMARK   12  A    between atoms: O_28  and  C_29
REMARK                            x       y       z     vdW  Elec       q    Type
REMARK                         _______ _______ _______ _____ _____    ______ ____
ROOT
ATOM      1  C   UNL     1       1.098   6.734   0.644  0.00  0.00    +0.348 C 
ATOM      2  O   UNL     1       0.223   7.577   0.709  0.00  0.00    -0.244 OA
ENDROOT
BRANCH   1  11
ATOM      3  C   UNL     1      -3.020   3.197   1.714  0.00  0.00    +0.044 C 
ATOM      4  C   UNL     1      -1.663   2.564   1.544  0.00  0.00    -0.037 A 
ATOM      5  C   UNL     1      -1.510   1.202   1.650  0.00  0.00    +0.025 A 
ATOM      6  C   UNL     1      -0.259   0.622   1.499  0.00  0.00    +0.014 A 
ATOM      7  N   UNL     1       0.797   1.369   1.242  0.00  0.00    -0.353 N 
ATOM      8  C   UNL     1       0.701   2.676   1.125  0.00  0.00    +0.088 A 
ATOM      9  C   UNL     1      -0.526   3.363   1.266  0.00  0.00    +0.030 A 
ATOM     10  C   UNL     1      -0.448   4.807   1.106  0.00  0.00    +0.055 A 
ATOM     11  C   UNL     1       0.782   5.369   0.838  0.00  0.00    +0.119 A 
ATOM     12  S   UNL     1       1.877   3.964   0.792  0.00  0.00    -0.062 S 
ATOM     13  C   UNL     1      -0.107  -0.872   1.624  0.00  0.00    +0.063 C 
ATOM     14  H   UNL     1       1.785   0.901   1.119  0.00  0.00    +0.166 HD
BRANCH  10  15
ATOM     15  N   UNL     1      -1.582   5.598   1.222  0.00  0.00    -0.356 N 
ATOM     16  H   UNL     1      -1.506   6.688   1.098  0.00  0.00    +0.142 HD
ATOM     17  H   UNL     1      -2.556   5.134   1.437  0.00  0.00    +0.142 HD
ENDBRANCH  10  15
ENDBRANCH   1  11
BRANCH   1  18
ATOM     18  O   UNL     1       2.372   7.102   0.388  0.00  0.00    -0.454 OA
BRANCH  18  19
ATOM     19  C   UNL     1       2.619   8.498   0.203  0.00  0.00    +0.288 C 
BRANCH  19  20
ATOM     20  C   UNL     1       4.085   8.716  -0.071  0.00  0.00    +0.086 A 
ATOM     21  C   UNL     1       4.935   7.656  -0.110  0.00  0.00    +0.074 A 
ATOM     22  S   UNL     1       6.480   8.485  -0.460  0.00  0.00    -0.075 S 
ATOM     23  C   UNL     1       5.827  10.149  -0.517  0.00  0.00    +0.112 A 
ATOM     24  N   UNL     1       4.541   9.929  -0.279  0.00  0.00    -0.240 NA
BRANCH  23  25
ATOM     25  C   UNL     1       6.530  11.424  -0.768  0.00  0.00    +0.052 A 
ATOM     26  C   UNL     1       5.820  12.627  -0.774  0.00  0.00    +0.014 A 
ATOM     27  C   UNL     1       6.479  13.816  -1.004  0.00  0.00    +0.004 A 
ATOM     28  C   UNL     1       7.843  13.823  -1.240  0.00  0.00    +0.049 A 
ATOM     29  C   UNL     1       8.559  12.637  -1.242  0.00  0.00    +0.162 A 
ATOM     30  C   UNL     1       7.908  11.432  -1.006  0.00  0.00    +0.171 A 
BRANCH  30  31
ATOM     31  O   UNL     1       8.607  10.266  -1.008  0.00  0.00    -0.491 OA
ATOM     32  C   UNL     1       8.725   9.582  -2.257  0.00  0.00    +0.277 C 
ENDBRANCH  30  31
BRANCH  29  33
ATOM     33  O   UNL     1       9.899  12.652  -1.474  0.00  0.00    -0.491 OA
ATOM     34  C   UNL     1      10.503  13.925  -1.709  0.00  0.00    +0.277 C 
ENDBRANCH  29  33
ENDBRANCH  23  25
ENDBRANCH  19  20
ENDBRANCH  18  19
ENDBRANCH   1  18
TORSDOF 8
