REMARK  Name = ZINC37063435
REMARK  4 active torsions:
REMARK  status: ('A' for Active; 'I' for Inactive)
REMARK    1  A    between atoms: C_2  and  N_21
REMARK    2  A    between atoms: C_5  and  S_8
REMARK    3  A    between atoms: S_8  and  N_11
REMARK    4  A    between atoms: C_14  and  C_17
REMARK                            x       y       z     vdW  Elec       q    Type
REMARK                         _______ _______ _______ _____ _____    ______ ____
ROOT
ATOM      1  S   UNL     1       1.229  -2.443  -0.024  0.00  0.00    +0.064 S 
ATOM      2  O   UNL     1      -0.017  -2.860  -0.565  0.00  0.00    -0.153 OA
ATOM      3  O   UNL     1       2.474  -2.831  -0.589  0.00  0.00    -0.153 OA
ENDROOT
BRANCH   1   8
ATOM      4  C   UNL     1      -0.017   1.378   0.010  0.00  0.00    +0.044 A 
ATOM      5  C   UNL     1       1.177   2.088   0.002  0.00  0.00    +0.027 A 
ATOM      6  C   UNL     1       2.387   1.406  -0.013  0.00  0.00    +0.044 A 
ATOM      7  C   UNL     1       2.400   0.023  -0.021  0.00  0.00    +0.070 A 
ATOM      8  C   UNL     1       1.209  -0.681  -0.014  0.00  0.00    +0.142 A 
ATOM      9  C   UNL     1       0.002  -0.004   0.002  0.00  0.00    +0.070 A 
ATOM     10 CL   UNL     1      -1.490  -0.892   0.011  0.00  0.00    -0.081 Cl
ATOM     11 CL   UNL     1       3.912  -0.830  -0.040  0.00  0.00    -0.081 Cl
BRANCH   5  12
ATOM     12  N   UNL     1       1.161   3.484   0.009  0.00  0.00    -0.358 N 
ATOM     13  H   UNL     1       0.316   3.959   0.019  0.00  0.00    +0.142 HD
ATOM     14  H   UNL     1       1.996   3.979   0.004  0.00  0.00    +0.142 HD
ENDBRANCH   5  12
ENDBRANCH   1   8
BRANCH   1  15
ATOM     15  N   UNL     1       1.250  -2.941   1.555  0.00  0.00    -0.176 NA
ATOM     16  C   UNL     1       2.523  -3.146   2.259  0.00  0.00    +0.110 C 
ATOM     17  C   UNL     1       2.506  -2.332   3.557  0.00  0.00    +0.030 C 
ATOM     18  C   UNL     1       1.268  -2.708   4.374  0.00  0.00    +0.077 C 
ATOM     19  C   UNL     1       0.006  -2.372   3.576  0.00  0.00    +0.030 C 
ATOM     20  C   UNL     1      -0.005  -3.181   2.281  0.00  0.00    +0.110 C 
BRANCH  18  21
ATOM     21  C   UNL     1       1.266  -1.934   5.667  0.00  0.00    +0.214 C 
ATOM     22  O   UNL     1       2.165  -1.158   5.910  0.00  0.00    -0.276 OA
ATOM     23  N   UNL     1       0.264  -2.104   6.552  0.00  0.00    -0.329 N 
ATOM     24  H   UNL     1      -0.456  -2.725   6.358  0.00  0.00    +0.145 HD
ATOM     25  H   UNL     1       0.262  -1.606   7.385  0.00  0.00    +0.145 HD
ENDBRANCH  18  21
ENDBRANCH   1  15
TORSDOF 4
