REMARK  Name = ZINC11910283
REMARK  10 active torsions:
REMARK  status: ('A' for Active; 'I' for Inactive)
REMARK    1  A    between atoms: C_1  and  C_2
REMARK    2  A    between atoms: C_3  and  C_4
REMARK    3  A    between atoms: C_3  and  C_5
REMARK    4  A    between atoms: C_5  and  N_64
REMARK    5  A    between atoms: C_7  and  S_26
REMARK    6  A    between atoms: C_10  and  C_12
REMARK    7  A    between atoms: N_14  and  C_15
REMARK    8  A    between atoms: N_14  and  C_16
REMARK    9  A    between atoms: C_16  and  C_17
REMARK   10  A    between atoms: S_26  and  C_27
REMARK                            x       y       z     vdW  Elec       q    Type
REMARK                         _______ _______ _______ _____ _____    ______ ____
ROOT
ATOM      1  C   UNL     1      -3.276   9.998   4.886  0.00  0.00    -0.063 C 
ATOM      2  C   UNL     1      -4.651  10.019   4.172  0.00  0.00    +0.037 C 
ATOM      3  C   UNL     1      -4.763   8.588   3.597  0.00  0.00    +0.006 C 
ATOM      4  C   UNL     1      -3.314   8.073   3.513  0.00  0.00    +0.021 C 
ATOM      5  N   UNL     1      -2.465   9.174   3.984  0.00  0.00    +0.390 N 
ATOM      6  H   UNL     1      -2.153   9.738   3.185  0.00  0.00    -0.080 HD
ENDROOT
BRANCH   4   7
ATOM      7  C   UNL     1      -2.975   7.723   2.087  0.00  0.00    +0.202 C 
ATOM      8  O   UNL     1      -2.091   8.320   1.510  0.00  0.00    -0.277 OA
ATOM      9  N   UNL     1      -3.655   6.747   1.454  0.00  0.00    -0.301 N 
ATOM     10  C   UNL     1      -4.723   6.026   2.151  0.00  0.00    +0.132 C 
BRANCH   9  11
ATOM     11  C   UNL     1      -3.325   6.406   0.067  0.00  0.00    +0.149 C 
BRANCH  11  12
ATOM     12  C   UNL     1      -2.267   5.333   0.051  0.00  0.00    +0.008 A 
ATOM     13  C   UNL     1      -2.434   4.003   0.046  0.00  0.00    +0.021 A 
ATOM     14  C   UNL     1      -1.264   3.138   0.031  0.00  0.00    -0.011 A 
ATOM     15  C   UNL     1      -1.208   1.724   0.017  0.00  0.00    +0.009 A 
ATOM     16  C   UNL     1      -0.013   1.076   0.008  0.00  0.00    +0.001 A 
ATOM     17  C   UNL     1       1.190   1.770   0.000  0.00  0.00    +0.001 A 
ATOM     18  C   UNL     1       1.178   3.151   0.008  0.00  0.00    +0.015 A 
ATOM     19  C   UNL     1      -0.028   3.820   0.023  0.00  0.00    +0.020 A 
ATOM     20  S   UNL     1      -0.496   5.531   0.036  0.00  0.00    -0.092 S 
ENDBRANCH  11  12
ENDBRANCH   9  11
ENDBRANCH   4   7
BRANCH   5  21
ATOM     21  C   UNL     1      -1.268   8.634   4.698  0.00  0.00    -0.047 C 
BRANCH  21  24
ATOM     22  C   UNL     1      -0.042  11.177   7.301  0.00  0.00    +0.035 C 
ATOM     23  C   UNL     1      -0.777  10.048   6.627  0.00  0.00    -0.033 C 
ATOM     24  C   UNL     1      -0.533   9.764   5.372  0.00  0.00    -0.093 C 
ATOM     25  C   UNL     1       0.483  10.567   4.601  0.00  0.00    +0.037 C 
ENDBRANCH  21  24
ENDBRANCH   5  21
BRANCH   2  26
ATOM     26  S   UNL     1      -5.983  10.340   5.354  0.00  0.00    -0.086 S 
BRANCH  26  27
ATOM     27  C   UNL     1      -5.590  11.994   5.816  0.00  0.00    +0.167 A 
ATOM     28  N   UNL     1      -6.297  12.750   6.708  0.00  0.00    -0.333 N 
ATOM     29  H   UNL     1      -7.117  12.467   7.206  0.00  0.00    +0.168 HD
ATOM     30  C   UNL     1      -5.666  13.980   6.795  0.00  0.00    +0.067 A 
ATOM     31  C   UNL     1      -5.910  15.137   7.520  0.00  0.00    +0.028 A 
ATOM     32  C   UNL     1      -5.076  16.226   7.377  0.00  0.00    +0.002 A 
ATOM     33  C   UNL     1      -3.993  16.173   6.512  0.00  0.00    +0.002 A 
ATOM     34  C   UNL     1      -3.736  15.033   5.784  0.00  0.00    +0.030 A 
ATOM     35  C   UNL     1      -4.571  13.921   5.917  0.00  0.00    +0.090 A 
ATOM     36  N   UNL     1      -4.578  12.686   5.351  0.00  0.00    -0.222 NA
ENDBRANCH  26  27
ENDBRANCH   2  26
TORSDOF 7
