REMARK  Name = ZINC36523720
REMARK  16 active torsions:
REMARK  status: ('A' for Active; 'I' for Inactive)
REMARK    1  A    between atoms: C_1  and  C_2
REMARK    2  A    between atoms: C_2  and  C_3
REMARK    3  A    between atoms: C_2  and  C_4
REMARK    4  A    between atoms: C_2  and  C_5
REMARK    5  A    between atoms: C_5  and  C_6
REMARK    6  A    between atoms: C_6  and  C_7
REMARK    7  A    between atoms: C_6  and  C_8
REMARK    8  A    between atoms: C_6  and  N_9
REMARK    9  A    between atoms: C_10  and  C_12
REMARK   10  A    between atoms: C_12  and  C_14
REMARK   11  A    between atoms: C_12  and  N_19
REMARK   12  A    between atoms: N_19  and  C_20
REMARK   13  A    between atoms: C_21  and  C_23
REMARK   14  A    between atoms: C_29  and  O_31
REMARK   15  A    between atoms: O_31  and  C_32
REMARK   16  A    between atoms: C_32  and  C_33
REMARK                            x       y       z     vdW  Elec       q    Type
REMARK                         _______ _______ _______ _____ _____    ______ ____
ROOT
ATOM      1  N   UNL     1       6.752  -0.059  -4.135  0.00  0.00    -0.285 N 
ATOM      2  C   UNL     1       7.083   1.342  -3.867  0.00  0.00    +0.133 C 
ATOM      3  C   UNL     1       7.736  -0.974  -4.251  0.00  0.00    +0.237 C 
ATOM      4  O   UNL     1       7.461  -2.134  -4.473  0.00  0.00    -0.274 OA
ENDROOT
BRANCH   3   5
ATOM      5  C   UNL     1       9.176  -0.554  -4.106  0.00  0.00    +0.165 C 
ATOM      6  C   UNL     1       9.675   0.074  -5.423  0.00  0.00    +0.033 C 
ATOM      7  C   UNL     1      11.130  -0.454  -5.532  0.00  0.00    +0.021 C 
ATOM      8  C   UNL     1      10.989  -1.877  -4.936  0.00  0.00    +0.112 C 
ATOM      9  N   UNL     1      10.014  -1.731  -3.835  0.00  0.00    -0.256 N 
ATOM     10  C   UNL     1       9.910  -2.540  -2.761  0.00  0.00    +0.404 C 
ATOM     11  O   UNL     1       9.066  -2.321  -1.915  0.00  0.00    -0.226 OA
BRANCH  10  12
ATOM     12  O   UNL     1      10.741  -3.591  -2.627  0.00  0.00    -0.445 OA
BRANCH  12  13
ATOM     13  C   UNL     1      10.573  -4.406  -1.465  0.00  0.00    +0.269 C 
BRANCH  13  14
ATOM     14  C   UNL     1      11.584  -5.524  -1.486  0.00  0.00    -0.010 A 
ATOM     15  C   UNL     1      11.273  -6.724  -2.096  0.00  0.00    +0.007 A 
ATOM     16  C   UNL     1      12.200  -7.750  -2.115  0.00  0.00    +0.000 A 
ATOM     17  C   UNL     1      13.437  -7.575  -1.524  0.00  0.00    +0.000 A 
ATOM     18  C   UNL     1      13.748  -6.373  -0.915  0.00  0.00    +0.000 A 
ATOM     19  C   UNL     1      12.823  -5.346  -0.900  0.00  0.00    +0.007 A 
ENDBRANCH  13  14
ENDBRANCH  12  13
ENDBRANCH  10  12
ENDBRANCH   3   5
BRANCH   1  20
ATOM     20  C   UNL     1       5.352  -0.467  -4.276  0.00  0.00    +0.228 C 
BRANCH  20  21
ATOM     21  C   UNL     1       4.725   0.281  -5.424  0.00  0.00    +0.134 A 
ATOM     22  C   UNL     1       3.862  -0.232  -6.320  0.00  0.00    +0.047 A 
ATOM     23  C   UNL     1       3.530   0.812  -7.214  0.00  0.00    +0.041 A 
ATOM     24  C   UNL     1       4.210   1.900  -6.811  0.00  0.00    +0.195 A 
ATOM     25  O   UNL     1       4.927   1.574  -5.723  0.00  0.00    -0.465 OA
ENDBRANCH  20  21
BRANCH  20  27
ATOM     26  N   UNL     1       3.295  -0.443  -2.904  0.00  0.00    -0.308 N 
ATOM     27  C   UNL     1       4.607  -0.153  -3.005  0.00  0.00    +0.242 C 
ATOM     28  O   UNL     1       5.188   0.360  -2.072  0.00  0.00    -0.273 OA
ATOM     29  H   UNL     1       2.830  -0.854  -3.650  0.00  0.00    +0.149 HD
BRANCH  26  30
ATOM     30  C   UNL     1       2.570  -0.138  -1.668  0.00  0.00    +0.030 C 
ATOM     31  C   UNL     1       2.770   1.336  -1.310  0.00  0.00    +0.031 C 
ATOM     32  C   UNL     1       3.104  -1.016  -0.534  0.00  0.00    +0.031 C 
BRANCH  30  33
ATOM     33  C   UNL     1       1.079  -0.416  -1.869  0.00  0.00    +0.031 C 
BRANCH  33  35
ATOM     34  C   UNL     1       1.004  -0.865  -4.325  0.00  0.00    +0.010 C 
ATOM     35  C   UNL     1       0.636   0.134  -3.226  0.00  0.00    -0.036 C 
ATOM     36  C   UNL     1       1.340   1.466  -3.491  0.00  0.00    +0.010 C 
ATOM     37  C   UNL     1      -0.878   0.350  -3.220  0.00  0.00    +0.010 C 
ENDBRANCH  33  35
ENDBRANCH  30  33
ENDBRANCH  26  30
ENDBRANCH  20  27
ENDBRANCH   1  20
TORSDOF 10
