REMARK  Name = ZINC13495374
REMARK  13 active torsions:
REMARK  status: ('A' for Active; 'I' for Inactive)
REMARK    1  A    between atoms: C_1  and  C_2
REMARK    2  A    between atoms: C_2  and  C_3
REMARK    3  A    between atoms: C_3  and  C_5
REMARK    4  A    between atoms: C_3  and  N_18
REMARK    5  A    between atoms: N_9  and  C_10
REMARK    6  A    between atoms: C_10  and  C_11
REMARK    7  A    between atoms: N_18  and  C_19
REMARK    8  A    between atoms: N_18  and  C_28
REMARK    9  A    between atoms: C_19  and  C_20
REMARK   10  A    between atoms: C_25  and  O_26
REMARK   11  A    between atoms: O_26  and  C_27
REMARK   12  A    between atoms: C_28  and  C_29
REMARK   13  A    between atoms: C_33  and  C_41
REMARK                            x       y       z     vdW  Elec       q    Type
REMARK                         _______ _______ _______ _____ _____    ______ ____
ROOT
ATOM      1  N   UNL     1      -2.837   4.842   2.312  0.00  0.00    -0.284 NA
ENDROOT
BRANCH   1   2
ATOM      2  C   UNL     1      -3.902   5.851   2.382  0.00  0.00    +0.127 C 
BRANCH   2   3
ATOM      3  C   UNL     1      -3.300   7.226   2.256  0.00  0.00    +0.169 A 
ATOM      4  N   UNL     1      -2.321   7.582   1.461  0.00  0.00    -0.112 NA
ATOM      5  N   UNL     1      -2.095   8.838   1.645  0.00  0.00    -0.023 NA
ATOM      6  N   UNL     1      -2.906   9.291   2.536  0.00  0.00    -0.044 NA
ATOM      7  N   UNL     1      -3.668   8.330   2.934  0.00  0.00    -0.223 N 
BRANCH   7   8
ATOM      8  C   UNL     1      -4.733   8.421   3.936  0.00  0.00    +0.182 C 
BRANCH   8   9
ATOM      9  C   UNL     1      -4.162   8.136   5.302  0.00  0.00    -0.026 A 
ATOM     10  C   UNL     1      -4.141   6.841   5.786  0.00  0.00    +0.008 A 
ATOM     11  C   UNL     1      -3.613   6.579   7.036  0.00  0.00    +0.038 A 
ATOM     12  C   UNL     1      -3.115   7.615   7.808  0.00  0.00    +0.123 A 
ATOM     13  C   UNL     1      -3.142   8.912   7.324  0.00  0.00    +0.038 A 
ATOM     14  C   UNL     1      -3.665   9.171   6.072  0.00  0.00    +0.008 A 
ATOM     15  F   UNL     1      -2.604   7.360   9.032  0.00  0.00    -0.205 F 
ENDBRANCH   8   9
ENDBRANCH   7   8
ENDBRANCH   2   3
BRANCH   2  17
ATOM     16  C   UNL     1      -5.536   4.241   1.391  0.00  0.00    +0.006 C 
ATOM     17  C   UNL     1      -4.896   5.622   1.241  0.00  0.00    +0.023 C 
ENDBRANCH   2  17
ENDBRANCH   1   2
BRANCH   1  18
ATOM     18  C   UNL     1      -3.207   3.633   3.061  0.00  0.00    +0.124 C 
BRANCH  18  19
ATOM     19  C   UNL     1      -1.973   2.808   3.324  0.00  0.00    +0.008 A 
ATOM     20  C   UNL     1      -1.751   1.649   2.606  0.00  0.00    +0.008 A 
ATOM     21  C   UNL     1      -0.618   0.894   2.843  0.00  0.00    +0.001 A 
ATOM     22  C   UNL     1       0.292   1.291   3.806  0.00  0.00    +0.004 A 
ATOM     23  C   UNL     1       0.072   2.447   4.530  0.00  0.00    +0.046 A 
ATOM     24  C   UNL     1      -1.062   3.209   4.290  0.00  0.00    +0.124 A 
BRANCH  24  25
ATOM     25  O   UNL     1      -1.281   4.346   5.001  0.00  0.00    -0.495 OA
ATOM     26  C   UNL     1      -0.301   4.698   5.980  0.00  0.00    +0.277 C 
ENDBRANCH  24  25
ENDBRANCH  18  19
ENDBRANCH   1  18
BRANCH   1  27
ATOM     27  C   UNL     1      -2.510   4.517   0.917  0.00  0.00    +0.126 C 
BRANCH  27  28
ATOM     28  C   UNL     1      -1.592   5.574   0.358  0.00  0.00    +0.031 A 
ATOM     29  C   UNL     1      -0.385   5.794   0.934  0.00  0.00    +0.020 A 
ATOM     30  C   UNL     1       0.486   6.823   0.362  0.00  0.00    -0.001 A 
ATOM     31  C   UNL     1       1.745   7.091   0.909  0.00  0.00    +0.013 A 
ATOM     32  C   UNL     1       2.531   8.062   0.356  0.00  0.00    -0.050 A 
ATOM     33  C   UNL     1       2.091   8.785  -0.744  0.00  0.00    +0.005 A 
ATOM     34  C   UNL     1       0.854   8.538  -1.300  0.00  0.00    +0.026 A 
ATOM     35  C   UNL     1       0.036   7.554  -0.753  0.00  0.00    +0.049 A 
ATOM     36  N   UNL     1      -1.205   7.286  -1.288  0.00  0.00    -0.322 N 
ATOM     37  H   UNL     1      -1.563   7.854  -2.160  0.00  0.00    +0.169 HD
ATOM     38  C   UNL     1      -1.995   6.335  -0.760  0.00  0.00    +0.254 A 
ATOM     39  O   UNL     1      -3.087   6.125  -1.259  0.00  0.00    -0.268 OA
ATOM     40  C   UNL     1       3.888   8.350   0.945  0.00  0.00    +0.044 C 
ENDBRANCH  27  28
ENDBRANCH   1  27
TORSDOF 10
