REMARK  Name = ZINC22626886
REMARK  9 active torsions:
REMARK  status: ('A' for Active; 'I' for Inactive)
REMARK    1  A    between atoms: C_1  and  C_2
REMARK    2  A    between atoms: C_2  and  O_3
REMARK    3  A    between atoms: O_3  and  C_4
REMARK    4  A    between atoms: C_7  and  C_10
REMARK    5  A    between atoms: C_10  and  C_12
REMARK    6  A    between atoms: C_10  and  N_22
REMARK    7  A    between atoms: C_13  and  O_21
REMARK    8  A    between atoms: C_18  and  C_20
REMARK    9  A    between atoms: N_25  and  C_28
REMARK                            x       y       z     vdW  Elec       q    Type
REMARK                         _______ _______ _______ _____ _____    ______ ____
ROOT
ATOM      1  C   UNL     1       0.002  -0.004   0.002  0.00  0.00    +0.129 C 
ENDROOT
BRANCH   1   2
ATOM      2  C   UNL     1       0.448  -0.494  -1.352  0.00  0.00    +0.076 A 
ATOM      3  C   UNL     1       1.260  -1.512  -1.656  0.00  0.00    +0.228 A 
ATOM      4  N   UNL     1       1.548  -1.811  -2.966  0.00  0.00    -0.173 N 
ATOM      5  C   UNL     1       0.984  -1.025  -3.924  0.00  0.00    +0.199 A 
ATOM      6  S   UNL     1       0.035   0.137  -2.971  0.00  0.00    -0.047 S 
ATOM      7  N   UNL     1       1.359  -1.435  -5.104  0.00  0.00    -0.205 NA
ATOM      8  C   UNL     1       2.167  -2.485  -4.969  0.00  0.00    +0.150 A 
ATOM      9  N   UNL     1       2.315  -2.754  -3.700  0.00  0.00    -0.147 NA
ATOM     10  C   UNL     1       2.810  -3.242  -6.102  0.00  0.00    +0.090 C 
BRANCH   3  11
ATOM     11  O   UNL     1       1.804  -2.262  -0.659  0.00  0.00    -0.492 OA
ATOM     12  H   UNL     1       2.472  -3.100  -0.903  0.00  0.00    +0.294 HD
ENDBRANCH   3  11
ENDBRANCH   1   2
BRANCH   1  16
ATOM     13  C   UNL     1      -4.033  -1.225   0.702  0.00  0.00    +0.121 A 
ATOM     14  C   UNL     1      -2.990  -1.864   1.357  0.00  0.00    +0.046 A 
ATOM     15  C   UNL     1      -1.686  -1.467   1.129  0.00  0.00    +0.009 A 
ATOM     16  C   UNL     1      -1.421  -0.435   0.249  0.00  0.00    -0.025 A 
ATOM     17  C   UNL     1      -2.459   0.207  -0.401  0.00  0.00    +0.009 A 
ATOM     18  C   UNL     1      -3.764  -0.190  -0.181  0.00  0.00    +0.046 A 
BRANCH  13  19
ATOM     19  O   UNL     1      -5.316  -1.613   0.926  0.00  0.00    -0.492 OA
BRANCH  19  21
ATOM     20  C   UNL     1      -7.706  -1.484   0.594  0.00  0.00    +0.048 C 
ATOM     21  C   UNL     1      -6.339  -0.911   0.216  0.00  0.00    +0.225 C 
ENDBRANCH  19  21
ENDBRANCH  13  19
ENDBRANCH   1  16
BRANCH   1  22
ATOM     22  N   UNL     1       0.084   1.462   0.043  0.00  0.00    -0.288 NA
ATOM     23  C   UNL     1       1.442   1.923  -0.276  0.00  0.00    +0.104 C 
ATOM     24  C   UNL     1       1.466   3.453  -0.301  0.00  0.00    +0.120 C 
ATOM     25  N   UNL     1       1.033   3.968   1.006  0.00  0.00    -0.327 N 
ATOM     26  C   UNL     1      -0.326   3.507   1.325  0.00  0.00    +0.120 C 
ATOM     27  C   UNL     1      -0.350   1.977   1.350  0.00  0.00    +0.104 C 
BRANCH  25  28
ATOM     28  C   UNL     1       1.111   5.362   1.045  0.00  0.00    +0.030 A 
ATOM     29  C   UNL     1      -0.016   6.114   1.352  0.00  0.00    +0.023 A 
ATOM     30  C   UNL     1       0.065   7.492   1.395  0.00  0.00    +0.002 A 
ATOM     31  C   UNL     1       1.265   8.124   1.122  0.00  0.00    +0.000 A 
ATOM     32  C   UNL     1       2.387   7.378   0.811  0.00  0.00    +0.002 A 
ATOM     33  C   UNL     1       2.314   6.000   0.771  0.00  0.00    +0.023 A 
ENDBRANCH  25  28
ENDBRANCH   1  22
TORSDOF 7
