REMARK  Name = ZINC03219814
REMARK  10 active torsions:
REMARK  status: ('A' for Active; 'I' for Inactive)
REMARK    1  A    between atoms: C_6  and  N_7
REMARK    2  A    between atoms: N_11  and  O_12
REMARK    3  A    between atoms: C_15  and  C_22
REMARK    4  A    between atoms: C_17  and  N_19
REMARK    5  A    between atoms: C_22  and  O_24
REMARK    6  A    between atoms: O_24  and  C_25
REMARK    7  A    between atoms: C_25  and  C_26
REMARK    8  A    between atoms: C_26  and  C_27
REMARK    9  A    between atoms: C_27  and  C_28
REMARK   10  A    between atoms: C_28  and  C_29
REMARK                            x       y       z     vdW  Elec       q    Type
REMARK                         _______ _______ _______ _____ _____    ______ ____
ROOT
ATOM      1  C   UNL     1       0.035   1.410   0.724  0.00  0.00    +0.033 A 
ATOM      2  C   UNL     1       1.200   2.118   0.501  0.00  0.00    +0.011 A 
ATOM      3  C   UNL     1       2.415   1.444   0.398  0.00  0.00    -0.007 A 
ATOM      4  C   UNL     1       2.441   0.044   0.521  0.00  0.00    +0.014 A 
ATOM      5  C   UNL     1       1.259  -0.653   0.745  0.00  0.00    +0.043 A 
ATOM      6  C   UNL     1       0.063   0.032   0.845  0.00  0.00    +0.127 A 
ATOM      7  C   UNL     1       3.848  -0.397   0.371  0.00  0.00    +0.118 C 
ATOM      8  N   UNL     1       4.285  -1.622   0.422  0.00  0.00    -0.086 NA
ATOM      9  C   UNL     1       4.662   0.822   0.149  0.00  0.00    +0.015 A 
ATOM     10  C   UNL     1       3.794   1.925   0.167  0.00  0.00    +0.006 A 
ATOM     11  C   UNL     1       4.318   3.216  -0.022  0.00  0.00    +0.069 A 
ATOM     12  C   UNL     1       5.690   3.382  -0.223  0.00  0.00    +0.048 A 
ATOM     13  C   UNL     1       6.530   2.288  -0.238  0.00  0.00    +0.128 A 
ATOM     14  C   UNL     1       6.024   1.013  -0.053  0.00  0.00    +0.043 A 
ENDROOT
BRANCH   6  15
ATOM     15  N   UNL     1      -1.194  -0.712   1.084  0.00  0.00    +0.056 N 
ATOM     16  O   UNL     1      -2.242  -0.116   1.172  0.00  0.00    -0.126 OA
ATOM     17  O   UNL     1      -1.173  -1.916   1.190  0.00  0.00    -0.126 OA
ENDBRANCH   6  15
BRANCH  13  18
ATOM     18  N   UNL     1       7.982   2.478  -0.452  0.00  0.00    +0.056 N 
ATOM     19  O   UNL     1       8.428   3.590  -0.614  0.00  0.00    -0.126 OA
ATOM     20  O   UNL     1       8.721   1.522  -0.466  0.00  0.00    -0.126 OA
ENDBRANCH  13  18
BRANCH   8  21
ATOM     21  O   UNL     1       5.666  -1.888   0.258  0.00  0.00    -0.409 OA
ATOM     22  H   UNL     1       5.895  -2.826   0.312  0.00  0.00    +0.328 HD
ENDBRANCH   8  21
BRANCH  11  23
ATOM     23  C   UNL     1       3.424   4.389  -0.007  0.00  0.00    +0.340 C 
ATOM     24  O   UNL     1       2.584   4.501   0.863  0.00  0.00    -0.245 OA
BRANCH  23  25
ATOM     25  O   UNL     1       3.538   5.335  -0.960  0.00  0.00    -0.455 OA
BRANCH  25  26
ATOM     26  C   UNL     1       2.639   6.443  -0.884  0.00  0.00    +0.314 C 
BRANCH  26  27
ATOM     27  C   UNL     1       2.918   7.406  -2.040  0.00  0.00    +0.350 C 
ATOM     28  F   UNL     1       2.038   8.491  -1.966  0.00  0.00    -0.195 F 
ATOM     29  F   UNL     1       4.236   7.868  -1.955  0.00  0.00    -0.195 F 
BRANCH  27  30
ATOM     30  C   UNL     1       2.718   6.677  -3.370  0.00  0.00    +0.381 C 
ATOM     31  F   UNL     1       3.599   5.592  -3.444  0.00  0.00    -0.192 F 
ATOM     32  F   UNL     1       1.401   6.215  -3.456  0.00  0.00    -0.192 F 
BRANCH  30  33
ATOM     33  C   UNL     1       2.997   7.640  -4.527  0.00  0.00    +0.375 C 
ATOM     34  F   UNL     1       2.117   8.725  -4.453  0.00  0.00    -0.193 F 
ATOM     35  F   UNL     1       4.315   8.102  -4.441  0.00  0.00    -0.193 F 
BRANCH  33  36
ATOM     36  C   UNL     1       2.798   6.911  -5.857  0.00  0.00    +0.416 C 
ATOM     37  F   UNL     1       1.480   6.449  -5.942  0.00  0.00    -0.203 F 
ATOM     38  F   UNL     1       3.053   7.791  -6.914  0.00  0.00    -0.203 F 
ENDBRANCH  33  36
ENDBRANCH  30  33
ENDBRANCH  27  30
ENDBRANCH  26  27
ENDBRANCH  25  26
ENDBRANCH  23  25
ENDBRANCH  11  23
TORSDOF 10
