REMARK  Name = ZINC44714201
REMARK  9 active torsions:
REMARK  status: ('A' for Active; 'I' for Inactive)
REMARK    1  A    between atoms: C_1  and  C_2
REMARK    2  A    between atoms: C_3  and  C_9
REMARK    3  A    between atoms: C_4  and  C_8
REMARK    4  A    between atoms: C_9  and  C_11
REMARK    5  A    between atoms: C_9  and  N_12
REMARK    6  A    between atoms: C_13  and  C_15
REMARK    7  A    between atoms: C_26  and  C_28
REMARK    8  A    between atoms: C_31  and  O_35
REMARK    9  A    between atoms: O_35  and  C_36
REMARK                            x       y       z     vdW  Elec       q    Type
REMARK                         _______ _______ _______ _____ _____    ______ ____
ROOT
ATOM      1  C   UNL     1       2.718  -0.851  -4.847  0.00  0.00    +0.100 C 
ATOM      2  C   UNL     1       4.027  -1.324  -4.177  0.00  0.00    +0.121 C 
ATOM      3  N   UNL     1       5.050  -1.231  -5.245  0.00  0.00    -0.296 N 
ATOM      4  C   UNL     1       4.713   0.018  -5.969  0.00  0.00    +0.115 C 
ATOM      5  C   UNL     1       3.173   0.031  -6.023  0.00  0.00    -0.004 C 
ATOM      6  C   UNL     1       2.651   1.454  -5.849  0.00  0.00    -0.010 C 
ATOM      7  C   UNL     1       3.067   2.297  -7.058  0.00  0.00    -0.082 C 
ATOM      8  N   UNL     1       2.521   1.700  -8.283  0.00  0.00    +0.379 N 
ATOM      9  C   UNL     1       3.100   0.367  -8.492  0.00  0.00    -0.082 C 
ATOM     10  C   UNL     1       2.685  -0.557  -7.343  0.00  0.00    -0.010 C 
ATOM     11  C   UNL     1       6.058  -2.088  -5.500  0.00  0.00    +0.247 C 
ATOM     12  O   UNL     1       6.139  -3.132  -4.883  0.00  0.00    -0.270 OA
ATOM     13  H   UNL     1       1.518   1.621  -8.200  0.00  0.00    -0.086 HD
ATOM     14  H   UNL     1       2.744   2.290  -9.071  0.00  0.00    -0.086 HD
ENDROOT
BRANCH  11  15
ATOM     15  C   UNL     1       7.064  -1.758  -6.529  0.00  0.00    +0.040 A 
ATOM     16  C   UNL     1       7.263  -0.430  -6.913  0.00  0.00    +0.036 A 
ATOM     17  C   UNL     1       8.204  -0.126  -7.874  0.00  0.00    +0.085 A 
ATOM     18  C   UNL     1       8.952  -1.140  -8.462  0.00  0.00    +0.157 A 
ATOM     19  C   UNL     1       8.756  -2.463  -8.082  0.00  0.00    +0.085 A 
ATOM     20  C   UNL     1       7.822  -2.774  -7.117  0.00  0.00    +0.036 A 
ATOM     21 CL   UNL     1       9.694  -3.725  -8.819  0.00  0.00    -0.080 Cl
ATOM     22 CL   UNL     1       8.453   1.524  -8.352  0.00  0.00    -0.080 Cl
BRANCH  18  23
ATOM     23  O   UNL     1       9.877  -0.837  -9.409  0.00  0.00    -0.492 OA
ATOM     24  C   UNL     1      11.204  -0.563  -8.955  0.00  0.00    +0.277 C 
ENDBRANCH  18  23
ENDBRANCH  11  15
BRANCH   1  26
ATOM     25  N   UNL     1       0.549  -0.022  -3.993  0.00  0.00    -0.308 N 
ATOM     26  C   UNL     1       1.892  -0.046  -3.877  0.00  0.00    +0.219 C 
ATOM     27  O   UNL     1       2.436   0.580  -2.992  0.00  0.00    -0.275 OA
ATOM     28  H   UNL     1       0.115  -0.522  -4.701  0.00  0.00    +0.149 HD
BRANCH  25  29
ATOM     29  C   UNL     1      -0.253   0.760  -3.049  0.00  0.00    +0.104 C 
ATOM     30  C   UNL     1      -0.333   2.211  -3.528  0.00  0.00    +0.033 C 
BRANCH  29  33
ATOM     31  C   UNL     1      -1.884   0.236  -0.431  0.00  0.00    +0.065 C 
ATOM     32  C   UNL     1      -2.347  -0.046  -1.838  0.00  0.00    +0.038 A 
ATOM     33  C   UNL     1      -1.642   0.181  -2.970  0.00  0.00    +0.015 A 
ATOM     34  C   UNL     1      -2.430  -0.218  -4.055  0.00  0.00    +0.065 A 
ATOM     35  N   UNL     1      -3.568  -0.667  -3.590  0.00  0.00    -0.179 NA
ATOM     36  N   UNL     1      -3.537  -0.574  -2.192  0.00  0.00    -0.281 N 
ATOM     37  H   UNL     1      -4.247  -0.840  -1.587  0.00  0.00    +0.189 HD
ATOM     38  C   UNL     1      -2.038  -0.142  -5.508  0.00  0.00    +0.068 C 
ENDBRANCH  29  33
ENDBRANCH  25  29
ENDBRANCH   1  26
TORSDOF 5
