REMARK  Name = ZINC51172000
REMARK  4 active torsions:
REMARK  status: ('A' for Active; 'I' for Inactive)
REMARK    1  A    between atoms: C_5  and  C_6
REMARK    2  A    between atoms: N_8  and  C_9
REMARK    3  A    between atoms: C_9  and  C_16
REMARK    4  A    between atoms: C_16  and  N_18
REMARK                            x       y       z     vdW  Elec       q    Type
REMARK                         _______ _______ _______ _____ _____    ______ ____
ROOT
ATOM      1  C   UNL     1      -2.076  -3.132  -0.048  0.00  0.00    +0.079 C 
ATOM      2  C   UNL     1      -2.936  -2.844   1.153  0.00  0.00    +0.032 C 
ATOM      3  C   UNL     1      -2.126  -2.288   2.339  0.00  0.00    +0.002 C 
ATOM      4  C   UNL     1      -0.781  -3.014   2.536  0.00  0.00    +0.000 C 
ATOM      5  C   UNL     1      -0.900  -4.504   2.363  0.00  0.00    +0.000 C 
ATOM      6  C   UNL     1      -0.550  -4.857   0.903  0.00  0.00    +0.002 C 
ATOM      7  C   UNL     1      -1.660  -4.616  -0.007  0.00  0.00    +0.032 C 
ENDROOT
BRANCH   1  10
ATOM      8  C   UNL     1       0.077  -2.431  -0.947  0.00  0.00    +0.251 C 
ATOM      9  O   UNL     1      -0.006  -3.325  -1.770  0.00  0.00    -0.270 OA
ATOM     10  N   UNL     1      -0.881  -2.284  -0.011  0.00  0.00    -0.300 N 
ATOM     11  H   UNL     1      -0.780  -1.618   0.686  0.00  0.00    +0.150 HD
BRANCH   8  16
ATOM     12  C   UNL     1       2.301  -1.492  -1.844  0.00  0.00    +0.022 A 
ATOM     13  C   UNL     1       3.226  -0.502  -1.619  0.00  0.00    +0.028 A 
ATOM     14  C   UNL     1       3.029   0.365  -0.593  0.00  0.00    +0.079 A 
ATOM     15  S   UNL     1       1.582  -0.138   0.098  0.00  0.00    -0.072 S 
ATOM     16  C   UNL     1       1.220  -1.515  -0.975  0.00  0.00    +0.075 A 
ATOM     17 CL   UNL     1       4.040   1.689  -0.106  0.00  0.00    -0.076 Cl
ENDBRANCH   8  16
ENDBRANCH   1  10
BRANCH   1  18
ATOM     18  C   UNL     1      -2.853  -2.858  -1.310  0.00  0.00    +0.070 C 
ATOM     19  S   UNL     1      -3.408  -4.074  -2.187  0.00  0.00    -0.038 S 
BRANCH  18  20
ATOM     20  N   UNL     1      -3.080  -1.587  -1.699  0.00  0.00    -0.354 N 
ATOM     21  H   UNL     1      -2.807  -0.850  -1.131  0.00  0.00    +0.143 HD
ATOM     22  H   UNL     1      -3.515  -1.411  -2.547  0.00  0.00    +0.143 HD
ENDBRANCH  18  20
ENDBRANCH   1  18
TORSDOF 4
