REMARK  Name = ZINC40985847
REMARK  15 active torsions:
REMARK  status: ('A' for Active; 'I' for Inactive)
REMARK    1  A    between atoms: C_1  and  C_2
REMARK    2  A    between atoms: C_5  and  C_8
REMARK    3  A    between atoms: C_8  and  S_9
REMARK    4  A    between atoms: S_9  and  C_10
REMARK    5  A    between atoms: C_13  and  C_17
REMARK    6  A    between atoms: N_19  and  C_20
REMARK    7  A    between atoms: C_20  and  C_21
REMARK    8  A    between atoms: C_21  and  C_23
REMARK    9  A    between atoms: C_21  and  N_33
REMARK   10  A    between atoms: C_26  and  C_29
REMARK   11  A    between atoms: C_29  and  C_30
REMARK   12  A    between atoms: C_29  and  C_31
REMARK   13  A    between atoms: C_29  and  C_32
REMARK   14  A    between atoms: N_33  and  C_34
REMARK   15  A    between atoms: N_33  and  C_35
REMARK                            x       y       z     vdW  Elec       q    Type
REMARK                         _______ _______ _______ _____ _____    ______ ____
ROOT
ATOM      1  C   UNL     1       1.791 -13.109  -1.683  0.00  0.00    +0.248 C 
ATOM      2  O   UNL     1       2.440 -12.337  -1.003  0.00  0.00    -0.270 OA
ATOM      3  N   UNL     1       0.503 -13.360  -1.373  0.00  0.00    -0.312 N 
ATOM      4  H   UNL     1      -0.015 -13.976  -1.915  0.00  0.00    +0.149 HD
ENDROOT
BRANCH   1   8
ATOM      5  C   UNL     1       3.542 -14.971  -4.962  0.00  0.00    +0.190 A 
ATOM      6  N   UNL     1       2.272 -15.232  -4.673  0.00  0.00    -0.229 NA
ATOM      7  C   UNL     1       1.680 -14.662  -3.641  0.00  0.00    +0.129 A 
ATOM      8  C   UNL     1       2.412 -13.770  -2.845  0.00  0.00    +0.092 A 
ATOM      9  C   UNL     1       3.751 -13.521  -3.185  0.00  0.00    +0.146 A 
ATOM     10  N   UNL     1       4.270 -14.137  -4.231  0.00  0.00    -0.209 NA
ATOM     11 CL   UNL     1       4.710 -12.425  -2.240  0.00  0.00    -0.061 Cl
BRANCH   5  12
ATOM     12  S   UNL     1       4.282 -15.761  -6.352  0.00  0.00    -0.081 S 
BRANCH  12  13
ATOM     13  C   UNL     1       2.950 -16.785  -7.036  0.00  0.00    +0.112 C 
BRANCH  13  18
ATOM     14  C   UNL     1       4.890 -19.625 -11.680  0.00  0.00    +0.044 C 
ATOM     15  C   UNL     1       4.384 -18.884 -10.469  0.00  0.00    -0.050 A 
ATOM     16  C   UNL     1       4.494 -19.454  -9.214  0.00  0.00    +0.003 A 
ATOM     17  C   UNL     1       4.030 -18.775  -8.103  0.00  0.00    +0.005 A 
ATOM     18  C   UNL     1       3.457 -17.525  -8.247  0.00  0.00    -0.037 A 
ATOM     19  C   UNL     1       3.348 -16.955  -9.501  0.00  0.00    +0.005 A 
ATOM     20  C   UNL     1       3.815 -17.632 -10.612  0.00  0.00    +0.003 A 
ENDBRANCH  13  18
ENDBRANCH  12  13
ENDBRANCH   5  12
ENDBRANCH   1   8
BRANCH   3  21
ATOM     21  C   UNL     1      -0.114 -12.704  -0.218  0.00  0.00    +0.094 C 
BRANCH  21  22
ATOM     22  C   UNL     1      -1.598 -13.071  -0.155  0.00  0.00    -0.021 C 
BRANCH  22  23
ATOM     23  C   UNL     1      -1.739 -14.551   0.089  0.00  0.00    -0.059 A 
ATOM     24  C   UNL     1      -1.601 -15.057   1.368  0.00  0.00    +0.002 A 
ATOM     25  C   UNL     1      -1.731 -16.415   1.592  0.00  0.00    +0.004 A 
ATOM     26  C   UNL     1      -1.999 -17.267   0.537  0.00  0.00    -0.042 A 
ATOM     27  C   UNL     1      -2.138 -16.761  -0.742  0.00  0.00    +0.004 A 
ATOM     28  C   UNL     1      -2.013 -15.403  -0.965  0.00  0.00    +0.002 A 
BRANCH  26  29
ATOM     29  C   UNL     1      -2.139 -18.747   0.781  0.00  0.00    -0.013 C 
ATOM     30  C   UNL     1      -3.289 -18.996   1.759  0.00  0.00    +0.015 C 
ATOM     31  C   UNL     1      -2.433 -19.457  -0.542  0.00  0.00    +0.015 C 
ATOM     32  C   UNL     1      -0.839 -19.292   1.375  0.00  0.00    +0.015 C 
ENDBRANCH  26  29
ENDBRANCH  22  23
BRANCH  22  33
ATOM     33  N   UNL     1      -2.240 -12.331   0.939  0.00  0.00    +0.382 N 
ATOM     34  C   UNL     1      -2.103 -10.887   0.701  0.00  0.00    -0.096 C 
ATOM     35  C   UNL     1      -3.664 -12.684   1.000  0.00  0.00    -0.096 C 
ATOM     36  H   UNL     1      -1.796 -12.570   1.813  0.00  0.00    -0.082 HD
ENDBRANCH  22  33
ENDBRANCH  21  22
ENDBRANCH   3  21
TORSDOF 9
