REMARK  Name = ZINC63480063
REMARK  5 active torsions:
REMARK  status: ('A' for Active; 'I' for Inactive)
REMARK    1  A    between atoms: C_1  and  C_2
REMARK    2  A    between atoms: C_5  and  N_9
REMARK    3  A    between atoms: C_7  and  C_8
REMARK    4  A    between atoms: C_14  and  C_31
REMARK    5  A    between atoms: C_31  and  C_32
REMARK                            x       y       z     vdW  Elec       q    Type
REMARK                         _______ _______ _______ _____ _____    ______ ____
ROOT
ATOM      1  N   UNL     1       0.059  -4.172  -0.021  0.00  0.00    -0.210 N 
ATOM      2  C   UNL     1       0.167  -4.901   1.096  0.00  0.00    +0.232 C 
ATOM      3  O   UNL     1       0.258  -4.452   2.219  0.00  0.00    -0.274 OA
ATOM      4  C   UNL     1       0.157  -6.370   0.741  0.00  0.00    +0.107 C 
ATOM      5  C   UNL     1       1.552  -6.968   1.025  0.00  0.00    +0.072 C 
ATOM      6  N   UNL     1       1.874  -7.776  -0.181  0.00  0.00    -0.295 NA
ATOM      7  C   UNL     1       1.352  -6.974  -1.303  0.00  0.00    +0.136 C 
ATOM      8  C   UNL     1       0.017  -6.364  -0.807  0.00  0.00    +0.123 C 
ATOM      9  C   UNL     1      -0.036  -4.891  -1.146  0.00  0.00    +0.233 C 
ATOM     10  O   UNL     1      -0.145  -4.433  -2.263  0.00  0.00    -0.274 OA
ATOM     11  C   UNL     1       1.145  -7.816  -2.530  0.00  0.00    +0.003 A 
ATOM     12  C   UNL     1       0.378  -8.927  -2.799  0.00  0.00    +0.008 A 
ATOM     13  C   UNL     1       0.399  -9.494  -4.061  0.00  0.00    +0.000 A 
ATOM     14  C   UNL     1       1.191  -8.942  -5.051  0.00  0.00    +0.002 A 
ATOM     15  C   UNL     1       1.960  -7.828  -4.786  0.00  0.00    +0.023 A 
ATOM     16  C   UNL     1       1.945  -7.250  -3.518  0.00  0.00    +0.039 A 
ATOM     17  N   UNL     1       2.624  -6.139  -3.014  0.00  0.00    -0.283 N 
ATOM     18  C   UNL     1       2.330  -5.910  -1.719  0.00  0.00    +0.243 C 
ATOM     19  O   UNL     1       2.769  -5.018  -1.024  0.00  0.00    -0.273 OA
ATOM     20  H   UNL     1       2.869  -7.915  -0.268  0.00  0.00    +0.124 HD
ATOM     21  H   UNL     1       3.235  -5.595  -3.534  0.00  0.00    +0.155 HD
ENDROOT
BRANCH   1  26
ATOM     22  C   UNL     1      -0.017   1.503   0.012  0.00  0.00    +0.044 C 
ATOM     23  C   UNL     1       0.003  -0.004   0.003  0.00  0.00    -0.047 A 
ATOM     24  C   UNL     1      -1.131  -0.707  -0.362  0.00  0.00    +0.005 A 
ATOM     25  C   UNL     1      -1.115  -2.088  -0.371  0.00  0.00    +0.024 A 
ATOM     26  C   UNL     1       0.040  -2.771  -0.013  0.00  0.00    +0.044 A 
ATOM     27  C   UNL     1       1.176  -2.062   0.352  0.00  0.00    +0.027 A 
ATOM     28  C   UNL     1       1.156  -0.681   0.355  0.00  0.00    -0.046 A 
ATOM     29  C   UNL     1       2.391   0.089   0.747  0.00  0.00    +0.044 C 
ENDBRANCH   1  26
BRANCH   5  30
ATOM     30  C   UNL     1       1.507  -7.857   2.269  0.00  0.00    +0.052 C 
BRANCH  30  31
ATOM     31  C   UNL     1       2.899  -8.330   2.599  0.00  0.00    -0.040 C 
ATOM     32  C   UNL     1       3.761  -7.771   3.479  0.00  0.00    -0.001 A 
ATOM     33  C   UNL     1       3.663  -6.600   4.359  0.00  0.00    +0.010 A 
ATOM     34  C   UNL     1       4.716  -6.280   5.145  0.00  0.00    +0.001 A 
ATOM     35  C   UNL     1       5.896  -7.038   5.141  0.00  0.00    +0.002 A 
ATOM     36  C   UNL     1       6.060  -8.127   4.361  0.00  0.00    +0.026 A 
ATOM     37  C   UNL     1       5.017  -8.555   3.494  0.00  0.00    +0.043 A 
ATOM     38  N   UNL     1       4.935  -9.559   2.656  0.00  0.00    -0.380 N 
ATOM     39  C   UNL     1       3.614  -9.530   2.018  0.00  0.00    +0.144 C 
ATOM     40  H   UNL     1       5.630 -10.215   2.489  0.00  0.00    +0.160 HD
ENDBRANCH  30  31
ENDBRANCH   5  30
TORSDOF 3
