REMARK  Name = ZINC16690090
REMARK  7 active torsions:
REMARK  status: ('A' for Active; 'I' for Inactive)
REMARK    1  A    between atoms: C_1  and  C_2
REMARK    2  A    between atoms: C_2  and  C_3
REMARK    3  A    between atoms: C_8  and  O_30
REMARK    4  A    between atoms: C_9  and  C_11
REMARK    5  A    between atoms: C_11  and  C_13
REMARK    6  A    between atoms: C_11  and  N_21
REMARK    7  A    between atoms: C_24  and  C_27
REMARK                            x       y       z     vdW  Elec       q    Type
REMARK                         _______ _______ _______ _____ _____    ______ ____
ROOT
ATOM      1  C   UNL     1       2.896  -2.477   6.417  0.00  0.00    +0.005 C 
ENDROOT
BRANCH   1   8
ATOM      2  C   UNL     1       0.731  -0.503   1.223  0.00  0.00    +0.152 A 
ATOM      3  N   UNL     1       2.039  -0.738   1.297  0.00  0.00    -0.205 NA
ATOM      4  C   UNL     1       2.334  -1.160   2.497  0.00  0.00    +0.199 A 
ATOM      5  N   UNL     1       1.204  -1.214   3.253  0.00  0.00    -0.173 N 
ATOM      6  N   UNL     1       0.180  -0.769   2.377  0.00  0.00    -0.147 NA
ATOM      7  C   UNL     1       1.335  -1.642   4.552  0.00  0.00    +0.225 A 
ATOM      8  C   UNL     1       2.533  -1.988   5.038  0.00  0.00    +0.045 A 
ATOM      9  S   UNL     1       3.590  -1.715   3.624  0.00  0.00    -0.050 S 
BRANCH   2  11
ATOM     10  C   UNL     1      -0.019   1.526   0.010  0.00  0.00    +0.012 C 
ATOM     11  C   UNL     1       0.002  -0.004   0.002  0.00  0.00    +0.075 C 
ENDBRANCH   2  11
BRANCH   7  12
ATOM     12  O   UNL     1       0.237  -1.716   5.352  0.00  0.00    -0.492 OA
ATOM     13  H   UNL     1      -0.584  -1.447   4.917  0.00  0.00    +0.294 HD
ENDBRANCH   7  12
ENDBRANCH   1   8
BRANCH   1  14
ATOM     14  C   UNL     1       3.788  -1.466   7.089  0.00  0.00    -0.055 A 
ATOM     15  C   UNL     1       5.136  -1.421   6.782  0.00  0.00    +0.004 A 
ATOM     16  C   UNL     1       5.956  -0.495   7.399  0.00  0.00    +0.021 A 
ATOM     17  C   UNL     1       5.428   0.388   8.324  0.00  0.00    +0.059 A 
ATOM     18  C   UNL     1       4.079   0.344   8.631  0.00  0.00    +0.059 A 
ATOM     19  C   UNL     1       3.259  -0.580   8.009  0.00  0.00    +0.023 A 
ATOM     20 CL   UNL     1       3.416   1.452   9.791  0.00  0.00    -0.082 Cl
ATOM     21 CL   UNL     1       6.458   1.552   9.099  0.00  0.00    -0.082 Cl
ENDBRANCH   1  14
BRANCH   1  22
ATOM     22  N   UNL     1       3.602  -3.760   6.311  0.00  0.00    +0.387 N 
ATOM     23  C   UNL     1       3.962  -4.231   7.654  0.00  0.00    -0.077 C 
ATOM     24  C   UNL     1       4.769  -5.526   7.545  0.00  0.00    -0.006 C 
ATOM     25  C   UNL     1       3.923  -6.590   6.840  0.00  0.00    +0.071 C 
ATOM     26  C   UNL     1       3.491  -6.059   5.470  0.00  0.00    -0.006 C 
ATOM     27  C   UNL     1       2.732  -4.744   5.655  0.00  0.00    -0.077 C 
ATOM     28  H   UNL     1       4.441  -3.637   5.764  0.00  0.00    -0.080 HD
BRANCH  25  29
ATOM     29  C   UNL     1       4.739  -7.845   6.659  0.00  0.00    +0.213 C 
ATOM     30  O   UNL     1       5.884  -7.885   7.055  0.00  0.00    -0.276 OA
ATOM     31  N   UNL     1       4.195  -8.921   6.058  0.00  0.00    -0.329 N 
ATOM     32  H   UNL     1       3.279  -8.889   5.741  0.00  0.00    +0.145 HD
ATOM     33  H   UNL     1       4.720  -9.729   5.941  0.00  0.00    +0.145 HD
ENDBRANCH  25  29
ENDBRANCH   1  22
TORSDOF 6
