REMARK  Name = ZINC63045147
REMARK  6 active torsions:
REMARK  status: ('A' for Active; 'I' for Inactive)
REMARK    1  A    between atoms: C_1  and  C_2
REMARK    2  A    between atoms: C_2  and  C_3
REMARK    3  A    between atoms: C_3  and  C_4
REMARK    4  A    between atoms: C_4  and  C_6
REMARK    5  A    between atoms: C_6  and  C_7
REMARK    6  A    between atoms: C_12  and  N_17
REMARK                            x       y       z     vdW  Elec       q    Type
REMARK                         _______ _______ _______ _____ _____    ______ ____
ROOT
ATOM      1  C   UNL     1      -2.816  -4.093  -0.242  0.00  0.00    +0.043 A 
ATOM      2  C   UNL     1      -3.552  -4.867   0.653  0.00  0.00    +0.024 A 
ATOM      3  C   UNL     1      -3.538  -6.228   0.548  0.00  0.00    +0.012 A 
ATOM      4  C   UNL     1      -2.768  -6.808  -0.477  0.00  0.00    +0.003 A 
ATOM      5  C   UNL     1      -2.705  -8.201  -0.647  0.00  0.00    +0.042 A 
ATOM      6  C   UNL     1      -1.949  -8.723  -1.651  0.00  0.00    +0.127 A 
ATOM      7  C   UNL     1      -1.235  -7.894  -2.514  0.00  0.00    +0.035 A 
ATOM      8  C   UNL     1      -1.272  -6.540  -2.378  0.00  0.00    +0.030 A 
ATOM      9  C   UNL     1      -2.042  -5.963  -1.353  0.00  0.00    +0.071 A 
ATOM     10  N   UNL     1      -2.103  -4.636  -1.199  0.00  0.00    -0.252 NA
ENDROOT
BRANCH   6  11
ATOM     11  N   UNL     1      -1.884 -10.191  -1.829  0.00  0.00    +0.056 N 
ATOM     12  O   UNL     1      -2.500 -10.918  -1.084  0.00  0.00    -0.126 OA
ATOM     13  O   UNL     1      -1.215 -10.663  -2.718  0.00  0.00    -0.126 OA
ENDBRANCH   6  11
BRANCH   1  14
ATOM     14  C   UNL     1      -2.844  -2.592  -0.110  0.00  0.00    +0.070 C 
BRANCH  14  15
ATOM     15  C   UNL     1      -1.413  -2.063   0.004  0.00  0.00    +0.062 C 
ATOM     16 BR   UNL     1      -0.604  -2.717   1.673  0.00  0.00    -0.088 Br
BRANCH  15  17
ATOM     17  C   UNL     1      -1.433  -0.534   0.013  0.00  0.00    +0.015 C 
BRANCH  17  19
ATOM     18  C   UNL     1      -0.019   1.526   0.010  0.00  0.00    +0.004 C 
ATOM     19  C   UNL     1       0.002  -0.004   0.002  0.00  0.00    -0.002 C 
ENDBRANCH  17  19
ENDBRANCH  15  17
ENDBRANCH  14  15
ENDBRANCH   1  14
TORSDOF 5
