REMARK  Name = ZINC39533580
REMARK  11 active torsions:
REMARK  status: ('A' for Active; 'I' for Inactive)
REMARK    1  A    between atoms: C_1  and  C_2
REMARK    2  A    between atoms: C_2  and  C_3
REMARK    3  A    between atoms: C_2  and  C_4
REMARK    4  A    between atoms: C_4  and  C_5
REMARK    5  A    between atoms: C_8  and  C_11
REMARK    6  A    between atoms: C_11  and  C_13
REMARK    7  A    between atoms: C_11  and  N_16
REMARK    8  A    between atoms: C_13  and  N_14
REMARK    9  A    between atoms: C_20  and  S_23
REMARK   10  A    between atoms: S_23  and  O_26
REMARK   11  A    between atoms: O_26  and  C_27
REMARK                            x       y       z     vdW  Elec       q    Type
REMARK                         _______ _______ _______ _____ _____    ______ ____
ROOT
ATOM      1  N   UNL     1      -0.497  -6.948   0.489  0.00  0.00    -0.296 NA
ATOM      2  C   UNL     1       0.830  -6.316   0.502  0.00  0.00    +0.066 C 
ATOM      3  C   UNL     1       1.702  -6.988   1.565  0.00  0.00    -0.064 C 
ATOM      4  N   UNL     1       1.825  -8.421   1.264  0.00  0.00    +0.398 N 
ATOM      5  C   UNL     1       0.494  -9.042   1.279  0.00  0.00    +0.130 C 
ATOM      6  C   UNL     1      -0.387  -8.387   0.213  0.00  0.00    +0.095 C 
ATOM      7  H   UNL     1       2.240  -8.537   0.351  0.00  0.00    -0.083 HD
ATOM      8  H   UNL     1       2.410  -8.861   1.958  0.00  0.00    -0.083 HD
ENDROOT
BRANCH   5   9
ATOM      9  S   UNL     1       0.651 -10.815   0.928  0.00  0.00    +0.109 S 
ATOM     10  O   UNL     1      -0.600 -11.463   1.114  0.00  0.00    -0.138 OA
ATOM     11  O   UNL     1       1.400 -11.014  -0.264  0.00  0.00    -0.138 OA
BRANCH   9  12
ATOM     12  O   UNL     1       1.538 -11.357   2.039  0.00  0.00    -0.347 OA
BRANCH  12  13
ATOM     13  C   UNL     1       0.910 -11.477   3.239  0.00  0.00    +0.156 A 
ATOM     14  C   UNL     1       0.912 -10.418   4.133  0.00  0.00    +0.048 A 
ATOM     15  C   UNL     1       0.273 -10.542   5.352  0.00  0.00    +0.004 A 
ATOM     16  C   UNL     1      -0.368 -11.723   5.679  0.00  0.00    +0.000 A 
ATOM     17  C   UNL     1      -0.371 -12.781   4.789  0.00  0.00    +0.004 A 
ATOM     18  C   UNL     1       0.262 -12.659   3.567  0.00  0.00    +0.048 A 
ENDBRANCH  12  13
ENDBRANCH   9  12
ENDBRANCH   5   9
BRANCH   1  19
ATOM     19  C   UNL     1      -1.383  -6.292  -0.482  0.00  0.00    +0.102 C 
BRANCH  19  23
ATOM     20  C   UNL     1      -1.828  -2.171   0.553  0.00  0.00    -0.047 A 
ATOM     21  C   UNL     1      -1.699  -2.541  -0.772  0.00  0.00    +0.004 A 
ATOM     22  C   UNL     1      -1.555  -3.874  -1.107  0.00  0.00    +0.005 A 
ATOM     23  C   UNL     1      -1.539  -4.838  -0.117  0.00  0.00    -0.029 A 
ATOM     24  C   UNL     1      -1.667  -4.468   1.209  0.00  0.00    +0.005 A 
ATOM     25  C   UNL     1      -1.806  -3.134   1.545  0.00  0.00    +0.004 A 
BRANCH  20  26
ATOM     26  C   UNL     1      -1.985  -0.717   0.918  0.00  0.00    +0.038 C 
BRANCH  26  28
ATOM     27  C   UNL     1      -0.757   1.408   1.386  0.00  0.00    +0.007 C 
ATOM     28  C   UNL     1      -0.605  -0.095   1.138  0.00  0.00    -0.013 C 
ATOM     29  C   UNL     1       0.061  -0.747   2.351  0.00  0.00    +0.007 C 
ENDBRANCH  26  28
ENDBRANCH  20  26
ENDBRANCH  19  23
BRANCH  19  30
ATOM     30  C   UNL     1      -2.753  -6.972  -0.463  0.00  0.00    +0.122 C 
BRANCH  30  31
ATOM     31  N   UNL     1      -3.612  -6.371  -1.491  0.00  0.00    -0.231 NA
ATOM     32 CL   UNL     1      -5.200  -7.000  -1.407  0.00  0.00    -0.024 Cl
ATOM     33  H   UNL     1      -3.220  -6.501  -2.412  0.00  0.00    +0.141 HD
ENDBRANCH  30  31
ENDBRANCH  19  30
ENDBRANCH   1  19
TORSDOF 9
