REMARK  Name = ZINC44019788
REMARK  7 active torsions:
REMARK  status: ('A' for Active; 'I' for Inactive)
REMARK    1  A    between atoms: C_1  and  C_2
REMARK    2  A    between atoms: C_4  and  O_40
REMARK    3  A    between atoms: C_15  and  C_26
REMARK    4  A    between atoms: C_17  and  C_20
REMARK    5  A    between atoms: C_26  and  C_28
REMARK    6  A    between atoms: C_28  and  O_29
REMARK    7  A    between atoms: C_38  and  C_39
REMARK                            x       y       z     vdW  Elec       q    Type
REMARK                         _______ _______ _______ _____ _____    ______ ____
ROOT
ATOM      1  C   UNL     1      -0.071   1.544  -0.115  0.00  0.00    +0.015 C 
ATOM      2  C   UNL     1      -0.020   0.012  -0.072  0.00  0.00    +0.012 C 
ATOM      3  C   UNL     1       0.433  -0.577  -1.403  0.00  0.00    +0.042 C 
ATOM      4  C   UNL     1       1.924  -0.326  -1.650  0.00  0.00    +0.120 C 
ATOM      5  C   UNL     1       2.736  -1.022  -0.559  0.00  0.00    +0.035 C 
ATOM      6  C   UNL     1       2.354  -0.424   0.794  0.00  0.00    -0.000 C 
ATOM      7  C   UNL     1       0.872  -0.489   1.073  0.00  0.00    +0.004 C 
ATOM      8  C   UNL     1       0.356  -1.919   1.330  0.00  0.00    +0.039 C 
ATOM      9  C   UNL     1      -1.176  -1.708   1.302  0.00  0.00    +0.161 C 
ATOM     10  C   UNL     1      -1.413  -0.582   0.263  0.00  0.00    +0.164 C 
ATOM     11  O   UNL     1      -1.945  -1.252  -0.894  0.00  0.00    -0.334 OA
ATOM     12  C   UNL     1      -1.722  -2.663  -0.692  0.00  0.00    +0.255 C 
ATOM     13  O   UNL     1      -1.821  -2.862   0.737  0.00  0.00    -0.344 OA
ATOM     14  C   UNL     1       3.104  -1.121   1.935  0.00  0.00    +0.008 C 
ATOM     15  C   UNL     1       4.611  -0.899   1.761  0.00  0.00    +0.032 C 
ATOM     16  C   UNL     1       4.973  -1.446   0.392  0.00  0.00    -0.056 C 
ATOM     17  C   UNL     1       5.898  -2.389   0.313  0.00  0.00    +0.051 C 
ATOM     18  C   UNL     1       6.270  -2.969  -0.986  0.00  0.00    +0.179 C 
ATOM     19  O   UNL     1       7.116  -3.839  -1.064  0.00  0.00    -0.288 OA
ATOM     20  C   UNL     1       5.588  -2.464  -2.188  0.00  0.00    +0.047 C 
ATOM     21  C   UNL     1       4.676  -1.510  -2.081  0.00  0.00    -0.012 C 
ATOM     22  C   UNL     1       4.239  -0.887  -0.799  0.00  0.00    +0.013 C 
ATOM     23  C   UNL     1       4.601   0.599  -0.891  0.00  0.00    +0.020 C 
ENDROOT
BRANCH  12  24
ATOM     24  C   UNL     1      -2.809  -3.470  -1.403  0.00  0.00    +0.045 C 
ATOM     25  C   UNL     1      -4.179  -3.090  -0.838  0.00  0.00    +0.008 C 
ATOM     26  C   UNL     1      -5.267  -3.897  -1.550  0.00  0.00    +0.000 C 
ATOM     27  C   UNL     1      -5.020  -5.390  -1.328  0.00  0.00    +0.000 C 
ATOM     28  C   UNL     1      -3.651  -5.771  -1.894  0.00  0.00    +0.000 C 
ATOM     29  C   UNL     1      -2.563  -4.963  -1.182  0.00  0.00    +0.008 C 
ENDBRANCH  12  24
BRANCH  10  30
ATOM     30  C   UNL     1      -2.360   0.473   0.787  0.00  0.00    +0.193 C 
ATOM     31  O   UNL     1      -2.395   0.719   1.968  0.00  0.00    -0.292 OA
BRANCH  30  32
ATOM     32  C   UNL     1      -3.261   1.217  -0.165  0.00  0.00    +0.233 C 
BRANCH  32  33
ATOM     33  O   UNL     1      -4.056   2.154   0.565  0.00  0.00    -0.387 OA
ATOM     34  H   UNL     1      -4.660   2.669   0.014  0.00  0.00    +0.210 HD
ENDBRANCH  32  33
ENDBRANCH  30  32
ENDBRANCH  10  30
BRANCH   4  35
ATOM     35  O   UNL     1       2.232  -0.867  -2.938  0.00  0.00    -0.391 OA
ATOM     36  H   UNL     1       1.729  -0.470  -3.662  0.00  0.00    +0.210 HD
ENDBRANCH   4  35
TORSDOF 5
