REMARK  Name = ZINC18177214
REMARK  8 active torsions:
REMARK  status: ('A' for Active; 'I' for Inactive)
REMARK    1  A    between atoms: C_3  and  S_23
REMARK    2  A    between atoms: C_6  and  C_7
REMARK    3  A    between atoms: C_7  and  C_8
REMARK    4  A    between atoms: C_8  and  N_9
REMARK    5  A    between atoms: N_12  and  C_13
REMARK    6  A    between atoms: C_16  and  S_19
REMARK    7  A    between atoms: S_19  and  N_22
REMARK    8  A    between atoms: S_23  and  N_26
REMARK                            x       y       z     vdW  Elec       q    Type
REMARK                         _______ _______ _______ _____ _____    ______ ____
ROOT
ATOM      1  N   UNL     1      -0.063   1.125  -2.437  0.00  0.00    -0.299 N 
ATOM      2  C   UNL     1      -0.544   1.444  -3.655  0.00  0.00    +0.304 C 
ATOM      3  O   UNL     1      -1.548   2.123  -3.753  0.00  0.00    -0.253 OA
ATOM      4  N   UNL     1       0.087   1.011  -4.764  0.00  0.00    -0.269 N 
ATOM      5  H   UNL     1       0.737   0.583  -2.358  0.00  0.00    +0.150 HD
ATOM      6  H   UNL     1       0.924   0.527  -4.687  0.00  0.00    +0.156 HD
ENDROOT
BRANCH   4   7
ATOM      7  C   UNL     1      -0.464   1.261  -6.025  0.00  0.00    +0.035 A 
ATOM      8  C   UNL     1      -0.325   0.325  -7.042  0.00  0.00    +0.025 A 
ATOM      9  C   UNL     1      -0.875   0.572  -8.285  0.00  0.00    +0.030 A 
ATOM     10  C   UNL     1      -1.554   1.754  -8.521  0.00  0.00    +0.105 A 
ATOM     11  C   UNL     1      -1.689   2.689  -7.511  0.00  0.00    +0.030 A 
ATOM     12  C   UNL     1      -1.146   2.446  -6.265  0.00  0.00    +0.025 A 
BRANCH  10  13
ATOM     13  S   UNL     1      -2.248   2.067 -10.109  0.00  0.00    +0.056 S 
ATOM     14  O   UNL     1      -2.455   0.801 -10.719  0.00  0.00    -0.153 OA
ATOM     15  O   UNL     1      -3.301   3.001  -9.915  0.00  0.00    -0.153 OA
BRANCH  13  16
ATOM     16  N   UNL     1      -1.090   2.841 -11.006  0.00  0.00    -0.204 NA
ATOM     17  H   UNL     1      -0.222   3.032 -10.616  0.00  0.00    +0.144 HD
ATOM     18  H   UNL     1      -1.279   3.102 -11.920  0.00  0.00    +0.144 HD
ENDBRANCH  13  16
ENDBRANCH  10  13
ENDBRANCH   4   7
BRANCH   1  19
ATOM     19  C   UNL     1      -0.750   1.596  -1.231  0.00  0.00    +0.110 C 
BRANCH  19  20
ATOM     20  C   UNL     1      -0.004   1.097   0.008  0.00  0.00    +0.054 C 
BRANCH  20  26
ATOM     21  C   UNL     1      -0.360   2.792   1.815  0.00  0.00    +0.005 A 
ATOM     22  C   UNL     1      -1.011   3.238   2.950  0.00  0.00    +0.029 A 
ATOM     23  C   UNL     1      -2.007   2.469   3.523  0.00  0.00    +0.105 A 
ATOM     24  C   UNL     1      -2.354   1.256   2.959  0.00  0.00    +0.029 A 
ATOM     25  C   UNL     1      -1.706   0.812   1.822  0.00  0.00    +0.005 A 
ATOM     26  C   UNL     1      -0.711   1.581   1.248  0.00  0.00    -0.046 A 
BRANCH  23  27
ATOM     27  S   UNL     1      -2.833   3.036   4.972  0.00  0.00    +0.056 S 
ATOM     28  O   UNL     1      -2.701   4.451   4.988  0.00  0.00    -0.153 OA
ATOM     29  O   UNL     1      -4.098   2.389   4.997  0.00  0.00    -0.153 OA
BRANCH  27  30
ATOM     30  N   UNL     1      -1.984   2.466   6.275  0.00  0.00    -0.204 NA
ATOM     31  H   UNL     1      -1.190   1.927   6.138  0.00  0.00    +0.144 HD
ATOM     32  H   UNL     1      -2.281   2.672   7.175  0.00  0.00    +0.144 HD
ENDBRANCH  27  30
ENDBRANCH  23  27
ENDBRANCH  20  26
ENDBRANCH  19  20
ENDBRANCH   1  19
TORSDOF 8
