REMARK  Name = ZINC39324434
REMARK  10 active torsions:
REMARK  status: ('A' for Active; 'I' for Inactive)
REMARK    1  A    between atoms: C_1  and  C_2
REMARK    2  A    between atoms: C_2  and  C_3
REMARK    3  A    between atoms: C_7  and  C_8
REMARK    4  A    between atoms: C_11  and  O_14
REMARK    5  A    between atoms: O_14  and  C_15
REMARK    6  A    between atoms: C_19  and  C_27
REMARK    7  A    between atoms: C_21  and  C_25
REMARK    8  A    between atoms: C_22  and  N_24
REMARK    9  A    between atoms: C_30  and  O_33
REMARK   10  A    between atoms: O_33  and  C_34
REMARK                            x       y       z     vdW  Elec       q    Type
REMARK                         _______ _______ _______ _____ _____    ______ ____
ROOT
ATOM      1  C   UNL     1      -1.544  -0.670   0.157  0.00  0.00    -0.003 C 
ATOM      2  C   UNL     1      -2.163  -0.080  -1.119  0.00  0.00    +0.042 C 
ATOM      3  C   UNL     1      -3.555  -0.658  -1.240  0.00  0.00    -0.004 C 
ATOM      4  C   UNL     1      -4.592   0.111  -1.620  0.00  0.00    +0.015 C 
ATOM      5  C   UNL     1      -3.747  -2.089  -0.931  0.00  0.00    +0.133 C 
ATOM      6  C   UNL     1      -2.776  -2.795  -0.353  0.00  0.00    -0.014 C 
ATOM      7  C   UNL     1      -1.444  -2.184   0.003  0.00  0.00    +0.039 C 
ATOM      8  C   UNL     1      -2.985  -4.257  -0.031  0.00  0.00    +0.094 C 
ATOM      9  C   UNL     1      -4.449  -4.590  -0.026  0.00  0.00    +0.098 C 
ATOM     10  C   UNL     1      -5.345  -3.774  -0.637  0.00  0.00    +0.199 C 
ATOM     11  O   UNL     1      -4.940  -2.652  -1.255  0.00  0.00    -0.441 OA
ENDROOT
BRANCH   4  12
ATOM     12  C   UNL     1      -4.355   1.488  -2.086  0.00  0.00    -0.024 A 
ATOM     13  C   UNL     1      -3.181   1.801  -2.780  0.00  0.00    +0.011 A 
ATOM     14  C   UNL     1      -2.964   3.090  -3.214  0.00  0.00    +0.046 A 
ATOM     15  C   UNL     1      -3.908   4.078  -2.964  0.00  0.00    +0.120 A 
ATOM     16  C   UNL     1      -5.075   3.772  -2.276  0.00  0.00    +0.046 A 
ATOM     17  C   UNL     1      -5.305   2.484  -1.843  0.00  0.00    +0.011 A 
BRANCH  15  18
ATOM     18  O   UNL     1      -3.689   5.348  -3.393  0.00  0.00    -0.495 OA
ATOM     19  C   UNL     1      -4.701   6.315  -3.103  0.00  0.00    +0.277 C 
ENDBRANCH  15  18
ENDBRANCH   4  12
BRANCH   8  20
ATOM     20  C   UNL     1      -2.287  -5.100  -1.066  0.00  0.00    -0.035 A 
ATOM     21  C   UNL     1      -2.640  -4.989  -2.399  0.00  0.00    +0.008 A 
ATOM     22  C   UNL     1      -2.002  -5.761  -3.350  0.00  0.00    +0.046 A 
ATOM     23  C   UNL     1      -1.005  -6.647  -2.968  0.00  0.00    +0.120 A 
ATOM     24  C   UNL     1      -0.652  -6.756  -1.631  0.00  0.00    +0.046 A 
ATOM     25  C   UNL     1      -1.290  -5.978  -0.684  0.00  0.00    +0.008 A 
BRANCH  23  26
ATOM     26  O   UNL     1      -0.376  -7.408  -3.902  0.00  0.00    -0.495 OA
ATOM     27  C   UNL     1       0.640  -8.299  -3.436  0.00  0.00    +0.277 C 
ENDBRANCH  23  26
ENDBRANCH   8  20
BRANCH  10  28
ATOM     28  N   UNL     1      -6.679  -4.098  -0.623  0.00  0.00    -0.328 N 
ATOM     29  H   UNL     1      -6.977  -4.906  -0.177  0.00  0.00    +0.145 HD
ATOM     30  H   UNL     1      -7.323  -3.518  -1.058  0.00  0.00    +0.145 HD
ENDBRANCH  10  28
BRANCH   1  32
ATOM     31  C   UNL     1      -0.261   1.418   0.640  0.00  0.00    +0.004 C 
ATOM     32  C   UNL     1      -0.147  -0.083   0.369  0.00  0.00    +0.001 C 
ENDBRANCH   1  32
BRANCH   9  33
ATOM     33  C   UNL     1      -4.904  -5.780   0.627  0.00  0.00    +0.101 C 
ATOM     34  N   UNL     1      -5.266  -6.724   1.146  0.00  0.00    -0.191 NA
ENDBRANCH   9  33
TORSDOF 7
