REMARK  Name = ZINC08073421
REMARK  9 active torsions:
REMARK  status: ('A' for Active; 'I' for Inactive)
REMARK    1  A    between atoms: C_1  and  C_2
REMARK    2  A    between atoms: C_2  and  C_4
REMARK    3  A    between atoms: C_2  and  N_16
REMARK    4  A    between atoms: C_7  and  C_10
REMARK    5  A    between atoms: C_17  and  C_19
REMARK    6  A    between atoms: C_19  and  C_21
REMARK    7  A    between atoms: C_19  and  N_24
REMARK    8  A    between atoms: C_21  and  C_22
REMARK    9  A    between atoms: C_21  and  C_23
REMARK                            x       y       z     vdW  Elec       q    Type
REMARK                         _______ _______ _______ _____ _____    ______ ____
ROOT
ATOM      1  N   UNL     1       0.711  -0.489   1.189  0.00  0.00    -0.307 N 
ATOM      2  C   UNL     1       2.054  -0.600   1.174  0.00  0.00    +0.234 C 
ATOM      3  O   UNL     1       2.676  -0.297   0.177  0.00  0.00    -0.274 OA
ATOM      4  H   UNL     1       0.213  -0.731   1.986  0.00  0.00    +0.149 HD
ENDROOT
BRANCH   1   6
ATOM      5  C   UNL     1      -0.019   1.526   0.010  0.00  0.00    +0.033 C 
ATOM      6  C   UNL     1       0.002  -0.004   0.002  0.00  0.00    +0.100 C 
BRANCH   6   7
ATOM      7  C   UNL     1      -1.412  -0.526   0.013  0.00  0.00    -0.027 A 
ATOM      8  C   UNL     1      -2.121  -0.570   1.200  0.00  0.00    +0.006 A 
ATOM      9  C   UNL     1      -3.416  -1.047   1.215  0.00  0.00    +0.009 A 
ATOM     10  C   UNL     1      -4.009  -1.484   0.032  0.00  0.00    -0.018 A 
ATOM     11  C   UNL     1      -3.290  -1.437  -1.160  0.00  0.00    +0.009 A 
ATOM     12  C   UNL     1      -1.997  -0.953  -1.165  0.00  0.00    +0.006 A 
BRANCH  10  13
ATOM     13  C   UNL     1      -5.401  -1.998   0.043  0.00  0.00    -0.018 A 
ATOM     14  C   UNL     1      -6.122  -2.040   1.235  0.00  0.00    +0.008 A 
ATOM     15  C   UNL     1      -7.416  -2.518   1.239  0.00  0.00    +0.001 A 
ATOM     16  C   UNL     1      -7.998  -2.957   0.063  0.00  0.00    +0.000 A 
ATOM     17  C   UNL     1      -7.287  -2.918  -1.123  0.00  0.00    +0.001 A 
ATOM     18  C   UNL     1      -5.994  -2.435  -1.140  0.00  0.00    +0.008 A 
ENDBRANCH  10  13
ENDBRANCH   6   7
ENDBRANCH   1   6
BRANCH   2  19
ATOM     19  C   UNL     1       2.783  -1.099   2.395  0.00  0.00    +0.163 C 
BRANCH  19  20
ATOM     20  N   UNL     1       4.223  -1.127   2.126  0.00  0.00    -0.288 N 
ATOM     21  C   UNL     1       5.100  -1.042   3.146  0.00  0.00    +0.298 C 
ATOM     22  O   UNL     1       4.696  -0.941   4.288  0.00  0.00    -0.253 OA
ATOM     23  N   UNL     1       6.425  -1.068   2.899  0.00  0.00    -0.313 N 
ATOM     24  H   UNL     1       4.545  -1.208   1.215  0.00  0.00    +0.151 HD
ATOM     25  H   UNL     1       6.747  -1.148   1.987  0.00  0.00    +0.146 HD
ATOM     26  H   UNL     1       7.056  -1.006   3.632  0.00  0.00    +0.146 HD
ENDBRANCH  19  20
BRANCH  19  27
ATOM     27  C   UNL     1       2.300  -2.510   2.736  0.00  0.00    +0.012 C 
ATOM     28  C   UNL     1       2.692  -3.469   1.610  0.00  0.00    +0.009 C 
ATOM     29  C   UNL     1       2.946  -2.968   4.044  0.00  0.00    +0.009 C 
ENDBRANCH  19  27
ENDBRANCH   2  19
TORSDOF 6
