REMARK  Name = ZINC02828989
REMARK  9 active torsions:
REMARK  status: ('A' for Active; 'I' for Inactive)
REMARK    1  A    between atoms: C_4  and  S_8
REMARK    2  A    between atoms: C_6  and  N_7
REMARK    3  A    between atoms: S_8  and  C_9
REMARK    4  A    between atoms: C_9  and  C_10
REMARK    5  A    between atoms: C_10  and  C_11
REMARK    6  A    between atoms: C_11  and  C_12
REMARK    7  A    between atoms: C_12  and  S_13
REMARK    8  A    between atoms: S_13  and  C_14
REMARK    9  A    between atoms: C_18  and  N_20
REMARK                            x       y       z     vdW  Elec       q    Type
REMARK                         _______ _______ _______ _____ _____    ______ ____
ROOT
ATOM      1  C   UNL     1       2.993   5.689   0.003  0.00  0.00    +0.012 C 
ENDROOT
BRANCH   1   2
ATOM      2  C   UNL     1       2.805   4.171  -0.003  0.00  0.00    +0.077 C 
BRANCH   2   3
ATOM      3  S   UNL     1       1.038   3.781   0.012  0.00  0.00    -0.086 S 
BRANCH   3   7
ATOM      4  C   UNL     1       1.227  -0.665  -0.013  0.00  0.00    +0.086 A 
ATOM      5  C   UNL     1       0.002  -0.004   0.002  0.00  0.00    +0.122 A 
ATOM      6  N   UNL     1      -0.016   1.327   0.009  0.00  0.00    -0.207 NA
ATOM      7  C   UNL     1       1.113   2.021   0.002  0.00  0.00    +0.192 A 
ATOM      8  N   UNL     1       2.296   1.425  -0.012  0.00  0.00    -0.207 NA
ATOM      9  C   UNL     1       2.391   0.098  -0.020  0.00  0.00    +0.122 A 
ATOM     10  N   UNL     1      -1.183  -0.723   0.010  0.00  0.00    -0.343 N 
ATOM     11  H   UNL     1      -2.034  -0.255   0.021  0.00  0.00    +0.144 HD
ATOM     12  H   UNL     1      -1.163  -1.692   0.004  0.00  0.00    +0.144 HD
BRANCH   9  13
ATOM     13  N   UNL     1       3.634  -0.518  -0.035  0.00  0.00    -0.343 N 
ATOM     14  H   UNL     1       3.695  -1.486  -0.040  0.00  0.00    +0.144 HD
ATOM     15  H   UNL     1       4.441   0.020  -0.040  0.00  0.00    +0.144 HD
ENDBRANCH   9  13
ENDBRANCH   3   7
ENDBRANCH   2   3
ENDBRANCH   1   2
BRANCH   1  16
ATOM     16  C   UNL     1       4.487   6.019  -0.009  0.00  0.00    +0.012 C 
BRANCH  16  17
ATOM     17  C   UNL     1       4.675   7.537  -0.003  0.00  0.00    +0.077 C 
BRANCH  17  18
ATOM     18  S   UNL     1       6.442   7.927  -0.018  0.00  0.00    -0.086 S 
BRANCH  18  19
ATOM     19  C   UNL     1       6.367   9.687  -0.008  0.00  0.00    +0.192 A 
ATOM     20  N   UNL     1       5.184  10.283   0.000  0.00  0.00    -0.207 NA
ATOM     21  C   UNL     1       5.089  11.611   0.013  0.00  0.00    +0.122 A 
ATOM     22  C   UNL     1       6.253  12.373   0.005  0.00  0.00    +0.086 A 
ATOM     23  C   UNL     1       7.478  11.712  -0.009  0.00  0.00    +0.122 A 
ATOM     24  N   UNL     1       7.496  10.381  -0.015  0.00  0.00    -0.207 NA
ATOM     25  N   UNL     1       3.846  12.226   0.027  0.00  0.00    -0.343 N 
ATOM     26  H   UNL     1       3.785  13.194   0.033  0.00  0.00    +0.144 HD
ATOM     27  H   UNL     1       3.039  11.688   0.032  0.00  0.00    +0.144 HD
BRANCH  23  28
ATOM     28  N   UNL     1       8.663  12.431  -0.016  0.00  0.00    -0.343 N 
ATOM     29  H   UNL     1       9.514  11.963  -0.025  0.00  0.00    +0.144 HD
ATOM     30  H   UNL     1       8.643  13.400  -0.011  0.00  0.00    +0.144 HD
ENDBRANCH  23  28
ENDBRANCH  18  19
ENDBRANCH  17  18
ENDBRANCH  16  17
ENDBRANCH   1  16
TORSDOF 9
