REMARK  Name = ZINC60373769
REMARK  5 active torsions:
REMARK  status: ('A' for Active; 'I' for Inactive)
REMARK    1  A    between atoms: C_3  and  C_6
REMARK    2  A    between atoms: C_6  and  N_7
REMARK    3  A    between atoms: C_11  and  C_30
REMARK    4  A    between atoms: N_16  and  C_17
REMARK    5  A    between atoms: C_17  and  C_19
REMARK                            x       y       z     vdW  Elec       q    Type
REMARK                         _______ _______ _______ _____ _____    ______ ____
ROOT
ATOM      1  N   UNL     1       4.114   0.606   1.341  0.00  0.00    -0.304 N 
ATOM      2  C   UNL     1       4.417   1.723   2.113  0.00  0.00    +0.068 A 
ATOM      3  C   UNL     1       4.359   3.088   1.867  0.00  0.00    +0.028 A 
ATOM      4  C   UNL     1       4.732   3.981   2.852  0.00  0.00    +0.014 A 
ATOM      5  C   UNL     1       5.165   3.521   4.084  0.00  0.00    +0.057 A 
ATOM      6  C   UNL     1       5.227   2.165   4.338  0.00  0.00    +0.040 A 
ATOM      7  C   UNL     1       4.853   1.259   3.356  0.00  0.00    +0.066 A 
ATOM      8  N   UNL     1       4.807  -0.131   3.314  0.00  0.00    -0.326 N 
ATOM      9  C   UNL     1       4.352  -0.506   2.088  0.00  0.00    +0.202 A 
ATOM     10  N   UNL     1       4.172  -1.757   1.685  0.00  0.00    -0.142 NA
ATOM     11  H   UNL     1       5.054  -0.729   4.037  0.00  0.00    +0.169 HD
ENDROOT
BRANCH   5  12
ATOM     12  C   UNL     1       5.571   4.504   5.151  0.00  0.00    +0.417 C 
ATOM     13  F   UNL     1       5.425   5.807   4.665  0.00  0.00    -0.166 F 
ATOM     14  F   UNL     1       4.758   4.332   6.277  0.00  0.00    -0.166 F 
ATOM     15  F   UNL     1       6.907   4.285   5.503  0.00  0.00    -0.166 F 
ENDBRANCH   5  12
BRANCH  10  16
ATOM     16  C   UNL     1       4.544  -2.774   2.471  0.00  0.00    +0.272 C 
ATOM     17  O   UNL     1       4.960  -2.555   3.595  0.00  0.00    -0.268 OA
BRANCH  16  18
ATOM     18  C   UNL     1       4.451  -4.164   1.975  0.00  0.00    +0.057 A 
ATOM     19  C   UNL     1       4.833  -5.238   2.793  0.00  0.00    +0.018 A 
ATOM     20  C   UNL     1       4.730  -6.508   2.293  0.00  0.00    +0.044 A 
ATOM     21  C   UNL     1       4.253  -6.697   0.998  0.00  0.00    +0.121 A 
ATOM     22  N   UNL     1       3.899  -5.664   0.245  0.00  0.00    -0.240 NA
ATOM     23  C   UNL     1       3.977  -4.427   0.691  0.00  0.00    +0.126 A 
ATOM     24  N   UNL     1       4.148  -7.981   0.488  0.00  0.00    -0.315 N 
ATOM     25  C   UNL     1       3.769  -8.328  -0.889  0.00  0.00    +0.106 C 
ATOM     26  C   UNL     1       3.760  -9.868  -0.988  0.00  0.00    +0.020 C 
ATOM     27  C   UNL     1       3.583 -10.310   0.489  0.00  0.00    +0.020 C 
ATOM     28  C   UNL     1       4.403  -9.226   1.236  0.00  0.00    +0.106 C 
ENDBRANCH  16  18
ENDBRANCH  10  16
BRANCH   1  29
ATOM     29  C   UNL     1       3.619   0.624  -0.038  0.00  0.00    +0.199 C 
BRANCH  29  32
ATOM     30  C   UNL     1       0.008   1.359  -0.018  0.00  0.00    +0.041 A 
ATOM     31  C   UNL     1       1.357   1.780  -0.023  0.00  0.00    +0.046 A 
ATOM     32  C   UNL     1       2.113   0.666  -0.030  0.00  0.00    +0.125 A 
ATOM     33  O   UNL     1       1.297  -0.400  -0.029  0.00  0.00    -0.466 OA
ATOM     34  C   UNL     1       0.019   0.013  -0.022  0.00  0.00    +0.195 A 
ENDBRANCH  29  32
ENDBRANCH   1  29
TORSDOF 5
