REMARK  Name = ZINC42175424
REMARK  3 active torsions:
REMARK  status: ('A' for Active; 'I' for Inactive)
REMARK    1  A    between atoms: C_4  and  C_8
REMARK    2  A    between atoms: C_9  and  C_14
REMARK    3  A    between atoms: C_12  and  N_13
REMARK                            x       y       z     vdW  Elec       q    Type
REMARK                         _______ _______ _______ _____ _____    ______ ____
ROOT
ATOM      1  C   UNL     1       3.730  -0.637  -0.039  0.00  0.00    +0.069 A 
ATOM      2  C   UNL     1       4.420  -1.083  -1.186  0.00  0.00    +0.097 A 
ATOM      3  N   UNL     1       5.478  -1.736  -0.797  0.00  0.00    -0.080 NA
ATOM      4  O   UNL     1       5.514  -1.738   0.618  0.00  0.00    -0.339 OA
ATOM      5  C   UNL     1       4.444  -1.059   1.066  0.00  0.00    +0.223 A 
ENDROOT
BRANCH   1   9
ATOM      6  C   UNL     1       0.120   1.611   0.009  0.00  0.00    +0.003 A 
ATOM      7  C   UNL     1       1.339   2.265  -0.019  0.00  0.00    +0.021 A 
ATOM      8  C   UNL     1       2.514   1.541  -0.034  0.00  0.00    +0.050 A 
ATOM      9  C   UNL     1       2.471   0.147  -0.022  0.00  0.00    +0.025 A 
ATOM     10  C   UNL     1       1.240  -0.507   0.006  0.00  0.00    +0.050 A 
ATOM     11  C   UNL     1       0.071   0.229   0.021  0.00  0.00    +0.021 A 
ATOM     12 CL   UNL     1       1.176  -2.241   0.021  0.00  0.00    -0.083 Cl
ATOM     13 CL   UNL     1       4.043   2.364  -0.069  0.00  0.00    -0.083 Cl
ENDBRANCH   1   9
BRANCH   2  14
ATOM     14  C   UNL     1       4.005  -0.846  -2.615  0.00  0.00    +0.045 C 
ATOM     15  C   UNL     1       5.249  -0.695  -3.520  0.00  0.00    +0.013 C 
ATOM     16  C   UNL     1       5.136  -1.865  -4.545  0.00  0.00    -0.010 C 
ATOM     17  C   UNL     1       5.434  -3.147  -3.708  0.00  0.00    +0.004 C 
ATOM     18  C   UNL     1       4.201  -3.310  -2.790  0.00  0.00    +0.004 C 
ATOM     19  C   UNL     1       3.254  -2.091  -3.177  0.00  0.00    -0.002 C 
ATOM     20  C   UNL     1       3.578  -1.957  -4.708  0.00  0.00    +0.007 C 
ENDBRANCH   2  14
BRANCH   5  21
ATOM     21  N   UNL     1       4.118  -0.829   2.386  0.00  0.00    -0.327 N 
ATOM     22  H   UNL     1       3.318  -0.327   2.607  0.00  0.00    +0.145 HD
ATOM     23  H   UNL     1       4.688  -1.170   3.093  0.00  0.00    +0.145 HD
ENDBRANCH   5  21
TORSDOF 3
