REMARK  Name = ZINC03664055
REMARK  10 active torsions:
REMARK  status: ('A' for Active; 'I' for Inactive)
REMARK    1  A    between atoms: C_1  and  O_2
REMARK    2  A    between atoms: O_2  and  C_3
REMARK    3  A    between atoms: C_6  and  C_9
REMARK    4  A    between atoms: N_18  and  C_26
REMARK    5  A    between atoms: C_19  and  N_25
REMARK    6  A    between atoms: C_20  and  C_21
REMARK    7  A    between atoms: C_21  and  O_23
REMARK    8  A    between atoms: O_23  and  C_24
REMARK    9  A    between atoms: C_29  and  S_32
REMARK   10  A    between atoms: S_32  and  N_35
REMARK                            x       y       z     vdW  Elec       q    Type
REMARK                         _______ _______ _______ _____ _____    ______ ____
ROOT
ATOM      1  C   UNL     1       1.150   2.170  -0.053  0.00  0.00    +0.094 C 
ATOM      2  C   UNL     1       2.154   1.506   0.855  0.00  0.00    +0.025 C 
ATOM      3  C   UNL     1       2.269   0.162   0.896  0.00  0.00    +0.024 C 
ATOM      4  C   UNL     1       3.291  -0.504   1.784  0.00  0.00    +0.052 C 
ATOM      5  C   UNL     1       3.521   0.351   3.033  0.00  0.00    +0.014 C 
ATOM      6  C   UNL     1       3.990   1.741   2.590  0.00  0.00    +0.080 C 
ATOM      7  C   UNL     1       2.969   2.328   1.653  0.00  0.00    +0.162 C 
ATOM      8  O   UNL     1       2.847   3.535   1.585  0.00  0.00    -0.292 OA
ATOM      9  N   UNL     1       1.458  -0.633   0.127  0.00  0.00    -0.261 N 
ATOM     10  C   UNL     1       0.283  -0.142  -0.388  0.00  0.00    +0.103 C 
ATOM     11  C   UNL     1       0.091   1.202  -0.490  0.00  0.00    +0.084 C 
ENDROOT
BRANCH   1  15
ATOM     12  C   UNL     1       3.168   3.690  -3.500  0.00  0.00    +0.120 A 
ATOM     13  C   UNL     1       2.503   4.557  -2.645  0.00  0.00    +0.046 A 
ATOM     14  C   UNL     1       1.851   4.064  -1.532  0.00  0.00    +0.008 A 
ATOM     15  C   UNL     1       1.861   2.706  -1.268  0.00  0.00    -0.035 A 
ATOM     16  C   UNL     1       2.528   1.840  -2.115  0.00  0.00    +0.008 A 
ATOM     17  C   UNL     1       3.177   2.329  -3.233  0.00  0.00    +0.046 A 
BRANCH  12  19
ATOM     18  C   UNL     1       4.474   3.222  -5.430  0.00  0.00    +0.277 C 
ATOM     19  O   UNL     1       3.811   4.173  -4.595  0.00  0.00    -0.495 OA
ENDBRANCH  12  19
ENDBRANCH   1  15
BRANCH   9  20
ATOM     20  C   UNL     1       1.832  -1.956  -0.136  0.00  0.00    +0.040 A 
ATOM     21  C   UNL     1       2.927  -2.222  -0.949  0.00  0.00    +0.026 A 
ATOM     22  C   UNL     1       3.297  -3.528  -1.201  0.00  0.00    +0.030 A 
ATOM     23  C   UNL     1       2.572  -4.572  -0.656  0.00  0.00    +0.105 A 
ATOM     24  C   UNL     1       1.478  -4.311   0.149  0.00  0.00    +0.030 A 
ATOM     25  C   UNL     1       1.106  -3.006   0.410  0.00  0.00    +0.026 A 
BRANCH  23  26
ATOM     26  S   UNL     1       3.042  -6.237  -0.988  0.00  0.00    +0.056 S 
ATOM     27  O   UNL     1       4.423  -6.210  -1.322  0.00  0.00    -0.153 OA
ATOM     28  O   UNL     1       2.532  -7.023   0.081  0.00  0.00    -0.153 OA
BRANCH  26  29
ATOM     29  N   UNL     1       2.233  -6.712  -2.353  0.00  0.00    -0.204 NA
ATOM     30  H   UNL     1       1.635  -6.094  -2.801  0.00  0.00    +0.144 HD
ATOM     31  H   UNL     1       2.358  -7.607  -2.704  0.00  0.00    +0.144 HD
ENDBRANCH  26  29
ENDBRANCH  23  26
ENDBRANCH   9  20
BRANCH  10  32
ATOM     32  N   UNL     1      -0.698  -1.007  -0.800  0.00  0.00    -0.346 N 
ATOM     33  H   UNL     1      -0.458  -1.861  -1.193  0.00  0.00    +0.143 HD
ATOM     34  H   UNL     1      -1.631  -0.765  -0.700  0.00  0.00    +0.143 HD
ENDBRANCH  10  32
BRANCH  11  35
ATOM     35  C   UNL     1      -1.114   1.688  -1.017  0.00  0.00    +0.339 C 
ATOM     36  O   UNL     1      -1.941   0.913  -1.463  0.00  0.00    -0.245 OA
BRANCH  35  37
ATOM     37  O   UNL     1      -1.357   3.017  -1.032  0.00  0.00    -0.465 OA
ATOM     38  C   UNL     1      -2.605   3.442  -1.583  0.00  0.00    +0.280 C 
ENDBRANCH  35  37
ENDBRANCH  11  35
TORSDOF 8
