REMARK  Name = ZINC11825171
REMARK  10 active torsions:
REMARK  status: ('A' for Active; 'I' for Inactive)
REMARK    1  A    between atoms: C_1  and  C_2
REMARK    2  A    between atoms: N_4  and  C_5
REMARK    3  A    between atoms: C_8  and  C_11
REMARK    4  A    between atoms: C_14  and  C_16
REMARK    5  A    between atoms: C_16  and  C_18
REMARK    6  A    between atoms: C_16  and  N_52
REMARK    7  A    between atoms: C_21  and  C_24
REMARK    8  A    between atoms: C_24  and  C_25
REMARK    9  A    between atoms: C_24  and  C_26
REMARK   10  A    between atoms: C_24  and  C_27
REMARK                            x       y       z     vdW  Elec       q    Type
REMARK                         _______ _______ _______ _____ _____    ______ ____
ROOT
ATOM      1  C   UNL     1      -4.852   3.879   0.197  0.00  0.00    +0.078 A 
ATOM      2  C   UNL     1      -6.047   3.249   0.422  0.00  0.00    +0.075 A 
ATOM      3  S   UNL     1      -7.167   4.641   0.371  0.00  0.00    -0.081 S 
ATOM      4  C   UNL     1      -5.984   5.875   0.067  0.00  0.00    +0.069 A 
ATOM      5  N   UNL     1      -4.866   5.192   0.030  0.00  0.00    -0.245 NA
ENDROOT
BRANCH   1   9
ATOM      6  C   UNL     1      -1.209   1.687   0.055  0.00  0.00    +0.033 A 
ATOM      7  C   UNL     1      -1.187   3.074  -0.019  0.00  0.00    +0.024 A 
ATOM      8  C   UNL     1      -2.367   3.787   0.021  0.00  0.00    +0.012 A 
ATOM      9  C   UNL     1      -3.582   3.115   0.148  0.00  0.00    +0.001 A 
ATOM     10  C   UNL     1      -3.601   1.723   0.227  0.00  0.00    +0.012 A 
ATOM     11  C   UNL     1      -2.419   1.015   0.181  0.00  0.00    +0.024 A 
BRANCH   6  15
ATOM     12  C   UNL     1       1.339  -0.968  -0.739  0.00  0.00    +0.109 C 
ATOM     13  C   UNL     1       0.029  -0.236  -0.602  0.00  0.00    +0.214 C 
ATOM     14  O   UNL     1      -0.990  -0.727  -1.040  0.00  0.00    -0.276 OA
ATOM     15  N   UNL     1      -0.011   0.966   0.007  0.00  0.00    -0.286 N 
ATOM     16  H   UNL     1       0.790   1.329   0.417  0.00  0.00    +0.155 HD
ENDBRANCH   6  15
ENDBRANCH   1   9
BRANCH   4  17
ATOM     17  C   UNL     1      -6.191   7.358  -0.105  0.00  0.00    +0.013 C 
BRANCH  17  18
ATOM     18  C   UNL     1      -6.461   7.986   1.238  0.00  0.00    -0.056 A 
ATOM     19  C   UNL     1      -7.726   7.915   1.792  0.00  0.00    +0.002 A 
ATOM     20  C   UNL     1      -7.973   8.487   3.026  0.00  0.00    +0.004 A 
ATOM     21  C   UNL     1      -6.958   9.139   3.701  0.00  0.00    -0.042 A 
ATOM     22  C   UNL     1      -5.695   9.216   3.144  0.00  0.00    +0.004 A 
ATOM     23  C   UNL     1      -5.447   8.639   1.913  0.00  0.00    +0.002 A 
BRANCH  21  24
ATOM     24  C   UNL     1      -7.229   9.768   5.044  0.00  0.00    -0.013 C 
ATOM     25  C   UNL     1      -6.947  11.270   4.970  0.00  0.00    +0.015 C 
ATOM     26  C   UNL     1      -8.692   9.541   5.427  0.00  0.00    +0.015 C 
ATOM     27  C   UNL     1      -6.321   9.130   6.098  0.00  0.00    +0.015 C 
ENDBRANCH  21  24
ENDBRANCH  17  18
BRANCH  17  30
ATOM     28  H   UNL     1      -7.152   7.238  -1.921  0.00  0.00    -0.089 HD
ATOM     29  H   UNL     1      -8.178   7.191  -0.614  0.00  0.00    -0.089 HD
ATOM     30  N   UNL     1      -7.336   7.619  -0.995  0.00  0.00    +0.387 N 
ATOM     31  H   UNL     1      -7.479   8.632  -1.072  0.00  0.00    -0.089 HD
ENDBRANCH  17  30
ENDBRANCH   4  17
TORSDOF 6
