REMARK  Name = ZINC14478791
REMARK  7 active torsions:
REMARK  status: ('A' for Active; 'I' for Inactive)
REMARK    1  A    between atoms: C_1  and  C_2
REMARK    2  A    between atoms: C_7  and  C_8
REMARK    3  A    between atoms: C_19  and  S_24
REMARK    4  A    between atoms: S_24  and  N_27
REMARK    5  A    between atoms: N_27  and  C_28
REMARK    6  A    between atoms: C_29  and  C_35
REMARK    7  A    between atoms: C_33  and  C_34
REMARK                            x       y       z     vdW  Elec       q    Type
REMARK                         _______ _______ _______ _____ _____    ______ ____
ROOT
ATOM      1  C   UNL     1      -0.334   5.161   5.022  0.00  0.00    +0.105 C 
ATOM      2  C   UNL     1      -0.203   6.061   3.790  0.00  0.00    +0.029 C 
ATOM      3  C   UNL     1      -1.451   6.991   3.761  0.00  0.00    +0.033 C 
ATOM      4  C   UNL     1      -2.519   6.125   3.122  0.00  0.00    -0.030 C 
ATOM      5  C   UNL     1      -1.972   5.158   2.428  0.00  0.00    -0.023 C 
ATOM      6  C   UNL     1      -0.466   5.242   2.511  0.00  0.00    +0.049 C 
ATOM      7  C   UNL     1       0.156   3.882   2.551  0.00  0.00    -0.018 A 
ATOM      8  C   UNL     1       0.218   3.144   1.377  0.00  0.00    +0.034 A 
ATOM      9  C   UNL     1       0.783   1.885   1.369  0.00  0.00    +0.109 A 
ATOM     10  C   UNL     1       1.305   1.347   2.532  0.00  0.00    +0.030 A 
ATOM     11  C   UNL     1       1.253   2.074   3.705  0.00  0.00    +0.025 A 
ATOM     12  C   UNL     1       0.678   3.338   3.714  0.00  0.00    +0.031 A 
ATOM     13  N   UNL     1       0.628   4.060   4.912  0.00  0.00    -0.336 N 
ATOM     14  H   UNL     1       1.216   3.838   5.651  0.00  0.00    +0.147 HD
ENDROOT
BRANCH   1  21
ATOM     15  C   UNL     1      -1.105   4.138   7.612  0.00  0.00    +0.044 C 
ATOM     16  C   UNL     1      -0.413   5.473   7.505  0.00  0.00    -0.045 A 
ATOM     17  C   UNL     1      -0.147   6.207   8.645  0.00  0.00    +0.004 A 
ATOM     18  C   UNL     1       0.488   7.431   8.546  0.00  0.00    +0.000 A 
ATOM     19  C   UNL     1       0.857   7.920   7.307  0.00  0.00    +0.000 A 
ATOM     20  C   UNL     1       0.596   7.183   6.167  0.00  0.00    +0.006 A 
ATOM     21  C   UNL     1      -0.044   5.962   6.266  0.00  0.00    -0.024 A 
ENDBRANCH   1  21
BRANCH   9  22
ATOM     22  S   UNL     1       0.847   0.961  -0.130  0.00  0.00    +0.072 S 
ATOM     23  O   UNL     1       1.844  -0.035   0.049  0.00  0.00    -0.150 OA
ATOM     24  O   UNL     1       0.897   1.908  -1.188  0.00  0.00    -0.150 OA
BRANCH  22  25
ATOM     25  N   UNL     1      -0.598   0.164  -0.276  0.00  0.00    -0.216 N 
ATOM     26  H   UNL     1      -0.628  -0.803  -0.201  0.00  0.00    +0.174 HD
BRANCH  25  27
ATOM     27  C   UNL     1      -1.771   0.883  -0.512  0.00  0.00    +0.054 A 
ATOM     28  C   UNL     1      -2.690   1.072   0.512  0.00  0.00    -0.028 A 
ATOM     29  C   UNL     1      -3.848   1.788   0.276  0.00  0.00    +0.005 A 
ATOM     30  C   UNL     1      -4.097   2.307  -0.981  0.00  0.00    +0.001 A 
ATOM     31  C   UNL     1      -3.187   2.116  -2.005  0.00  0.00    +0.005 A 
ATOM     32  C   UNL     1      -2.025   1.406  -1.774  0.00  0.00    -0.028 A 
ATOM     33  C   UNL     1      -1.033   1.199  -2.890  0.00  0.00    +0.046 C 
ATOM     34  C   UNL     1      -2.422   0.502   1.881  0.00  0.00    +0.046 C 
ENDBRANCH  25  27
ENDBRANCH  22  25
ENDBRANCH   9  22
TORSDOF 4
