REMARK  Name = ZINC35007059
REMARK  9 active torsions:
REMARK  status: ('A' for Active; 'I' for Inactive)
REMARK    1  A    between atoms: C_1  and  C_2
REMARK    2  A    between atoms: C_2  and  C_3
REMARK    3  A    between atoms: C_3  and  C_5
REMARK    4  A    between atoms: C_3  and  N_18
REMARK    5  A    between atoms: N_15  and  C_16
REMARK    6  A    between atoms: C_16  and  C_17
REMARK    7  A    between atoms: N_18  and  C_19
REMARK    8  A    between atoms: C_19  and  C_20
REMARK    9  A    between atoms: N_23  and  C_24
REMARK                            x       y       z     vdW  Elec       q    Type
REMARK                         _______ _______ _______ _____ _____    ______ ____
ROOT
ATOM      1  C   UNL     1      -1.393  -0.408  -0.075  0.00  0.00    +0.143 C 
ENDROOT
BRANCH   1   2
ATOM      2  C   UNL     1      -1.311  -1.913  -0.071  0.00  0.00    +0.134 A 
ATOM      3  N   UNL     1      -0.556  -2.490  -0.956  0.00  0.00    -0.232 NA
ATOM      4  C   UNL     1      -0.432  -3.840  -1.013  0.00  0.00    +0.078 A 
ATOM      5  C   UNL     1       0.380  -4.462  -1.964  0.00  0.00    +0.028 A 
ATOM      6  C   UNL     1       0.476  -5.835  -1.985  0.00  0.00    +0.002 A 
ATOM      7  C   UNL     1      -0.225  -6.612  -1.072  0.00  0.00    +0.001 A 
ATOM      8  C   UNL     1      -1.032  -6.021  -0.124  0.00  0.00    +0.015 A 
ATOM      9  C   UNL     1      -1.143  -4.633  -0.086  0.00  0.00    +0.065 A 
ATOM     10  C   UNL     1      -1.989  -3.948   0.903  0.00  0.00    +0.262 A 
ATOM     11  O   UNL     1      -2.628  -4.572   1.730  0.00  0.00    -0.267 OA
ATOM     12  N   UNL     1      -2.025  -2.595   0.861  0.00  0.00    -0.295 N 
BRANCH  12  13
ATOM     13  C   UNL     1      -2.847  -1.861   1.827  0.00  0.00    +0.123 C 
ATOM     14  C   UNL     1      -4.212  -1.556   1.207  0.00  0.00    +0.027 C 
ENDBRANCH  12  13
ENDBRANCH   1   2
BRANCH   1  15
ATOM     15  N   UNL     1      -2.017   0.043  -1.321  0.00  0.00    -0.276 N 
ATOM     16  C   UNL     1      -3.091   0.858  -1.281  0.00  0.00    +0.303 C 
ATOM     17  O   UNL     1      -3.541   1.217  -0.211  0.00  0.00    -0.253 OA
ATOM     18  N   UNL     1      -3.664   1.273  -2.428  0.00  0.00    -0.296 N 
ATOM     19  H   UNL     1      -3.305   0.986  -3.282  0.00  0.00    +0.151 HD
BRANCH  18  20
ATOM     20  C   UNL     1      -4.831   2.158  -2.384  0.00  0.00    +0.074 C 
ATOM     21  C   UNL     1      -4.365   3.610  -2.263  0.00  0.00    +0.022 C 
ATOM     22  C   UNL     1      -5.584   4.534  -2.217  0.00  0.00    +0.002 C 
ATOM     23  C   UNL     1      -6.399   4.366  -3.501  0.00  0.00    +0.000 C 
ATOM     24  C   UNL     1      -6.865   2.914  -3.622  0.00  0.00    +0.002 C 
ATOM     25  C   UNL     1      -5.647   1.990  -3.668  0.00  0.00    +0.022 C 
ENDBRANCH  18  20
BRANCH  15  26
ATOM     26  C   UNL     1      -1.474  -0.390  -2.611  0.00  0.00    +0.107 C 
ATOM     27  C   UNL     1      -2.268  -1.595  -3.120  0.00  0.00    +0.024 C 
ENDBRANCH  15  26
ENDBRANCH   1  15
BRANCH   1  29
ATOM     28  C   UNL     1      -0.073   1.707   0.076  0.00  0.00    +0.006 C 
ATOM     29  C   UNL     1       0.015   0.180   0.033  0.00  0.00    +0.027 C 
ENDBRANCH   1  29
TORSDOF 6
