REMARK  Name = ZINC36309213
REMARK  14 active torsions:
REMARK  status: ('A' for Active; 'I' for Inactive)
REMARK    1  A    between atoms: C_1  and  C_2
REMARK    2  A    between atoms: C_2  and  O_3
REMARK    3  A    between atoms: O_3  and  C_4
REMARK    4  A    between atoms: C_4  and  C_5
REMARK    5  A    between atoms: C_5  and  C_7
REMARK    6  A    between atoms: C_5  and  O_37
REMARK    7  A    between atoms: C_7  and  N_8
REMARK    8  A    between atoms: N_8  and  C_9
REMARK    9  A    between atoms: N_8  and  C_15
REMARK   10  A    between atoms: C_9  and  C_10
REMARK   11  A    between atoms: C_15  and  C_16
REMARK   12  A    between atoms: C_26  and  C_28
REMARK   13  A    between atoms: C_28  and  O_29
REMARK   14  A    between atoms: O_29  and  C_30
REMARK                            x       y       z     vdW  Elec       q    Type
REMARK                         _______ _______ _______ _____ _____    ______ ____
ROOT
ATOM      1  C   UNL     1       3.759  -5.446  -5.172  0.00  0.00    +0.200 C 
ATOM      2  O   UNL     1       4.172  -4.510  -5.823  0.00  0.00    -0.278 OA
ATOM      3  N   UNL     1       4.147  -6.700  -5.474  0.00  0.00    -0.292 N 
ATOM      4  C   UNL     1       3.648  -7.843  -4.694  0.00  0.00    +0.113 C 
ATOM      5  C   UNL     1       2.794  -8.723  -5.620  0.00  0.00    +0.061 C 
ATOM      6  C   UNL     1       3.493  -8.856  -6.934  0.00  0.00    -0.004 A 
ATOM      7  C   UNL     1       4.508  -8.093  -7.422  0.00  0.00    -0.014 A 
ATOM      8  C   UNL     1       4.984  -8.422  -8.690  0.00  0.00    +0.013 A 
ATOM      9  C   UNL     1       4.442  -9.459  -9.368  0.00  0.00    +0.046 A 
ATOM     10  S   UNL     1       3.199 -10.038  -8.223  0.00  0.00    -0.101 S 
ATOM     11  C   UNL     1       5.069  -6.946  -6.591  0.00  0.00    +0.144 C 
ENDROOT
BRANCH   1  12
ATOM     12  C   UNL     1       2.813  -5.205  -4.024  0.00  0.00    +0.019 C 
BRANCH  12  13
ATOM     13  N   UNL     1       2.438  -3.786  -3.987  0.00  0.00    +0.392 N 
ATOM     14  H   UNL     1       3.271  -3.217  -3.979  0.00  0.00    -0.080 HD
BRANCH  13  15
ATOM     15  C   UNL     1       1.636  -3.461  -5.175  0.00  0.00    -0.044 C 
BRANCH  15  16
ATOM     16  C   UNL     1       1.350  -1.958  -5.201  0.00  0.00    +0.124 C 
BRANCH  16  17
ATOM     17  O   UNL     1       2.576  -1.243  -5.366  0.00  0.00    -0.391 OA
ATOM     18  H   UNL     1       3.050  -1.458  -6.181  0.00  0.00    +0.210 HD
ENDBRANCH  16  17
BRANCH  16  19
ATOM     19  C   UNL     1       0.412  -1.637  -6.367  0.00  0.00    +0.189 C 
BRANCH  19  20
ATOM     20  O   UNL     1       0.053  -0.255  -6.323  0.00  0.00    -0.378 OA
BRANCH  20  22
ATOM     21  C   UNL     1      -1.142   1.641  -7.229  0.00  0.00    +0.034 C 
ATOM     22  C   UNL     1      -0.826   0.151  -7.374  0.00  0.00    +0.156 C 
ENDBRANCH  20  22
ENDBRANCH  19  20
ENDBRANCH  16  19
ENDBRANCH  15  16
ENDBRANCH  13  15
BRANCH  13  23
ATOM     23  C   UNL     1       1.650  -3.518  -2.776  0.00  0.00    -0.002 C 
BRANCH  23  24
ATOM     24  C   UNL     1       2.513  -3.729  -1.559  0.00  0.00    +0.089 A 
ATOM     25  C   UNL     1       3.348  -2.822  -1.020  0.00  0.00    +0.042 A 
ATOM     26  C   UNL     1       3.952  -3.438   0.100  0.00  0.00    +0.041 A 
ATOM     27  C   UNL     1       3.451  -4.683   0.179  0.00  0.00    +0.195 A 
ATOM     28  O   UNL     1       2.576  -4.852  -0.826  0.00  0.00    -0.470 OA
ENDBRANCH  23  24
ENDBRANCH  13  23
ENDBRANCH  12  13
ENDBRANCH   1  12
BRANCH  11  29
ATOM     29  C   UNL     1       6.448  -7.331  -6.049  0.00  0.00    +0.256 C 
BRANCH  29  30
ATOM     30  O   UNL     1       6.357  -8.578  -5.357  0.00  0.00    -0.490 OA
BRANCH  30  31
ATOM     31  C   UNL     1       7.502  -9.065  -4.811  0.00  0.00    +0.123 A 
ATOM     32  C   UNL     1       8.688  -8.354  -4.934  0.00  0.00    +0.046 A 
ATOM     33  C   UNL     1       9.851  -8.851  -4.379  0.00  0.00    +0.006 A 
ATOM     34  C   UNL     1       9.836 -10.055  -3.700  0.00  0.00    +0.038 A 
ATOM     35  C   UNL     1       8.655 -10.767  -3.575  0.00  0.00    +0.127 A 
ATOM     36  C   UNL     1       7.486 -10.270  -4.125  0.00  0.00    +0.084 A 
ATOM     37  F   UNL     1       8.642 -11.944  -2.912  0.00  0.00    -0.205 F 
ENDBRANCH  30  31
ENDBRANCH  29  30
ENDBRANCH  11  29
TORSDOF 13
