REMARK  Name = ZINC36333796
REMARK  4 active torsions:
REMARK  status: ('A' for Active; 'I' for Inactive)
REMARK    1  A    between atoms: C_3  and  S_9
REMARK    2  A    between atoms: C_6  and  N_7
REMARK    3  A    between atoms: S_9  and  N_12
REMARK    4  A    between atoms: N_12  and  C_13
REMARK                            x       y       z     vdW  Elec       q    Type
REMARK                         _______ _______ _______ _____ _____    ______ ____
ROOT
ATOM      1  C   UNL     1      -0.017   1.385   0.010  0.00  0.00    +0.025 A 
ATOM      2  C   UNL     1       1.171   2.091   0.002  0.00  0.00    +0.032 A 
ATOM      3  C   UNL     1       2.377   1.416  -0.013  0.00  0.00    +0.124 A 
ATOM      4  C   UNL     1       2.400   0.033  -0.021  0.00  0.00    +0.046 A 
ATOM      5  C   UNL     1       1.216  -0.679  -0.014  0.00  0.00    +0.040 A 
ATOM      6  C   UNL     1       0.002  -0.004   0.002  0.00  0.00    +0.026 A 
ATOM      7 BR   UNL     1       4.054  -0.885  -0.043  0.00  0.00    -0.048 Br
ENDROOT
BRANCH   6   8
ATOM      8  N   UNL     1      -1.197  -0.720   0.010  0.00  0.00    -0.358 N 
ATOM      9  H   UNL     1      -2.044  -0.248   0.020  0.00  0.00    +0.142 HD
ATOM     10  H   UNL     1      -1.183  -1.690   0.004  0.00  0.00    +0.142 HD
ENDBRANCH   6   8
BRANCH   3  11
ATOM     11  S   UNL     1       3.890   2.321  -0.023  0.00  0.00    +0.094 S 
ATOM     12  O   UNL     1       4.688   1.766  -1.059  0.00  0.00    -0.148 OA
ATOM     13  O   UNL     1       3.540   3.697   0.015  0.00  0.00    -0.148 OA
BRANCH  11  14
ATOM     14  N   UNL     1       4.667   1.990   1.402  0.00  0.00    -0.076 NA
BRANCH  14  15
ATOM     15  C   UNL     1       5.899   2.573   1.673  0.00  0.00    +0.181 A 
ATOM     16  C   UNL     1       6.558   2.292   2.868  0.00  0.00    +0.157 A 
ATOM     17  N   UNL     1       7.727   2.847   3.121  0.00  0.00    -0.258 NA
ATOM     18  C   UNL     1       8.275   3.669   2.241  0.00  0.00    +0.130 A 
ATOM     19  C   UNL     1       7.626   3.950   1.054  0.00  0.00    +0.132 A 
ATOM     20  N   UNL     1       6.455   3.393   0.791  0.00  0.00    -0.234 NA
ENDBRANCH  14  15
ENDBRANCH  11  14
ENDBRANCH   3  11
TORSDOF 4
