REMARK  Name = ZINC35867618
REMARK  9 active torsions:
REMARK  status: ('A' for Active; 'I' for Inactive)
REMARK    1  A    between atoms: C_1  and  C_2
REMARK    2  A    between atoms: C_2  and  C_3
REMARK    3  A    between atoms: C_3  and  C_4
REMARK    4  A    between atoms: C_4  and  C_5
REMARK    5  A    between atoms: C_15  and  C_19
REMARK    6  A    between atoms: N_28  and  C_29
REMARK    7  A    between atoms: C_29  and  C_30
REMARK    8  A    between atoms: C_30  and  C_31
REMARK    9  A    between atoms: C_31  and  C_32
REMARK                            x       y       z     vdW  Elec       q    Type
REMARK                         _______ _______ _______ _____ _____    ______ ____
ROOT
ATOM      1  C   UNL     1      -2.766  -2.779   0.009  0.00  0.00    +0.132 A 
ATOM      2  N   UNL     1      -3.366  -2.997   1.166  0.00  0.00    -0.217 NA
ATOM      3  C   UNL     1      -4.659  -3.263   1.250  0.00  0.00    +0.133 A 
ATOM      4  C   UNL     1      -5.434  -3.317   0.058  0.00  0.00    +0.051 A 
ATOM      5  C   UNL     1      -6.864  -3.589  -0.094  0.00  0.00    -0.025 A 
ATOM      6  C   UNL     1      -7.358  -3.582  -1.349  0.00  0.00    -0.004 A 
ATOM      7  S   UNL     1      -5.970  -3.219  -2.390  0.00  0.00    -0.073 S 
ATOM      8  C   UNL     1      -4.725  -3.075  -1.135  0.00  0.00    +0.114 A 
ATOM      9  N   UNL     1      -3.433  -2.811  -1.129  0.00  0.00    -0.225 NA
ATOM     10  C   UNL     1      -8.776  -3.828  -1.768  0.00  0.00    +0.046 C 
ATOM     11  C   UNL     1      -9.673  -3.724  -0.526  0.00  0.00    -0.009 C 
ATOM     12  C   UNL     1      -9.048  -4.551   0.601  0.00  0.00    +0.008 C 
ATOM     13  C   UNL     1      -7.773  -3.869   1.100  0.00  0.00    +0.037 C 
ATOM     14  C   UNL     1     -11.066  -4.266  -0.853  0.00  0.00    +0.008 C 
ATOM     15  N   UNL     1      -5.250  -3.486   2.481  0.00  0.00    -0.312 N 
ATOM     16  C   UNL     1      -5.222  -4.822   3.092  0.00  0.00    +0.125 C 
ATOM     17  C   UNL     1      -4.605  -4.708   4.491  0.00  0.00    +0.128 C 
ATOM     18  N   UNL     1      -5.271  -3.614   5.211  0.00  0.00    -0.283 N 
ATOM     19  C   UNL     1      -5.299  -2.278   4.599  0.00  0.00    +0.128 C 
ATOM     20  C   UNL     1      -5.911  -2.391   3.203  0.00  0.00    +0.125 C 
ATOM     21  C   UNL     1      -5.847  -3.832   6.410  0.00  0.00    +0.302 C 
ATOM     22  O   UNL     1      -5.739  -4.916   6.948  0.00  0.00    -0.253 OA
ATOM     23  N   UNL     1      -6.542  -2.846   7.012  0.00  0.00    -0.299 N 
ATOM     24  H   UNL     1      -6.690  -2.006   6.552  0.00  0.00    +0.150 HD
ENDROOT
BRANCH   1  25
ATOM     25  C   UNL     1      -1.289  -2.480  -0.011  0.00  0.00    +0.076 C 
BRANCH  25  26
ATOM     26  C   UNL     1      -1.073  -0.970   0.108  0.00  0.00    +0.007 C 
BRANCH  26  28
ATOM     27  C   UNL     1       0.644   0.843   0.208  0.00  0.00    +0.004 C 
ATOM     28  C   UNL     1       0.427  -0.667   0.089  0.00  0.00    -0.003 C 
ENDBRANCH  26  28
ENDBRANCH  25  26
ENDBRANCH   1  25
BRANCH  23  29
ATOM     29  C   UNL     1      -7.073  -3.046   8.363  0.00  0.00    +0.106 C 
BRANCH  29  30
ATOM     30  C   UNL     1      -7.815  -1.784   8.810  0.00  0.00    +0.018 C 
BRANCH  30  31
ATOM     31  C   UNL     1      -8.370  -1.992  10.221  0.00  0.00    -0.002 C 
ATOM     32  C   UNL     1      -9.112  -0.731  10.668  0.00  0.00    +0.004 C 
ENDBRANCH  30  31
ENDBRANCH  29  30
ENDBRANCH  23  29
TORSDOF 6
