REMARK  Name = ZINC09263208
REMARK  7 active torsions:
REMARK  status: ('A' for Active; 'I' for Inactive)
REMARK    1  A    between atoms: C_1  and  C_2
REMARK    2  A    between atoms: C_4  and  C_15
REMARK    3  A    between atoms: C_5  and  C_14
REMARK    4  A    between atoms: N_6  and  C_7
REMARK    5  A    between atoms: C_10  and  O_13
REMARK    6  A    between atoms: N_22  and  C_25
REMARK    7  A    between atoms: C_30  and  C_31
REMARK                            x       y       z     vdW  Elec       q    Type
REMARK                         _______ _______ _______ _____ _____    ______ ____
ROOT
ATOM      1  C   UNL     1       2.476   1.361  -0.015  0.00  0.00    +0.028 C 
ATOM      2  C   UNL     1       1.647   1.984  -0.934  0.00  0.00    +0.100 C 
ATOM      3  C   UNL     1       1.446   3.445  -0.923  0.00  0.00    +0.255 C 
ATOM      4  O   UNL     1       2.006   4.147  -0.102  0.00  0.00    -0.270 OA
ATOM      5  N   UNL     1       0.625   3.982  -1.849  0.00  0.00    -0.263 N 
ATOM      6  C   UNL     1       0.002   3.221  -2.759  0.00  0.00    +0.150 C 
ATOM      7  S   UNL     1      -1.021   3.990  -3.895  0.00  0.00    -0.018 S 
ATOM      8  N   UNL     1       0.142   1.889  -2.831  0.00  0.00    -0.217 N 
ATOM      9  C   UNL     1       0.927   1.215  -1.966  0.00  0.00    +0.262 C 
ATOM     10  O   UNL     1       1.042   0.006  -2.038  0.00  0.00    -0.269 OA
ATOM     11  H   UNL     1       0.482   4.941  -1.855  0.00  0.00    +0.157 HD
ENDROOT
BRANCH   8  12
ATOM     12  C   UNL     1      -0.547   1.181  -3.824  0.00  0.00    +0.048 A 
ATOM     13  C   UNL     1      -1.821   0.691  -3.572  0.00  0.00    +0.024 A 
ATOM     14  C   UNL     1      -2.501  -0.001  -4.554  0.00  0.00    +0.003 A 
ATOM     15  C   UNL     1      -1.909  -0.217  -5.786  0.00  0.00    +0.020 A 
ATOM     16  C   UNL     1      -0.637   0.265  -6.039  0.00  0.00    +0.046 A 
ATOM     17  C   UNL     1       0.046   0.964  -5.061  0.00  0.00    -0.010 A 
ATOM     18  C   UNL     1       1.431   1.490  -5.337  0.00  0.00    +0.047 C 
ATOM     19 CL   UNL     1       0.102  -0.008  -7.585  0.00  0.00    -0.083 Cl
ENDBRANCH   8  12
BRANCH   1  23
ATOM     20  C   UNL     1       1.028  -3.470   0.220  0.00  0.00    +0.064 C 
ATOM     21  C   UNL     1       1.845  -2.205   0.175  0.00  0.00    +0.022 A 
ATOM     22  C   UNL     1       1.348  -0.961   0.082  0.00  0.00    +0.031 A 
ATOM     23  C   UNL     1       2.503  -0.051   0.070  0.00  0.00    -0.003 A 
ATOM     24  C   UNL     1       3.625  -0.863   0.154  0.00  0.00    +0.028 A 
ATOM     25  N   UNL     1       3.211  -2.142   0.221  0.00  0.00    -0.317 N 
ATOM     26  C   UNL     1       5.057  -0.394   0.171  0.00  0.00    +0.064 C 
BRANCH  25  27
ATOM     27  C   UNL     1       4.060  -3.254   0.320  0.00  0.00    +0.047 A 
ATOM     28  C   UNL     1       4.848  -3.428   1.450  0.00  0.00    +0.030 A 
ATOM     29  C   UNL     1       5.681  -4.525   1.548  0.00  0.00    +0.047 A 
ATOM     30  C   UNL     1       5.737  -5.448   0.514  0.00  0.00    +0.117 A 
ATOM     31  C   UNL     1       4.953  -5.272  -0.618  0.00  0.00    +0.047 A 
ATOM     32  C   UNL     1       4.117  -4.178  -0.715  0.00  0.00    +0.030 A 
BRANCH  30  33
ATOM     33  O   UNL     1       6.560  -6.526   0.609  0.00  0.00    -0.507 OA
ATOM     34  H   UNL     1       7.449  -6.374   0.259  0.00  0.00    +0.292 HD
ENDBRANCH  30  33
ENDBRANCH  25  27
ENDBRANCH   1  23
TORSDOF 4
