REMARK  Name = ZINC54689787
REMARK  6 active torsions:
REMARK  status: ('A' for Active; 'I' for Inactive)
REMARK    1  A    between atoms: C_1  and  C_2
REMARK    2  A    between atoms: C_7  and  S_10
REMARK    3  A    between atoms: S_10  and  C_11
REMARK    4  A    between atoms: C_11  and  C_12
REMARK    5  A    between atoms: N_14  and  C_15
REMARK    6  A    between atoms: C_19  and  N_21
REMARK                            x       y       z     vdW  Elec       q    Type
REMARK                         _______ _______ _______ _____ _____    ______ ____
ROOT
ATOM      1  C   UNL     1       5.506  -0.170   3.799  0.00  0.00    +0.227 C 
ATOM      2  O   UNL     1       5.057  -0.943   4.619  0.00  0.00    -0.275 OA
ATOM      3  N   UNL     1       6.752   0.321   3.946  0.00  0.00    -0.285 N 
ATOM      4  H   UNL     1       7.136   0.885   3.257  0.00  0.00    +0.155 HD
ENDROOT
BRANCH   3   5
ATOM      5  C   UNL     1       7.493   0.016   5.094  0.00  0.00    +0.035 A 
ATOM      6  C   UNL     1       8.349   0.964   5.641  0.00  0.00    +0.025 A 
ATOM      7  C   UNL     1       9.081   0.665   6.774  0.00  0.00    +0.023 A 
ATOM      8  C   UNL     1       8.964  -0.578   7.367  0.00  0.00    +0.062 A 
ATOM      9  C   UNL     1       8.109  -1.531   6.825  0.00  0.00    +0.045 A 
ATOM     10  C   UNL     1       7.369  -1.230   5.690  0.00  0.00    +0.047 A 
ATOM     11 CL   UNL     1       9.886  -0.950   8.790  0.00  0.00    -0.082 Cl
BRANCH   9  12
ATOM     12  N   UNL     1       7.991  -2.787   7.425  0.00  0.00    -0.357 N 
ATOM     13  H   UNL     1       8.506  -2.996   8.220  0.00  0.00    +0.142 HD
ATOM     14  H   UNL     1       7.394  -3.452   7.046  0.00  0.00    +0.142 HD
ENDBRANCH   9  12
ENDBRANCH   3   5
BRANCH   1  15
ATOM     15  C   UNL     1       4.669   0.241   2.614  0.00  0.00    +0.165 C 
BRANCH  15  16
ATOM     16  S   UNL     1       3.055  -0.583   2.699  0.00  0.00    -0.148 S 
BRANCH  16  22
ATOM     17  C   UNL     1      -0.008   1.512  -0.012  0.00  0.00    +0.007 C 
ATOM     18  C   UNL     1       0.010  -0.018  -0.010  0.00  0.00    -0.013 C 
ATOM     19  C   UNL     1       0.727  -0.521  -1.263  0.00  0.00    +0.003 C 
ATOM     20  C   UNL     1       2.164   0.005  -1.275  0.00  0.00    +0.001 C 
ATOM     21  C   UNL     1       2.900  -0.495  -0.030  0.00  0.00    +0.014 C 
ATOM     22  C   UNL     1       2.182   0.009   1.223  0.00  0.00    +0.047 C 
ATOM     23  C   UNL     1       0.746  -0.517   1.235  0.00  0.00    +0.017 C 
ENDBRANCH  16  22
ENDBRANCH  15  16
ENDBRANCH   1  15
TORSDOF 5
