REMARK  Name = ZINC06217206
REMARK  7 active torsions:
REMARK  status: ('A' for Active; 'I' for Inactive)
REMARK    1  A    between atoms: C_1  and  C_2
REMARK    2  A    between atoms: C_2  and  C_4
REMARK    3  A    between atoms: C_9  and  N_10
REMARK    4  A    between atoms: C_11  and  C_13
REMARK    5  A    between atoms: C_13  and  S_14
REMARK    6  A    between atoms: S_14  and  C_15
REMARK    7  A    between atoms: C_15  and  N_17
REMARK                            x       y       z     vdW  Elec       q    Type
REMARK                         _______ _______ _______ _____ _____    ______ ____
ROOT
ATOM      1  N   UNL     1      -1.198   1.876   0.036  0.00  0.00    -0.284 N 
ATOM      2  C   UNL     1      -0.019   1.223   0.031  0.00  0.00    +0.227 C 
ATOM      3  O   UNL     1       0.003   0.010   0.009  0.00  0.00    -0.275 OA
ATOM      4  H   UNL     1      -1.216   2.842   0.118  0.00  0.00    +0.155 HD
ENDROOT
BRANCH   1  10
ATOM      5  C   UNL     1      -3.478   1.714  -0.777  0.00  0.00    +0.042 A 
ATOM      6  C   UNL     1      -4.671   0.986  -0.889  0.00  0.00    +0.062 A 
ATOM      7  C   UNL     1      -4.777  -0.257  -0.303  0.00  0.00    +0.167 A 
ATOM      8  C   UNL     1      -3.694  -0.798   0.398  0.00  0.00    +0.168 A 
ATOM      9  C   UNL     1      -2.509  -0.088   0.508  0.00  0.00    +0.073 A 
ATOM     10  C   UNL     1      -2.389   1.163  -0.076  0.00  0.00    +0.048 A 
ATOM     11  O   UNL     1      -4.055  -2.023   0.875  0.00  0.00    -0.453 OA
ATOM     12  C   UNL     1      -5.217  -2.406   0.117  0.00  0.00    +0.466 C 
ATOM     13  O   UNL     1      -5.810  -1.149  -0.261  0.00  0.00    -0.453 OA
BRANCH   5  15
ATOM     14  C   UNL     1      -4.565   3.674  -2.041  0.00  0.00    +0.091 C 
ATOM     15  C   UNL     1      -3.363   3.038  -1.393  0.00  0.00    +0.162 C 
ATOM     16  O   UNL     1      -2.299   3.622  -1.381  0.00  0.00    -0.292 OA
ENDBRANCH   5  15
ENDBRANCH   1  10
BRANCH   2  17
ATOM     17  C   UNL     1       1.273   1.999   0.046  0.00  0.00    +0.172 C 
BRANCH  17  18
ATOM     18  S   UNL     1       2.669   0.848   0.026  0.00  0.00    -0.093 S 
BRANCH  18  19
ATOM     19  C   UNL     1       4.009   1.991   0.048  0.00  0.00    +0.110 C 
ATOM     20  S   UNL     1       3.698   3.675   0.078  0.00  0.00    -0.028 S 
BRANCH  19  21
ATOM     21  N   UNL     1       5.279   1.541   0.040  0.00  0.00    -0.319 N 
ATOM     22  C   UNL     1       5.688   0.129   0.021  0.00  0.00    +0.106 C 
ATOM     23  C   UNL     1       7.231   0.098   0.044  0.00  0.00    +0.020 C 
ATOM     24  C   UNL     1       7.595   1.478   0.654  0.00  0.00    +0.020 C 
ATOM     25  C   UNL     1       6.490   2.383   0.056  0.00  0.00    +0.106 C 
ENDBRANCH  19  21
ENDBRANCH  18  19
ENDBRANCH  17  18
ENDBRANCH   2  17
TORSDOF 6
