REMARK  Name = ZINC09970378
REMARK  12 active torsions:
REMARK  status: ('A' for Active; 'I' for Inactive)
REMARK    1  A    between atoms: C_1  and  C_2
REMARK    2  A    between atoms: C_2  and  C_21
REMARK    3  A    between atoms: C_4  and  C_20
REMARK    4  A    between atoms: C_5  and  C_18
REMARK    5  A    between atoms: C_5  and  O_19
REMARK    6  A    between atoms: C_6  and  C_16
REMARK    7  A    between atoms: C_6  and  O_17
REMARK    8  A    between atoms: C_7  and  C_14
REMARK    9  A    between atoms: C_7  and  O_15
REMARK   10  A    between atoms: C_8  and  C_12
REMARK   11  A    between atoms: C_8  and  O_13
REMARK   12  A    between atoms: C_9  and  C_11
REMARK                            x       y       z     vdW  Elec       q    Type
REMARK                         _______ _______ _______ _____ _____    ______ ____
ROOT
ATOM      1  C   UNL     1      -0.059   0.796  -0.205  0.00  0.00    +0.074 C 
ATOM      2  C   UNL     1      -0.719   1.278   1.088  0.00  0.00    +0.166 C 
ATOM      3  O   UNL     1      -0.727   2.720   1.141  0.00  0.00    -0.337 OA
ATOM      4  C   UNL     1      -1.851   3.070   1.996  0.00  0.00    +0.132 C 
ATOM      5  C   UNL     1      -2.537   4.265   1.378  0.00  0.00    +0.126 C 
ATOM      6  C   UNL     1      -4.014   4.357   1.608  0.00  0.00    +0.125 C 
ATOM      7  C   UNL     1      -4.732   3.066   1.274  0.00  0.00    +0.125 C 
ATOM      8  C   UNL     1      -4.162   1.893   2.035  0.00  0.00    +0.126 C 
ATOM      9  C   UNL     1      -2.678   1.806   2.070  0.00  0.00    +0.132 C 
ATOM     10  O   UNL     1      -2.117   0.895   1.113  0.00  0.00    -0.337 OA
ATOM     11  C   UNL     1      -2.339   1.191   3.429  0.00  0.00    +0.048 C 
ATOM     12  C   UNL     1      -4.701   0.606   1.407  0.00  0.00    +0.047 C 
ATOM     13  C   UNL     1      -6.214   3.215   1.626  0.00  0.00    +0.047 C 
ATOM     14  C   UNL     1      -4.259   4.695   3.080  0.00  0.00    +0.047 C 
ATOM     15  C   UNL     1      -1.881   5.534   1.926  0.00  0.00    +0.047 C 
ATOM     16  C   UNL     1      -1.341   3.433   3.392  0.00  0.00    +0.048 C 
ATOM     17  C   UNL     1       0.012   0.705   2.303  0.00  0.00    +0.074 C 
ENDROOT
BRANCH   8  18
ATOM     18  O   UNL     1      -4.637   1.958   3.381  0.00  0.00    -0.383 OA
ATOM     19  H   UNL     1      -5.599   2.017   3.456  0.00  0.00    +0.210 HD
ENDBRANCH   8  18
BRANCH   7  20
ATOM     20  O   UNL     1      -4.610   2.816  -0.128  0.00  0.00    -0.383 OA
ATOM     21  H   UNL     1      -4.955   3.526  -0.686  0.00  0.00    +0.210 HD
ENDBRANCH   7  20
BRANCH   6  22
ATOM     22  O   UNL     1      -4.548   5.407   0.798  0.00  0.00    -0.383 OA
ATOM     23  H   UNL     1      -5.495   5.559   0.925  0.00  0.00    +0.210 HD
ENDBRANCH   6  22
BRANCH   5  24
ATOM     24  O   UNL     1      -2.321   4.227  -0.034  0.00  0.00    -0.383 OA
ATOM     25  H   UNL     1      -2.729   4.961  -0.514  0.00  0.00    +0.210 HD
ENDBRANCH   5  24
TORSDOF 4
