REMARK  Name = ZINC33291983
REMARK  8 active torsions:
REMARK  status: ('A' for Active; 'I' for Inactive)
REMARK    1  A    between atoms: N_9  and  C_25
REMARK    2  A    between atoms: C_12  and  S_15
REMARK    3  A    between atoms: S_15  and  C_16
REMARK    4  A    between atoms: C_16  and  C_17
REMARK    5  A    between atoms: N_19  and  C_20
REMARK    6  A    between atoms: C_25  and  C_26
REMARK    7  A    between atoms: C_26  and  C_27
REMARK    8  A    between atoms: N_29  and  C_30
REMARK                            x       y       z     vdW  Elec       q    Type
REMARK                         _______ _______ _______ _____ _____    ______ ____
ROOT
ATOM      1  C   UNL     1      -8.580  -1.085  -2.248  0.00  0.00    +0.001 A 
ATOM      2  C   UNL     1      -9.135  -1.424  -1.024  0.00  0.00    +0.002 A 
ATOM      3  C   UNL     1      -8.512  -1.062   0.154  0.00  0.00    +0.027 A 
ATOM      4  C   UNL     1      -7.321  -0.352   0.115  0.00  0.00    +0.064 A 
ATOM      5  C   UNL     1      -6.759  -0.007  -1.124  0.00  0.00    +0.064 A 
ATOM      6  C   UNL     1      -7.397  -0.379  -2.306  0.00  0.00    +0.015 A 
ATOM      7  C   UNL     1      -5.496   0.753  -1.142  0.00  0.00    +0.263 A 
ATOM      8  O   UNL     1      -4.981   1.073  -2.197  0.00  0.00    -0.267 OA
ATOM      9  N   UNL     1      -4.917   1.081   0.031  0.00  0.00    -0.276 N 
ATOM     10  C   UNL     1      -5.497   0.726   1.239  0.00  0.00    +0.240 A 
ATOM     11  N   UNL     1      -6.672   0.026   1.288  0.00  0.00    -0.256 N 
ATOM     12  C   UNL     1      -6.991  -0.175   2.604  0.00  0.00    +0.198 A 
ATOM     13  N   UNL     1      -6.055   0.376   3.337  0.00  0.00    -0.120 NA
ATOM     14  N   UNL     1      -5.110   0.946   2.475  0.00  0.00    -0.109 NA
ENDROOT
BRANCH  12  15
ATOM     15  S   UNL     1      -8.412  -1.026   3.207  0.00  0.00    -0.076 S 
BRANCH  15  16
ATOM     16  C   UNL     1      -8.242  -0.940   5.011  0.00  0.00    +0.173 C 
BRANCH  16  17
ATOM     17  C   UNL     1      -9.409  -1.639   5.659  0.00  0.00    +0.224 C 
ATOM     18  O   UNL     1     -10.270  -2.146   4.972  0.00  0.00    -0.275 OA
ATOM     19  N   UNL     1      -9.495  -1.702   7.003  0.00  0.00    -0.312 N 
ATOM     20  H   UNL     1      -8.714  -1.242   7.626  0.00  0.00    +0.149 HD
BRANCH  19  21
ATOM     21  C   UNL     1     -10.629  -2.382   7.633  0.00  0.00    +0.073 C 
ATOM     22  C   UNL     1     -11.800  -1.395   7.821  0.00  0.00    +0.022 C 
ATOM     23  C   UNL     1     -12.423  -1.799   9.180  0.00  0.00    +0.002 C 
ATOM     24  C   UNL     1     -11.181  -2.163  10.031  0.00  0.00    +0.002 C 
ATOM     25  C   UNL     1     -10.236  -2.871   9.038  0.00  0.00    +0.022 C 
ENDBRANCH  19  21
ENDBRANCH  16  17
ENDBRANCH  15  16
ENDBRANCH  12  15
BRANCH   9  26
ATOM     26  C   UNL     1      -3.658   1.831   0.029  0.00  0.00    +0.137 C 
BRANCH  26  27
ATOM     27  C   UNL     1      -2.482   0.853   0.018  0.00  0.00    +0.117 C 
BRANCH  27  28
ATOM     28  C   UNL     1      -1.187   1.624   0.017  0.00  0.00    +0.215 C 
ATOM     29  O   UNL     1      -1.204   2.837   0.023  0.00  0.00    -0.276 OA
ATOM     30  N   UNL     1      -0.011   0.966   0.007  0.00  0.00    -0.312 N 
ATOM     31  H   UNL     1       0.004  -0.134   0.006  0.00  0.00    +0.149 HD
BRANCH  30  32
ATOM     32  C   UNL     1       1.248   1.716  -0.001  0.00  0.00    +0.073 C 
ATOM     33  C   UNL     1       1.608   2.092  -1.439  0.00  0.00    +0.022 C 
ATOM     34  C   UNL     1       2.922   2.875  -1.448  0.00  0.00    +0.002 C 
ATOM     35  C   UNL     1       4.035   2.010  -0.853  0.00  0.00    +0.000 C 
ATOM     36  C   UNL     1       3.675   1.633   0.585  0.00  0.00    +0.002 C 
ATOM     37  C   UNL     1       2.361   0.850   0.594  0.00  0.00    +0.022 C 
ENDBRANCH  30  32
ENDBRANCH  27  28
ENDBRANCH  26  27
ENDBRANCH   9  26
TORSDOF 8
