REMARK  Name = ZINC25219968
REMARK  13 active torsions:
REMARK  status: ('A' for Active; 'I' for Inactive)
REMARK    1  A    between atoms: C_1  and  C_2
REMARK    2  A    between atoms: C_2  and  C_3
REMARK    3  A    between atoms: C_3  and  C_4
REMARK    4  A    between atoms: C_4  and  N_5
REMARK    5  A    between atoms: C_6  and  N_36
REMARK    6  A    between atoms: C_7  and  N_14
REMARK    7  A    between atoms: N_14  and  C_15
REMARK    8  A    between atoms: C_15  and  C_16
REMARK    9  A    between atoms: C_22  and  C_24
REMARK   10  A    between atoms: C_24  and  N_25
REMARK   11  A    between atoms: N_25  and  C_26
REMARK   12  A    between atoms: N_25  and  C_33
REMARK   13  A    between atoms: C_26  and  C_27
REMARK                            x       y       z     vdW  Elec       q    Type
REMARK                         _______ _______ _______ _____ _____    ______ ____
ROOT
ATOM      1  N   UNL     1      -1.785  -4.059   0.737  0.00  0.00    -0.261 N 
ATOM      2  C   UNL     1      -1.123  -2.908   0.981  0.00  0.00    +0.204 C 
ATOM      3  O   UNL     1      -1.622  -1.845   0.676  0.00  0.00    -0.277 OA
ENDROOT
BRANCH   1   6
ATOM      4  N   UNL     1      -0.795  -7.150   2.459  0.00  0.00    -0.280 N 
ATOM      5  C   UNL     1      -1.403  -5.940   2.217  0.00  0.00    +0.127 A 
ATOM      6  C   UNL     1      -1.171  -5.298   1.018  0.00  0.00    +0.140 A 
ATOM      7  C   UNL     1      -0.309  -5.898   0.081  0.00  0.00    +0.277 A 
ATOM      8  O   UNL     1      -0.083  -5.350  -0.985  0.00  0.00    -0.266 OA
ATOM      9  N   UNL     1       0.266  -7.082   0.370  0.00  0.00    -0.273 N 
ATOM     10  H   UNL     1       0.942  -7.557  -0.356  0.00  0.00    +0.173 HD
ATOM     11  C   UNL     1       0.024  -7.696   1.542  0.00  0.00    +0.331 A 
ATOM     12  O   UNL     1       0.556  -8.764   1.777  0.00  0.00    -0.246 OA
BRANCH   5  13
ATOM     13  N   UNL     1      -2.235  -5.380   3.156  0.00  0.00    -0.343 N 
ATOM     14  H   UNL     1      -2.718  -4.412   2.956  0.00  0.00    +0.144 HD
ATOM     15  H   UNL     1      -2.418  -5.899   4.108  0.00  0.00    +0.144 HD
ENDBRANCH   5  13
BRANCH   4  16
ATOM     16  C   UNL     1      -1.036  -7.846   3.725  0.00  0.00    +0.128 C 
BRANCH  16  17
ATOM     17  C   UNL     1       0.001  -7.399   4.758  0.00  0.00    +0.021 C 
BRANCH  17  19
ATOM     18  C   UNL     1       0.786  -7.678   7.113  0.00  0.00    +0.004 C 
ATOM     19  C   UNL     1      -0.251  -8.125   6.081  0.00  0.00    -0.002 C 
ENDBRANCH  17  19
ENDBRANCH  16  17
ENDBRANCH   4  16
ENDBRANCH   1   6
BRANCH   1  20
ATOM     20  C   UNL     1      -3.140  -4.021   0.182  0.00  0.00    +0.149 C 
BRANCH  20  21
ATOM     21  C   UNL     1      -3.069  -4.108  -1.321  0.00  0.00    -0.030 A 
ATOM     22  C   UNL     1      -2.945  -2.956  -2.075  0.00  0.00    +0.005 A 
ATOM     23  C   UNL     1      -2.876  -3.036  -3.454  0.00  0.00    +0.000 A 
ATOM     24  C   UNL     1      -2.940  -4.268  -4.078  0.00  0.00    +0.000 A 
ATOM     25  C   UNL     1      -3.070  -5.419  -3.324  0.00  0.00    +0.000 A 
ATOM     26  C   UNL     1      -3.134  -5.339  -1.946  0.00  0.00    +0.005 A 
ENDBRANCH  20  21
ENDBRANCH   1  20
BRANCH   2  27
ATOM     27  C   UNL     1       0.236  -2.944   1.631  0.00  0.00    +0.020 C 
BRANCH  27  28
ATOM     28  N   UNL     1       0.665  -1.574   1.945  0.00  0.00    +0.390 N 
ATOM     29  H   UNL     1       0.308  -0.915   1.139  0.00  0.00    -0.080 HD
BRANCH  28  30
ATOM     30  C   UNL     1       0.067  -1.111   3.204  0.00  0.00    -0.068 C 
ATOM     31  C   UNL     1      -0.901  -2.057   3.917  0.00  0.00    -0.017 C 
ATOM     32  C   UNL     1      -1.433  -0.811   3.206  0.00  0.00    -0.017 C 
ENDBRANCH  28  30
BRANCH  28  33
ATOM     33  C   UNL     1       2.130  -1.478   1.991  0.00  0.00    -0.042 C 
BRANCH  33  34
ATOM     34  C   UNL     1       2.537  -0.029   2.069  0.00  0.00    -0.064 A 
ATOM     35  C   UNL     1       2.763   0.688   0.909  0.00  0.00    +0.002 A 
ATOM     36  C   UNL     1       3.131   2.019   0.981  0.00  0.00    +0.000 A 
ATOM     37  C   UNL     1       3.283   2.629   2.212  0.00  0.00    +0.000 A 
ATOM     38  C   UNL     1       3.063   1.909   3.372  0.00  0.00    +0.000 A 
ATOM     39  C   UNL     1       2.689   0.580   3.300  0.00  0.00    +0.002 A 
ENDBRANCH  33  34
ENDBRANCH  28  33
ENDBRANCH  27  28
ENDBRANCH   2  27
TORSDOF 12
