REMARK  Name = ZINC44215072
REMARK  13 active torsions:
REMARK  status: ('A' for Active; 'I' for Inactive)
REMARK    1  A    between atoms: C_1  and  C_2
REMARK    2  A    between atoms: C_2  and  C_3
REMARK    3  A    between atoms: C_2  and  C_4
REMARK    4  A    between atoms: C_2  and  C_5
REMARK    5  A    between atoms: C_7  and  C_16
REMARK    6  A    between atoms: C_9  and  C_12
REMARK    7  A    between atoms: C_10  and  O_11
REMARK    8  A    between atoms: C_12  and  C_13
REMARK    9  A    between atoms: C_12  and  C_14
REMARK   10  A    between atoms: C_12  and  C_15
REMARK   11  A    between atoms: C_16  and  C_18
REMARK   12  A    between atoms: C_16  and  N_22
REMARK   13  A    between atoms: C_18  and  C_19
REMARK                            x       y       z     vdW  Elec       q    Type
REMARK                         _______ _______ _______ _____ _____    ______ ____
ROOT
ATOM      1  C   UNL     1       0.707  -0.490  -1.238  0.00  0.00    -0.000 A 
ATOM      2  C   UNL     1       1.217   0.419  -2.145  0.00  0.00    +0.009 A 
ATOM      3  C   UNL     1       1.864  -0.026  -3.283  0.00  0.00    -0.061 A 
ATOM      4  C   UNL     1       2.003  -1.382  -3.516  0.00  0.00    +0.009 A 
ATOM      5  C   UNL     1       1.496  -2.295  -2.612  0.00  0.00    -0.000 A 
ATOM      6  C   UNL     1       0.851  -1.851  -1.467  0.00  0.00    +0.124 A 
ENDROOT
BRANCH   1   8
ATOM      7  C   UNL     1      -0.019   1.526   0.010  0.00  0.00    +0.015 C 
ATOM      8  C   UNL     1       0.002  -0.004   0.002  0.00  0.00    -0.009 C 
ATOM      9  C   UNL     1       0.742  -0.511   1.242  0.00  0.00    +0.015 C 
ATOM     10  C   UNL     1      -1.433  -0.534   0.013  0.00  0.00    +0.015 C 
ENDBRANCH   1   8
BRANCH   5  11
ATOM     11  C   UNL     1       1.648  -3.773  -2.867  0.00  0.00    -0.009 C 
ATOM     12  C   UNL     1       2.396  -3.989  -4.184  0.00  0.00    +0.015 C 
ATOM     13  C   UNL     1       2.438  -4.409  -1.722  0.00  0.00    +0.015 C 
ATOM     14  C   UNL     1       0.264  -4.420  -2.953  0.00  0.00    +0.015 C 
ENDBRANCH   5  11
BRANCH   6  15
ATOM     15  O   UNL     1       0.356  -2.747  -0.573  0.00  0.00    -0.506 OA
ATOM     16  H   UNL     1      -0.556  -3.015  -0.749  0.00  0.00    +0.292 HD
ENDBRANCH   6  15
BRANCH   3  17
ATOM     17  C   UNL     1       2.418   0.968  -4.270  0.00  0.00    -0.033 C 
BRANCH  17  18
ATOM     18  N   UNL     1       2.172   0.489  -5.637  0.00  0.00    +0.383 N 
ATOM     19  H   UNL     1       1.179   0.387  -5.784  0.00  0.00    -0.089 HD
ATOM     20  H   UNL     1       2.543   1.155  -6.299  0.00  0.00    -0.089 HD
ATOM     21  H   UNL     1       2.625  -0.403  -5.768  0.00  0.00    -0.089 HD
ENDBRANCH  17  18
BRANCH  17  22
ATOM     22  C   UNL     1       3.924   1.123  -4.048  0.00  0.00    +0.113 C 
BRANCH  22  23
ATOM     23  C   UNL     1       4.456   2.205  -4.951  0.00  0.00    +0.355 C 
ATOM     24  O   UNL     1       3.702   2.797  -5.704  0.00  0.00    -0.246 OA
ATOM     25  O   UNL     1       5.642   2.488  -4.930  0.00  0.00    -0.246 OA
ENDBRANCH  22  23
ENDBRANCH  17  22
ENDBRANCH   3  17
TORSDOF 7
