REMARK  Name = ZINC58072257
REMARK  12 active torsions:
REMARK  status: ('A' for Active; 'I' for Inactive)
REMARK    1  A    between atoms: C_1  and  C_2
REMARK    2  A    between atoms: C_6  and  N_9
REMARK    3  A    between atoms: C_7  and  C_8
REMARK    4  A    between atoms: N_9  and  C_10
REMARK    5  A    between atoms: C_10  and  N_12
REMARK    6  A    between atoms: N_12  and  N_13
REMARK    7  A    between atoms: C_14  and  C_16
REMARK    8  A    between atoms: C_16  and  C_17
REMARK    9  A    between atoms: C_16  and  N_21
REMARK   10  A    between atoms: C_17  and  C_18
REMARK   11  A    between atoms: C_18  and  C_19
REMARK   12  A    between atoms: C_18  and  C_20
REMARK                            x       y       z     vdW  Elec       q    Type
REMARK                         _______ _______ _______ _____ _____    ______ ____
ROOT
ATOM      1  N   UNL     1       2.604  -3.166   4.439  0.00  0.00    -0.234 N 
ATOM      2  C   UNL     1       3.281  -3.584   5.527  0.00  0.00    +0.249 C 
ATOM      3  O   UNL     1       3.918  -4.615   5.485  0.00  0.00    -0.272 OA
ATOM      4  H   UNL     1       2.094  -2.341   4.473  0.00  0.00    +0.173 HD
ENDROOT
BRANCH   1   5
ATOM      5  N   UNL     1       2.635  -3.922   3.260  0.00  0.00    -0.246 N 
ATOM      6  H   UNL     1       3.145  -4.747   3.227  0.00  0.00    +0.172 HD
BRANCH   5   7
ATOM      7  C   UNL     1       1.958  -3.503   2.173  0.00  0.00    +0.147 C 
ATOM      8  S   UNL     1       1.997  -4.428   0.732  0.00  0.00    -0.017 S 
BRANCH   7   9
ATOM      9  N   UNL     1       1.250  -2.357   2.219  0.00  0.00    -0.322 N 
ATOM     10  H   UNL     1       1.228  -1.834   3.036  0.00  0.00    +0.148 HD
BRANCH   9  16
ATOM     11  C   UNL     1      -0.613   1.609  -0.070  0.00  0.00    +0.008 C 
ATOM     12  C   UNL     1      -0.434   0.091  -0.134  0.00  0.00    -0.009 C 
ATOM     13  C   UNL     1      -1.806  -0.584  -0.171  0.00  0.00    +0.003 C 
ATOM     14  C   UNL     1      -1.627  -2.102  -0.234  0.00  0.00    +0.002 C 
ATOM     15  C   UNL     1      -0.859  -2.577   1.000  0.00  0.00    +0.022 C 
ATOM     16  C   UNL     1       0.514  -1.903   1.037  0.00  0.00    +0.075 C 
ATOM     17  C   UNL     1       0.335  -0.384   1.101  0.00  0.00    +0.009 C 
ATOM     18  C   UNL     1      -0.448  -0.016   2.362  0.00  0.00    +0.009 C 
ENDBRANCH   9  16
ENDBRANCH   7   9
ENDBRANCH   5   7
ENDBRANCH   1   5
BRANCH   2  19
ATOM     19  C   UNL     1       3.247  -2.770   6.795  0.00  0.00    +0.162 C 
BRANCH  19  20
ATOM     20  N   UNL     1       4.068  -3.424   7.817  0.00  0.00    -0.288 N 
ATOM     21  C   UNL     1       4.609  -2.696   8.814  0.00  0.00    +0.298 C 
ATOM     22  O   UNL     1       4.343  -1.514   8.917  0.00  0.00    -0.253 OA
ATOM     23  N   UNL     1       5.444  -3.278   9.697  0.00  0.00    -0.313 N 
ATOM     24  H   UNL     1       4.223  -4.380   7.776  0.00  0.00    +0.151 HD
ATOM     25  H   UNL     1       5.657  -4.221   9.614  0.00  0.00    +0.146 HD
ATOM     26  H   UNL     1       5.833  -2.754  10.414  0.00  0.00    +0.146 HD
ENDBRANCH  19  20
BRANCH  19  27
ATOM     27  C   UNL     1       1.804  -2.663   7.293  0.00  0.00    +0.035 C 
BRANCH  27  28
ATOM     28  C   UNL     1       1.307  -4.045   7.718  0.00  0.00    -0.015 C 
ATOM     29  C   UNL     1      -0.050  -3.908   8.413  0.00  0.00    +0.007 C 
ATOM     30  C   UNL     1       1.160  -4.937   6.484  0.00  0.00    +0.007 C 
ENDBRANCH  27  28
ENDBRANCH  19  27
ENDBRANCH   2  19
TORSDOF 8
