REMARK  Name = ZINC00966347
REMARK  8 active torsions:
REMARK  status: ('A' for Active; 'I' for Inactive)
REMARK    1  A    between atoms: C_1  and  C_2
REMARK    2  A    between atoms: C_9  and  S_11
REMARK    3  A    between atoms: S_11  and  C_12
REMARK    4  A    between atoms: C_12  and  C_13
REMARK    5  A    between atoms: C_16  and  C_18
REMARK    6  A    between atoms: N_20  and  C_21
REMARK    7  A    between atoms: C_21  and  C_23
REMARK    8  A    between atoms: C_21  and  C_24
REMARK                            x       y       z     vdW  Elec       q    Type
REMARK                         _______ _______ _______ _____ _____    ______ ____
ROOT
ATOM      1  C   UNL     1       1.063   1.893   0.002  0.00  0.00    +0.116 A 
ATOM      2  C   UNL     1      -0.013   1.076   0.008  0.00  0.00    +0.046 A 
ATOM      3  C   UNL     1      -1.153   1.894   0.017  0.00  0.00    +0.055 A 
ATOM      4  C   UNL     1      -0.709   3.186   0.026  0.00  0.00    +0.189 A 
ATOM      5  O   UNL     1       0.640   3.164   0.013  0.00  0.00    -0.454 OA
ENDROOT
BRANCH   4   6
ATOM      6  C   UNL     1      -1.552   4.386   0.040  0.00  0.00    +0.280 C 
ATOM      7  O   UNL     1      -2.764   4.279   0.052  0.00  0.00    -0.267 OA
ATOM      8  N   UNL     1      -0.983   5.608   0.041  0.00  0.00    -0.302 N 
ATOM      9  H   UNL     1      -0.017   5.694   0.032  0.00  0.00    +0.150 HD
BRANCH   8  10
ATOM     10  C   UNL     1      -1.825   6.807   0.056  0.00  0.00    +0.100 C 
ATOM     11  C   UNL     1      -2.235   7.160  -1.376  0.00  0.00    +0.033 C 
BRANCH  10  12
ATOM     12  C   UNL     1      -1.053   7.955   0.654  0.00  0.00    -0.027 A 
ATOM     13  C   UNL     1       0.286   8.119   0.353  0.00  0.00    +0.005 A 
ATOM     14  C   UNL     1       0.993   9.175   0.899  0.00  0.00    +0.000 A 
ATOM     15  C   UNL     1       0.362  10.060   1.753  0.00  0.00    +0.000 A 
ATOM     16  C   UNL     1      -0.976   9.893   2.058  0.00  0.00    +0.000 A 
ATOM     17  C   UNL     1      -1.683   8.840   1.509  0.00  0.00    +0.005 A 
ENDBRANCH  10  12
ENDBRANCH   8  10
ENDBRANCH   4   6
BRANCH   1  18
ATOM     18  C   UNL     1       2.503   1.449  -0.014  0.00  0.00    +0.153 C 
BRANCH  18  19
ATOM     19  S   UNL     1       3.064   1.279  -1.726  0.00  0.00    -0.059 S 
BRANCH  19  28
ATOM     20  C   UNL     1       8.239  -0.314  -3.814  0.00  0.00    +0.046 C 
ATOM     21  C   UNL     1       8.014  -0.248  -2.325  0.00  0.00    -0.021 A 
ATOM     22  C   UNL     1       9.036  -0.566  -1.456  0.00  0.00    +0.005 A 
ATOM     23  C   UNL     1       8.835  -0.508  -0.086  0.00  0.00    +0.004 A 
ATOM     24  C   UNL     1       7.609  -0.130   0.426  0.00  0.00    +0.048 A 
ATOM     25  C   UNL     1       6.572   0.193  -0.433  0.00  0.00    +0.156 A 
ATOM     26  C   UNL     1       6.771   0.135  -1.821  0.00  0.00    +0.113 A 
ATOM     27  N   UNL     1       5.593   0.494  -2.399  0.00  0.00    -0.203 NA
ATOM     28  C   UNL     1       4.727   0.765  -1.454  0.00  0.00    +0.258 A 
ATOM     29  O   UNL     1       5.291   0.588  -0.246  0.00  0.00    -0.431 OA
ENDBRANCH  19  28
ENDBRANCH  18  19
ENDBRANCH   1  18
TORSDOF 6
