REMARK  Name = ZINC07036288
REMARK  6 active torsions:
REMARK  status: ('A' for Active; 'I' for Inactive)
REMARK    1  A    between atoms: C_1  and  C_2
REMARK    2  A    between atoms: C_2  and  C_4
REMARK    3  A    between atoms: C_2  and  S_11
REMARK    4  A    between atoms: S_11  and  C_12
REMARK    5  A    between atoms: N_16  and  C_17
REMARK    6  A    between atoms: C_20  and  O_23
REMARK                            x       y       z     vdW  Elec       q    Type
REMARK                         _______ _______ _______ _____ _____    ______ ____
ROOT
ATOM      1  C   UNL     1       2.039   0.790   0.138  0.00  0.00    +0.215 A 
ATOM      2  N   UNL     1       1.173   1.775   0.025  0.00  0.00    -0.101 NA
ATOM      3  N   UNL     1      -0.028   1.322   0.049  0.00  0.00    -0.022 NA
ATOM      4  N   UNL     1      -0.023   0.040   0.177  0.00  0.00    -0.038 NA
ATOM      5  N   UNL     1       1.324  -0.358   0.240  0.00  0.00    -0.187 N 
ENDROOT
BRANCH   5   6
ATOM      6  C   UNL     1       1.822  -1.663   0.378  0.00  0.00    +0.070 A 
ATOM      7  C   UNL     1       2.998  -2.029  -0.263  0.00  0.00    +0.031 A 
ATOM      8  C   UNL     1       3.491  -3.311  -0.122  0.00  0.00    +0.047 A 
ATOM      9  C   UNL     1       2.805  -4.237   0.651  0.00  0.00    +0.117 A 
ATOM     10  C   UNL     1       1.627  -3.873   1.287  0.00  0.00    +0.047 A 
ATOM     11  C   UNL     1       1.137  -2.590   1.151  0.00  0.00    +0.031 A 
BRANCH   9  12
ATOM     12  O   UNL     1       3.288  -5.500   0.785  0.00  0.00    -0.507 OA
ATOM     13  H   UNL     1       2.966  -6.117   0.113  0.00  0.00    +0.292 HD
ENDBRANCH   9  12
ENDBRANCH   5   6
BRANCH   1  14
ATOM     14  S   UNL     1       3.795   0.937   0.154  0.00  0.00    -0.076 S 
BRANCH  14  16
ATOM     15  C   UNL     1       3.426   3.161  -1.387  0.00  0.00    +0.024 C 
ATOM     16  C   UNL     1       3.963   2.730  -0.021  0.00  0.00    +0.083 C 
BRANCH  16  17
ATOM     17  C   UNL     1       5.416   3.112   0.091  0.00  0.00    -0.016 A 
ATOM     18  C   UNL     1       6.399   2.198  -0.242  0.00  0.00    +0.006 A 
ATOM     19  C   UNL     1       7.732   2.548  -0.139  0.00  0.00    +0.000 A 
ATOM     20  C   UNL     1       8.084   3.813   0.296  0.00  0.00    +0.001 A 
ATOM     21  C   UNL     1       7.102   4.727   0.629  0.00  0.00    +0.020 A 
ATOM     22  C   UNL     1       5.767   4.379   0.521  0.00  0.00    +0.045 A 
ATOM     23 CL   UNL     1       4.534   5.530   0.932  0.00  0.00    -0.083 Cl
ENDBRANCH  16  17
ENDBRANCH  14  16
ENDBRANCH   1  14
TORSDOF 5
