REMARK  Name = ZINC67262464
REMARK  4 active torsions:
REMARK  status: ('A' for Active; 'I' for Inactive)
REMARK    1  A    between atoms: C_3  and  N_12
REMARK    2  A    between atoms: C_6  and  C_7
REMARK    3  A    between atoms: C_7  and  N_8
REMARK    4  A    between atoms: C_13  and  C_15
REMARK                            x       y       z     vdW  Elec       q    Type
REMARK                         _______ _______ _______ _____ _____    ______ ____
ROOT
ATOM      1  C   UNL     1       1.083  -0.460   0.750  0.00  0.00    +0.007 A 
ATOM      2  C   UNL     1       2.272   0.243   0.739  0.00  0.00    +0.023 A 
ATOM      3  C   UNL     1       2.381   1.409  -0.007  0.00  0.00    +0.034 A 
ATOM      4  C   UNL     1       1.292   1.866  -0.739  0.00  0.00    +0.023 A 
ATOM      5  C   UNL     1       0.106   1.159  -0.723  0.00  0.00    +0.007 A 
ATOM      6  C   UNL     1       0.001  -0.002   0.021  0.00  0.00    -0.030 A 
ENDROOT
BRANCH   3   7
ATOM      7  N   UNL     1       3.583   2.123  -0.021  0.00  0.00    -0.281 N 
ATOM      8  C   UNL     1       4.757   1.467   0.066  0.00  0.00    +0.255 C 
ATOM      9  O   UNL     1       4.776   0.250   0.060  0.00  0.00    -0.269 OA
ATOM     10  H   UNL     1       3.572   3.090  -0.093  0.00  0.00    +0.155 HD
BRANCH   8  11
ATOM     11  C   UNL     1       6.011   2.219   0.168  0.00  0.00    +0.075 A 
ATOM     12  C   UNL     1       7.307   1.745   0.260  0.00  0.00    +0.024 A 
ATOM     13  C   UNL     1       8.316   2.693   0.346  0.00  0.00    -0.036 A 
ATOM     14  C   UNL     1       7.929   4.001   0.332  0.00  0.00    -0.006 A 
ATOM     15  S   UNL     1       6.265   3.983   0.198  0.00  0.00    -0.088 S 
ATOM     16  C   UNL     1       8.825   5.202   0.413  0.00  0.00    +0.043 C 
ATOM     17  C   UNL     1      10.209   4.745   0.894  0.00  0.00    +0.005 C 
ATOM     18  C   UNL     1      10.639   3.529   0.069  0.00  0.00    +0.005 C 
ATOM     19  C   UNL     1       9.791   2.315   0.451  0.00  0.00    +0.036 C 
ENDBRANCH   8  11
ENDBRANCH   3   7
BRANCH   6  20
ATOM     20  C   UNL     1      -1.295  -0.771   0.036  0.00  0.00    +0.141 C 
BRANCH  20  21
ATOM     21  N   UNL     1      -2.138  -0.285   1.131  0.00  0.00    -0.295 N 
ATOM     22  C   UNL     1      -3.353  -0.830   1.338  0.00  0.00    +0.297 C 
ATOM     23  O   UNL     1      -3.749  -1.726   0.617  0.00  0.00    -0.253 OA
ATOM     24  N   UNL     1      -4.130  -0.383   2.345  0.00  0.00    -0.313 N 
ATOM     25  H   UNL     1      -1.823   0.429   1.706  0.00  0.00    +0.151 HD
ATOM     26  H   UNL     1      -3.814   0.331   2.920  0.00  0.00    +0.146 HD
ATOM     27  H   UNL     1      -5.004  -0.775   2.494  0.00  0.00    +0.146 HD
ENDBRANCH  20  21
ENDBRANCH   6  20
TORSDOF 4
