REMARK  Name = ZINC09240524
REMARK  8 active torsions:
REMARK  status: ('A' for Active; 'I' for Inactive)
REMARK    1  A    between atoms: C_1  and  C_2
REMARK    2  A    between atoms: C_5  and  N_9
REMARK    3  A    between atoms: C_6  and  C_8
REMARK    4  A    between atoms: C_10  and  C_12
REMARK    5  A    between atoms: C_12  and  S_13
REMARK    6  A    between atoms: S_13  and  C_14
REMARK    7  A    between atoms: C_20  and  C_23
REMARK    8  A    between atoms: C_26  and  C_29
REMARK                            x       y       z     vdW  Elec       q    Type
REMARK                         _______ _______ _______ _____ _____    ______ ____
ROOT
ATOM      1  C   UNL     1      -6.504   1.947  -0.417  0.00  0.00    +0.213 A 
ATOM      2  N   UNL     1      -6.535   3.263  -0.412  0.00  0.00    -0.120 NA
ATOM      3  N   UNL     1      -7.749   3.681  -0.510  0.00  0.00    -0.127 NA
ATOM      4  C   UNL     1      -8.568   2.648  -0.584  0.00  0.00    +0.179 A 
ATOM      5  N   UNL     1      -7.787   1.511  -0.531  0.00  0.00    -0.187 N 
ATOM      6  N   UNL     1      -8.382   0.250  -0.595  0.00  0.00    -0.163 NA
ATOM      7  C   UNL     1      -9.686   0.133  -0.708  0.00  0.00    +0.092 A 
ATOM      8  C   UNL     1     -10.513   1.278  -0.767  0.00  0.00    +0.034 A 
ATOM      9  C   UNL     1      -9.966   2.519  -0.701  0.00  0.00    +0.052 A 
ENDROOT
BRANCH   7  10
ATOM     10  C   UNL     1     -10.297  -1.216  -0.773  0.00  0.00    +0.002 A 
ATOM     11  C   UNL     1     -11.681  -1.350  -0.887  0.00  0.00    +0.010 A 
ATOM     12  C   UNL     1     -12.248  -2.603  -0.954  0.00  0.00    +0.009 A 
ATOM     13  C   UNL     1     -11.440  -3.739  -0.895  0.00  0.00    -0.018 A 
ATOM     14  C   UNL     1     -10.057  -3.605  -0.775  0.00  0.00    +0.009 A 
ATOM     15  C   UNL     1      -9.489  -2.351  -0.714  0.00  0.00    +0.010 A 
BRANCH  13  16
ATOM     16  C   UNL     1     -12.051  -5.088  -0.960  0.00  0.00    -0.018 A 
ATOM     17  C   UNL     1     -11.245  -6.224  -0.908  0.00  0.00    +0.008 A 
ATOM     18  C   UNL     1     -11.820  -7.478  -0.964  0.00  0.00    +0.001 A 
ATOM     19  C   UNL     1     -13.192  -7.608  -1.083  0.00  0.00    +0.000 A 
ATOM     20  C   UNL     1     -13.996  -6.484  -1.141  0.00  0.00    +0.001 A 
ATOM     21  C   UNL     1     -13.433  -5.225  -1.080  0.00  0.00    +0.008 A 
ENDBRANCH  13  16
ENDBRANCH   7  10
BRANCH   1  22
ATOM     22  S   UNL     1      -5.065   0.937  -0.304  0.00  0.00    -0.075 S 
BRANCH  22  23
ATOM     23  C   UNL     1      -3.702   2.128  -0.184  0.00  0.00    +0.173 C 
BRANCH  23  25
ATOM     24  N   UNL     1      -1.237   2.069   0.019  0.00  0.00    -0.285 N 
ATOM     25  C   UNL     1      -2.394   1.385  -0.081  0.00  0.00    +0.227 C 
ATOM     26  O   UNL     1      -2.383   0.173  -0.088  0.00  0.00    -0.275 OA
ATOM     27  H   UNL     1      -1.250   3.037   0.090  0.00  0.00    +0.155 HD
BRANCH  24  32
ATOM     28  C   UNL     1       3.704  -0.717   0.009  0.00  0.00    +0.044 C 
ATOM     29  C   UNL     1       2.392   0.024   0.013  0.00  0.00    -0.050 A 
ATOM     30  C   UNL     1       1.282  -0.542   0.613  0.00  0.00    +0.005 A 
ATOM     31  C   UNL     1       0.078   0.134   0.619  0.00  0.00    +0.024 A 
ATOM     32  C   UNL     1      -0.017   1.384   0.021  0.00  0.00    +0.036 A 
ATOM     33  C   UNL     1       1.099   1.949  -0.581  0.00  0.00    -0.029 A 
ATOM     34  C   UNL     1       2.300   1.267  -0.584  0.00  0.00    +0.008 A 
ATOM     35  C   UNL     1       1.000   3.305  -1.231  0.00  0.00    +0.045 C 
ENDBRANCH  24  32
ENDBRANCH  23  25
ENDBRANCH  22  23
ENDBRANCH   1  22
TORSDOF 6
