REMARK  Name = ZINC39693541
REMARK  10 active torsions:
REMARK  status: ('A' for Active; 'I' for Inactive)
REMARK    1  A    between atoms: C_1  and  C_2
REMARK    2  A    between atoms: C_2  and  C_3
REMARK    3  A    between atoms: C_2  and  C_4
REMARK    4  A    between atoms: C_2  and  O_5
REMARK    5  A    between atoms: O_5  and  C_6
REMARK    6  A    between atoms: N_8  and  C_9
REMARK    7  A    between atoms: C_9  and  C_10
REMARK    8  A    between atoms: C_10  and  N_11
REMARK    9  A    between atoms: C_12  and  C_14
REMARK   10  A    between atoms: C_25  and  C_27
REMARK                            x       y       z     vdW  Elec       q    Type
REMARK                         _______ _______ _______ _____ _____    ______ ____
ROOT
ATOM      1  C   UNL     1       7.306  -0.770  -5.237  0.00  0.00    +0.100 C 
ATOM      2  C   UNL     1       8.505  -0.890  -4.270  0.00  0.00    +0.121 C 
ATOM      3  N   UNL     1       9.171  -2.156  -4.656  0.00  0.00    -0.300 N 
ATOM      4  C   UNL     1       9.098  -2.175  -6.136  0.00  0.00    +0.115 C 
ATOM      5  C   UNL     1       7.700  -1.611  -6.462  0.00  0.00    -0.004 C 
ATOM      6  C   UNL     1       7.762  -0.733  -7.708  0.00  0.00    -0.010 C 
ATOM      7  C   UNL     1       8.099  -1.602  -8.923  0.00  0.00    -0.082 C 
ATOM      8  N   UNL     1       7.075  -2.641  -9.083  0.00  0.00    +0.379 N 
ATOM      9  C   UNL     1       7.086  -3.538  -7.921  0.00  0.00    -0.082 C 
ATOM     10  C   UNL     1       6.706  -2.751  -6.663  0.00  0.00    -0.010 C 
ATOM     11  C   UNL     1       9.721  -3.081  -3.844  0.00  0.00    +0.219 C 
ATOM     12  O   UNL     1       9.634  -2.960  -2.641  0.00  0.00    -0.275 OA
ATOM     13  H   UNL     1       6.167  -2.208  -9.163  0.00  0.00    -0.086 HD
ATOM     14  H   UNL     1       7.266  -3.174  -9.919  0.00  0.00    -0.086 HD
ENDROOT
BRANCH  11  15
ATOM     15  C   UNL     1      10.443  -4.266  -4.433  0.00  0.00    +0.079 C 
ATOM     16  C   UNL     1      10.416  -5.433  -3.437  0.00  0.00    +0.017 C 
ATOM     17  C   UNL     1      10.996  -6.670  -4.126  0.00  0.00    +0.027 C 
ATOM     18  C   UNL     1      12.302  -6.332  -4.782  0.00  0.00    -0.031 C 
ATOM     19  C   UNL     1      12.695  -5.125  -5.037  0.00  0.00    -0.030 C 
ATOM     20  C   UNL     1      11.901  -3.893  -4.709  0.00  0.00    +0.039 C 
ENDBRANCH  11  15
BRANCH   1  22
ATOM     21  N   UNL     1       4.850  -0.841  -4.947  0.00  0.00    -0.314 N 
ATOM     22  C   UNL     1       6.059  -1.325  -4.598  0.00  0.00    +0.218 C 
ATOM     23  O   UNL     1       6.143  -2.209  -3.772  0.00  0.00    -0.275 OA
ATOM     24  H   UNL     1       4.783  -0.135  -5.608  0.00  0.00    +0.149 HD
BRANCH  21  25
ATOM     25  C   UNL     1       3.638  -1.381  -4.326  0.00  0.00    +0.123 C 
BRANCH  25  26
ATOM     26  C   UNL     1       2.411  -0.664  -4.893  0.00  0.00    +0.126 C 
BRANCH  26  29
ATOM     27  C   UNL     1      -0.009  -0.720  -4.620  0.00  0.00    +0.401 C 
ATOM     28  O   UNL     1      -0.094   0.165  -5.449  0.00  0.00    -0.226 OA
ATOM     29  N   UNL     1       1.199  -1.204  -4.272  0.00  0.00    -0.280 N 
ATOM     30  H   UNL     1       1.267  -1.911  -3.611  0.00  0.00    +0.152 HD
BRANCH  27  31
ATOM     31  O   UNL     1      -1.123  -1.216  -4.050  0.00  0.00    -0.445 OA
BRANCH  31  33
ATOM     32  C   UNL     1      -2.548  -0.870  -5.971  0.00  0.00    +0.055 C 
ATOM     33  C   UNL     1      -2.370  -0.656  -4.466  0.00  0.00    +0.107 C 
ATOM     34  C   UNL     1      -2.384   0.843  -4.159  0.00  0.00    +0.055 C 
ATOM     35  C   UNL     1      -3.513  -1.341  -3.715  0.00  0.00    +0.055 C 
ENDBRANCH  31  33
ENDBRANCH  27  31
ENDBRANCH  26  29
ENDBRANCH  25  26
ENDBRANCH  21  25
ENDBRANCH   1  22
TORSDOF 7
