REMARK  Name = ZINC38548393
REMARK  7 active torsions:
REMARK  status: ('A' for Active; 'I' for Inactive)
REMARK    1  A    between atoms: C_1  and  C_2
REMARK    2  A    between atoms: C_2  and  O_3
REMARK    3  A    between atoms: O_3  and  C_4
REMARK    4  A    between atoms: N_21  and  C_22
REMARK    5  A    between atoms: C_22  and  C_23
REMARK    6  A    between atoms: C_23  and  C_24
REMARK    7  A    between atoms: C_24  and  C_25
REMARK                            x       y       z     vdW  Elec       q    Type
REMARK                         _______ _______ _______ _____ _____    ______ ____
ROOT
ATOM      1  C   UNL     1      -1.497  -1.845   0.000  0.00  0.00    +0.147 A 
ATOM      2  C   UNL     1      -0.390  -2.661  -0.007  0.00  0.00    +0.048 A 
ATOM      3  C   UNL     1      -0.511  -4.043  -0.009  0.00  0.00    +0.005 A 
ATOM      4  C   UNL     1      -1.771  -4.613  -0.002  0.00  0.00    +0.017 A 
ATOM      5  C   UNL     1      -2.882  -3.806   0.007  0.00  0.00    +0.044 A 
ATOM      6  C   UNL     1      -2.802  -2.397   0.014  0.00  0.00    +0.122 A 
ATOM      7  N   UNL     1      -3.985  -1.742   0.027  0.00  0.00    -0.221 NA
ATOM      8  C   UNL     1      -5.138  -2.370   0.038  0.00  0.00    +0.162 A 
ATOM      9  S   UNL     1      -4.637  -4.086   0.016  0.00  0.00    -0.052 S 
ATOM     10  N   UNL     1      -6.413  -1.841   0.053  0.00  0.00    -0.307 N 
ATOM     11  C   UNL     1      -6.619  -0.385   0.051  0.00  0.00    +0.126 C 
ATOM     12  C   UNL     1      -7.522  -0.019  -1.133  0.00  0.00    +0.128 C 
ATOM     13  N   UNL     1      -8.698  -0.900  -1.116  0.00  0.00    -0.283 N 
ATOM     14  C   UNL     1      -8.493  -2.356  -1.115  0.00  0.00    +0.128 C 
ATOM     15  C   UNL     1      -7.590  -2.722   0.064  0.00  0.00    +0.126 C 
ATOM     16  C   UNL     1      -9.943  -0.383  -1.102  0.00  0.00    +0.302 C 
ATOM     17  O   UNL     1     -10.101   0.819  -1.007  0.00  0.00    -0.253 OA
ATOM     18  N   UNL     1     -11.012  -1.198  -1.193  0.00  0.00    -0.299 N 
ATOM     19  H   UNL     1     -10.890  -2.161  -1.196  0.00  0.00    +0.150 HD
ENDROOT
BRANCH   1  20
ATOM     20  O   UNL     1      -1.337  -0.494   0.001  0.00  0.00    -0.490 OA
BRANCH  20  22
ATOM     21  C   UNL     1      -0.017   1.530  -0.010  0.00  0.00    +0.048 C 
ATOM     22  C   UNL     1       0.004   0.000  -0.013  0.00  0.00    +0.226 C 
ENDBRANCH  20  22
ENDBRANCH   1  20
BRANCH  18  23
ATOM     23  C   UNL     1     -12.360  -0.631  -1.288  0.00  0.00    +0.106 C 
BRANCH  23  24
ATOM     24  C   UNL     1     -13.385  -1.763  -1.380  0.00  0.00    +0.023 C 
BRANCH  24  25
ATOM     25  C   UNL     1     -14.792  -1.171  -1.479  0.00  0.00    +0.036 C 
BRANCH  25  26
ATOM     26  C   UNL     1     -15.801  -2.286  -1.569  0.00  0.00    -0.047 A 
ATOM     27  C   UNL     1     -16.169  -2.787  -2.804  0.00  0.00    +0.003 A 
ATOM     28  C   UNL     1     -17.096  -3.810  -2.886  0.00  0.00    +0.000 A 
ATOM     29  C   UNL     1     -17.653  -4.333  -1.734  0.00  0.00    +0.000 A 
ATOM     30  C   UNL     1     -17.284  -3.833  -0.500  0.00  0.00    +0.000 A 
ATOM     31  C   UNL     1     -16.354  -2.813  -0.417  0.00  0.00    +0.003 A 
ENDBRANCH  25  26
ENDBRANCH  24  25
ENDBRANCH  23  24
ENDBRANCH  18  23
TORSDOF 6
