REMARK  Name = ZINC05190437
REMARK  3 active torsions:
REMARK  status: ('A' for Active; 'I' for Inactive)
REMARK    1  A    between atoms: C_3  and  C_10
REMARK    2  A    between atoms: C_5  and  N_7
REMARK    3  A    between atoms: N_12  and  C_17
REMARK                            x       y       z     vdW  Elec       q    Type
REMARK                         _______ _______ _______ _____ _____    ______ ____
ROOT
ATOM      1  C   UNL     1      -1.230   2.138   0.073  0.00  0.00    +0.170 C 
ATOM      2  N   UNL     1      -1.216   3.417  -0.662  0.00  0.00    -0.254 N 
ATOM      3  C   UNL     1      -1.806   4.478  -0.128  0.00  0.00    +0.231 C 
ATOM      4  O   UNL     1      -1.819   5.546  -0.703  0.00  0.00    -0.274 OA
ATOM      5  C   UNL     1      -2.463   4.308   1.232  0.00  0.00    +0.167 C 
ATOM      6  S   UNL     1      -1.737   2.694   1.757  0.00  0.00    -0.124 S 
ENDROOT
BRANCH   2   7
ATOM      7  C   UNL     1      -0.587   3.510  -1.908  0.00  0.00    +0.040 A 
ATOM      8  C   UNL     1       0.467   4.396  -2.092  0.00  0.00    +0.043 A 
ATOM      9  C   UNL     1       1.090   4.481  -3.323  0.00  0.00    +0.044 A 
ATOM     10  C   UNL     1       0.658   3.693  -4.375  0.00  0.00    +0.040 A 
ATOM     11  C   UNL     1      -0.395   2.813  -4.196  0.00  0.00    +0.044 A 
ATOM     12  C   UNL     1      -1.018   2.720  -2.966  0.00  0.00    +0.043 A 
ATOM     13 CL   UNL     1      -0.935   1.827  -5.519  0.00  0.00    -0.083 Cl
ATOM     14 CL   UNL     1       2.411   5.584  -3.551  0.00  0.00    -0.083 Cl
ENDBRANCH   2   7
BRANCH   1  17
ATOM     15  C   UNL     1       2.525   1.742   0.084  0.00  0.00    +0.003 A 
ATOM     16  C   UNL     1       1.267   2.315   0.068  0.00  0.00    +0.006 A 
ATOM     17  C   UNL     1       0.141   1.513   0.099  0.00  0.00    -0.015 A 
ATOM     18  C   UNL     1       0.274   0.138   0.150  0.00  0.00    +0.039 A 
ATOM     19  C   UNL     1       1.531  -0.435   0.168  0.00  0.00    +0.127 A 
ATOM     20  C   UNL     1       2.657   0.367   0.135  0.00  0.00    +0.033 A 
BRANCH  19  21
ATOM     21  N   UNL     1       1.673  -1.907   0.222  0.00  0.00    +0.056 N 
ATOM     22  O   UNL     1       0.681  -2.614   0.251  0.00  0.00    -0.126 OA
ATOM     23  O   UNL     1       2.781  -2.413   0.238  0.00  0.00    -0.126 OA
ENDBRANCH  19  21
ENDBRANCH   1  17
TORSDOF 3
