REMARK  Name = ZINC04146832
REMARK  3 active torsions:
REMARK  status: ('A' for Active; 'I' for Inactive)
REMARK    1  A    between atoms: C_3  and  O_26
REMARK    2  A    between atoms: C_4  and  C_8
REMARK    3  A    between atoms: N_14  and  C_15
REMARK                            x       y       z     vdW  Elec       q    Type
REMARK                         _______ _______ _______ _____ _____    ______ ____
ROOT
ATOM      1  C   UNL     1       3.696  -0.695  -0.038  0.00  0.00    +0.170 A 
ATOM      2  N   UNL     1       4.840  -0.015  -0.041  0.00  0.00    -0.195 NA
ATOM      3  C   UNL     1       5.999  -0.664  -0.056  0.00  0.00    +0.217 A 
ATOM      4  N   UNL     1       6.017  -1.993  -0.069  0.00  0.00    -0.181 NA
ATOM      5  C   UNL     1       4.875  -2.674  -0.066  0.00  0.00    +0.220 A 
ATOM      6  N   UNL     1       3.715  -2.026  -0.046  0.00  0.00    -0.195 NA
ATOM      7  N   UNL     1       4.895  -4.054  -0.080  0.00  0.00    -0.308 N 
ATOM      8  N   UNL     1       7.185   0.042  -0.059  0.00  0.00    -0.327 N 
ATOM      9  H   UNL     1       4.062  -4.551  -0.078  0.00  0.00    +0.149 HD
ATOM     10  H   UNL     1       7.172   1.012  -0.050  0.00  0.00    +0.145 HD
ATOM     11  H   UNL     1       8.032  -0.432  -0.070  0.00  0.00    +0.145 HD
ENDROOT
BRANCH   7  12
ATOM     12  C   UNL     1       6.174  -4.768  -0.097  0.00  0.00    +0.036 C 
ATOM     13  C   UNL     1       6.981  -4.399   1.150  0.00  0.00    +0.029 C 
ATOM     14  C   UNL     1       8.316  -5.145   1.132  0.00  0.00    -0.008 C 
ATOM     15  C   UNL     1       8.058  -6.653   1.120  0.00  0.00    +0.007 C 
ATOM     16  C   UNL     1       7.251  -7.022  -0.127  0.00  0.00    -0.008 C 
ATOM     17  C   UNL     1       5.915  -6.276  -0.109  0.00  0.00    +0.029 C 
ATOM     18  C   UNL     1       8.038  -6.629  -1.379  0.00  0.00    +0.007 C 
ATOM     19  C   UNL     1       8.296  -5.121  -1.366  0.00  0.00    -0.008 C 
ATOM     20  C   UNL     1       9.103  -4.752  -0.120  0.00  0.00    +0.007 C 
ATOM     21  C   UNL     1       6.961  -4.375  -1.349  0.00  0.00    +0.029 C 
ENDBRANCH   7  12
BRANCH   1  25
ATOM     22  C   UNL     1      -0.017   1.381   0.010  0.00  0.00    +0.023 A 
ATOM     23  C   UNL     1       1.166   2.095   0.002  0.00  0.00    +0.047 A 
ATOM     24  C   UNL     1       2.381   1.427  -0.013  0.00  0.00    +0.128 A 
ATOM     25  C   UNL     1       2.404   0.027  -0.021  0.00  0.00    +0.062 A 
ATOM     26  C   UNL     1       1.204  -0.683  -0.013  0.00  0.00    +0.035 A 
ATOM     27  C   UNL     1       0.002  -0.004   0.002  0.00  0.00    +0.042 A 
ATOM     28 CL   UNL     1      -1.491  -0.889   0.011  0.00  0.00    -0.084 Cl
BRANCH  24  29
ATOM     29  O   UNL     1       3.543   2.127  -0.022  0.00  0.00    -0.506 OA
ATOM     30  H   UNL     1       3.889   2.326   0.859  0.00  0.00    +0.292 HD
ENDBRANCH  24  29
ENDBRANCH   1  25
TORSDOF 3
