REMARK  Name = ZINC36158873
REMARK  11 active torsions:
REMARK  status: ('A' for Active; 'I' for Inactive)
REMARK    1  A    between atoms: C_1  and  C_2
REMARK    2  A    between atoms: C_2  and  C_4
REMARK    3  A    between atoms: C_2  and  C_18
REMARK    4  A    between atoms: C_4  and  C_5
REMARK    5  A    between atoms: N_7  and  C_8
REMARK    6  A    between atoms: C_13  and  C_14
REMARK    7  A    between atoms: C_14  and  N_16
REMARK    8  A    between atoms: C_18  and  C_19
REMARK    9  A    between atoms: C_19  and  C_20
REMARK   10  A    between atoms: C_19  and  C_21
REMARK   11  A    between atoms: C_19  and  C_22
REMARK                            x       y       z     vdW  Elec       q    Type
REMARK                         _______ _______ _______ _____ _____    ______ ____
ROOT
ATOM      1  C   UNL     1       2.076  -0.179   1.223  0.00  0.00    +0.217 C 
ATOM      2  O   UNL     1       2.384   0.646   0.389  0.00  0.00    -0.275 OA
ATOM      3  N   UNL     1       3.009  -0.669   2.063  0.00  0.00    -0.285 N 
ATOM      4  H   UNL     1       2.780  -1.382   2.680  0.00  0.00    +0.155 HD
ENDROOT
BRANCH   3   5
ATOM      5  C   UNL     1       4.302  -0.150   2.046  0.00  0.00    +0.046 A 
ATOM      6  C   UNL     1       4.532   1.136   1.579  0.00  0.00    +0.024 A 
ATOM      7  C   UNL     1       5.814   1.649   1.563  0.00  0.00    +0.005 A 
ATOM      8  C   UNL     1       6.880   0.889   2.011  0.00  0.00    +0.039 A 
ATOM      9  C   UNL     1       6.673  -0.394   2.479  0.00  0.00    +0.135 A 
ATOM     10  C   UNL     1       5.378  -0.925   2.507  0.00  0.00    +0.059 A 
ATOM     11  F   UNL     1       7.717  -1.133   2.915  0.00  0.00    -0.205 F 
BRANCH  10  12
ATOM     12  C   UNL     1       5.147  -2.289   3.011  0.00  0.00    +0.081 C 
ATOM     13  S   UNL     1       5.335  -3.631   1.965  0.00  0.00    -0.035 S 
BRANCH  12  14
ATOM     14  N   UNL     1       4.788  -2.481   4.296  0.00  0.00    -0.352 N 
ATOM     15  H   UNL     1       4.611  -1.719   4.869  0.00  0.00    +0.143 HD
ATOM     16  H   UNL     1       4.707  -3.381   4.647  0.00  0.00    +0.143 HD
ENDBRANCH  12  14
ENDBRANCH  10  12
ENDBRANCH   3   5
BRANCH   1  17
ATOM     17  C   UNL     1       0.650  -0.657   1.319  0.00  0.00    +0.099 C 
BRANCH  17  19
ATOM     18  C   UNL     1      -0.251   1.549   0.566  0.00  0.00    +0.008 C 
ATOM     19  C   UNL     1      -0.198   0.051   0.260  0.00  0.00    -0.005 C 
BRANCH  19  20
ATOM     20  C   UNL     1      -1.616  -0.524   0.275  0.00  0.00    +0.010 C 
BRANCH  20  21
ATOM     21  C   UNL     1      -2.290  -0.254  -1.072  0.00  0.00    -0.037 C 
ATOM     22  C   UNL     1      -1.558  -1.026  -2.172  0.00  0.00    +0.010 C 
ATOM     23  C   UNL     1      -3.749  -0.709  -1.013  0.00  0.00    +0.010 C 
ATOM     24  C   UNL     1      -2.235   1.245  -1.378  0.00  0.00    +0.010 C 
ENDBRANCH  20  21
ENDBRANCH  19  20
ENDBRANCH  17  19
ENDBRANCH   1  17
TORSDOF 7
