REMARK  Name = ZINC04203125
REMARK  3 active torsions:
REMARK  status: ('A' for Active; 'I' for Inactive)
REMARK    1  A    between atoms: C_6  and  C_7
REMARK    2  A    between atoms: C_9  and  C_16
REMARK    3  A    between atoms: CA_12  and  C_14
REMARK                            x       y       z     vdW  Elec       q    Type
REMARK                         _______ _______ _______ _____ _____    ______ ____
ROOT
ATOM      1  C   UNL     1       0.099   1.405   0.098  0.00  0.00    -0.026 C 
ATOM      2  C   UNL     1       1.503   2.017  -0.065  0.00  0.00    +0.091 C 
ATOM      3  C   UNL     1       2.466   0.809  -0.120  0.00  0.00    +0.009 C 
ATOM      4  CA  UNL     1       1.652  -0.315   0.569  0.00  0.00    +0.045 C 
ATOM      5  N   UNL     1       0.281  -0.047   0.108  0.00  0.00    +0.393 N 
ATOM      6  H1  UNL     1       0.149  -0.424  -0.838  0.00  0.00    -0.084 HD
ATOM      7  H2  UNL     1      -0.395  -0.481   0.747  0.00  0.00    -0.084 HD
ENDROOT
BRANCH   1  13
ATOM      8  C   UNL     1      -0.245   1.161   2.565  0.00  0.00    +0.003 A 
ATOM      9  C   UNL     1      -0.799   1.578   3.760  0.00  0.00    +0.020 A 
ATOM     10  C   UNL     1      -1.629   2.685   3.789  0.00  0.00    +0.041 A 
ATOM     11  C   UNL     1      -1.899   3.377   2.622  0.00  0.00    +0.020 A 
ATOM     12  C   UNL     1      -1.340   2.962   1.428  0.00  0.00    +0.003 A 
ATOM     13  C   UNL     1      -0.511   1.857   1.400  0.00  0.00    -0.060 A 
ATOM     14 CL   UNL     1      -2.331   3.205   5.290  0.00  0.00    -0.084 Cl
ENDBRANCH   1  13
BRANCH   4  15
ATOM     15  C   UNL     1       2.129  -1.671   0.116  0.00  0.00    +0.343 C 
ATOM     16  O   UNL     1       1.567  -2.237  -0.791  0.00  0.00    -0.248 OA
ATOM     17  OXT UNL     1       3.178  -2.249   0.722  0.00  0.00    -0.248 OA
ENDBRANCH   4  15
BRANCH   2  18
ATOM     18  C   UNL     1       1.830   2.894   1.116  0.00  0.00    +0.358 C 
ATOM     19  O   UNL     1       2.377   2.423   2.086  0.00  0.00    -0.246 OA
ATOM     20  O   UNL     1       1.516   4.199   1.091  0.00  0.00    -0.246 OA
ENDBRANCH   2  18
TORSDOF 3
