REMARK  Name = ZINC66678889
REMARK  7 active torsions:
REMARK  status: ('A' for Active; 'I' for Inactive)
REMARK    1  A    between atoms: N_7  and  C_8
REMARK    2  A    between atoms: C_8  and  C_9
REMARK    3  A    between atoms: C_9  and  C_10
REMARK    4  A    between atoms: C_10  and  C_11
REMARK    5  A    between atoms: C_11  and  N_12
REMARK    6  A    between atoms: N_15  and  C_16
REMARK    7  A    between atoms: C_20  and  C_22
REMARK                            x       y       z     vdW  Elec       q    Type
REMARK                         _______ _______ _______ _____ _____    ______ ____
ROOT
ATOM      1  N   UNL     1      -1.915  -7.370  -0.017  0.00  0.00    -0.299 N 
ATOM      2  C   UNL     1      -1.883  -8.718  -0.032  0.00  0.00    +0.304 C 
ATOM      3  O   UNL     1      -0.815  -9.300  -0.054  0.00  0.00    -0.253 OA
ATOM      4  N   UNL     1      -3.033  -9.420  -0.024  0.00  0.00    -0.269 N 
ATOM      5  H   UNL     1      -2.767  -6.906   0.001  0.00  0.00    +0.150 HD
ATOM      6  H   UNL     1      -3.882  -8.959   0.061  0.00  0.00    +0.156 HD
ENDROOT
BRANCH   4   7
ATOM      7  C   UNL     1      -3.002 -10.815  -0.138  0.00  0.00    +0.035 A 
ATOM      8  C   UNL     1      -1.969 -11.537   0.446  0.00  0.00    +0.023 A 
ATOM      9  C   UNL     1      -1.935 -12.914   0.335  0.00  0.00    +0.002 A 
ATOM     10  C   UNL     1      -2.928 -13.580  -0.356  0.00  0.00    +0.010 A 
ATOM     11  C   UNL     1      -3.969 -12.863  -0.943  0.00  0.00    +0.004 A 
ATOM     12  C   UNL     1      -4.007 -11.476  -0.827  0.00  0.00    +0.033 A 
BRANCH  11  13
ATOM     13  C   UNL     1      -5.037 -13.577  -1.686  0.00  0.00    +0.091 A 
ATOM     14  C   UNL     1      -4.999 -14.987  -1.792  0.00  0.00    +0.035 A 
ATOM     15  C   UNL     1      -5.998 -15.609  -2.482  0.00  0.00    +0.073 A 
ATOM     16  C   UNL     1      -7.010 -14.804  -3.050  0.00  0.00    +0.265 A 
ATOM     17  O   UNL     1      -7.924 -15.316  -3.676  0.00  0.00    -0.266 OA
ATOM     18  N   UNL     1      -6.959 -13.468  -2.895  0.00  0.00    -0.243 N 
ATOM     19  H   UNL     1      -7.658 -12.920  -3.287  0.00  0.00    +0.192 HD
ATOM     20  N   UNL     1      -6.015 -12.898  -2.238  0.00  0.00    -0.171 NA
ENDBRANCH  11  13
ENDBRANCH   4   7
BRANCH   1  21
ATOM     21  C   UNL     1      -0.665  -6.607  -0.026  0.00  0.00    +0.106 C 
BRANCH  21  22
ATOM     22  C   UNL     1      -0.981  -5.111  -0.004  0.00  0.00    +0.020 C 
BRANCH  22  23
ATOM     23  C   UNL     1       0.325  -4.313  -0.014  0.00  0.00    +0.020 C 
BRANCH  23  24
ATOM     24  C   UNL     1       0.009  -2.817   0.007  0.00  0.00    +0.103 C 
BRANCH  24  31
ATOM     25  C   UNL     1      -0.017   1.379   0.055  0.00  0.00    +0.005 A 
ATOM     26  C   UNL     1       1.194   2.058   0.045  0.00  0.00    +0.018 A 
ATOM     27  C   UNL     1       2.372   1.340   0.020  0.00  0.00    +0.084 A 
ATOM     28  N   UNL     1       2.360   0.020   0.006  0.00  0.00    -0.350 N 
ATOM     29  C   UNL     1       1.226  -0.664   0.014  0.00  0.00    +0.096 A 
ATOM     30  C   UNL     1       0.002  -0.004   0.040  0.00  0.00    +0.041 A 
ATOM     31  N   UNL     1       1.260  -2.053  -0.002  0.00  0.00    -0.331 N 
ATOM     32  H   UNL     1       2.111  -2.518  -0.019  0.00  0.00    +0.147 HD
ATOM     33  H   UNL     1       3.202  -0.461  -0.011  0.00  0.00    +0.166 HD
ENDBRANCH  24  31
ENDBRANCH  23  24
ENDBRANCH  22  23
ENDBRANCH  21  22
ENDBRANCH   1  21
TORSDOF 7
