REMARK  Name = ZINC39945667
REMARK  12 active torsions:
REMARK  status: ('A' for Active; 'I' for Inactive)
REMARK    1  A    between atoms: C_1  and  C_2
REMARK    2  A    between atoms: C_5  and  C_19
REMARK    3  A    between atoms: C_6  and  C_18
REMARK    4  A    between atoms: N_7  and  C_8
REMARK    5  A    between atoms: C_11  and  O_14
REMARK    6  A    between atoms: O_14  and  C_15
REMARK    7  A    between atoms: C_19  and  C_21
REMARK    8  A    between atoms: C_21  and  S_22
REMARK    9  A    between atoms: S_22  and  C_23
REMARK   10  A    between atoms: C_27  and  C_29
REMARK   11  A    between atoms: C_29  and  O_30
REMARK   12  A    between atoms: O_30  and  C_31
REMARK                            x       y       z     vdW  Elec       q    Type
REMARK                         _______ _______ _______ _____ _____    ______ ____
ROOT
ATOM      1  C   UNL     1       2.863  -1.994  -1.389  0.00  0.00    +0.171 C 
ATOM      2  O   UNL     1       3.786  -2.550  -0.826  0.00  0.00    -0.291 OA
ENDROOT
BRANCH   1   6
ATOM      3  C   UNL     1       0.059   1.560   0.108  0.00  0.00    +0.029 C 
ATOM      4  C   UNL     1       0.027   0.031   0.050  0.00  0.00    +0.080 C 
ATOM      5  C   UNL     1       0.766  -0.476  -1.204  0.00  0.00    +0.062 C 
ATOM      6  C   UNL     1       1.896  -1.309  -0.640  0.00  0.00    +0.015 C 
ATOM      7  C   UNL     1       1.814  -1.281   0.706  0.00  0.00    +0.015 C 
ATOM      8  N   UNL     1       0.778  -0.542   1.175  0.00  0.00    -0.300 N 
ATOM      9  C   UNL     1       2.783  -2.004   1.607  0.00  0.00    +0.061 C 
BRANCH   8  10
ATOM     10  C   UNL     1       0.469  -0.351   2.526  0.00  0.00    +0.034 A 
ATOM     11  C   UNL     1       1.333   0.369   3.341  0.00  0.00    +0.027 A 
ATOM     12  C   UNL     1       1.028   0.556   4.675  0.00  0.00    +0.047 A 
ATOM     13  C   UNL     1      -0.141   0.025   5.200  0.00  0.00    +0.127 A 
ATOM     14  C   UNL     1      -1.004  -0.695   4.387  0.00  0.00    +0.047 A 
ATOM     15  C   UNL     1      -0.704  -0.878   3.052  0.00  0.00    +0.027 A 
BRANCH  13  16
ATOM     16  O   UNL     1      -0.441   0.209   6.514  0.00  0.00    -0.434 OA
BRANCH  16  17
ATOM     17  C   UNL     1      -1.660  -0.365   6.988  0.00  0.00    +0.541 C 
ATOM     18  F   UNL     1      -2.737   0.175   6.277  0.00  0.00    -0.166 F 
ATOM     19  F   UNL     1      -1.627  -1.751   6.801  0.00  0.00    -0.166 F 
ENDBRANCH  16  17
ENDBRANCH  13  16
ENDBRANCH   8  10
ENDBRANCH   1   6
BRANCH   1  20
ATOM     20  C   UNL     1       2.759  -2.041  -2.892  0.00  0.00    +0.156 C 
BRANCH  20  21
ATOM     21  S   UNL     1       4.147  -2.994  -3.565  0.00  0.00    -0.079 S 
BRANCH  21  22
ATOM     22  C   UNL     1       3.885  -2.957  -5.307  0.00  0.00    +0.185 A 
ATOM     23  N   UNL     1       4.665  -3.541  -6.242  0.00  0.00    -0.253 N 
ATOM     24  H   UNL     1       5.471  -4.058  -6.086  0.00  0.00    +0.191 HD
ATOM     25  N   UNL     1       4.078  -3.252  -7.484  0.00  0.00    -0.153 NA
ATOM     26  C   UNL     1       3.013  -2.534  -7.245  0.00  0.00    +0.189 A 
ATOM     27  N   UNL     1       2.890  -2.359  -5.929  0.00  0.00    -0.202 NA
BRANCH  26  28
ATOM     28  C   UNL     1       2.069  -1.996  -8.290  0.00  0.00    +0.306 C 
BRANCH  28  29
ATOM     29  O   UNL     1       1.033  -2.950  -8.532  0.00  0.00    -0.484 OA
BRANCH  29  30
ATOM     30  C   UNL     1       0.092  -2.618  -9.455  0.00  0.00    +0.121 A 
ATOM     31  C   UNL     1       0.168  -1.401 -10.117  0.00  0.00    +0.047 A 
ATOM     32  C   UNL     1      -0.789  -1.065 -11.054  0.00  0.00    +0.023 A 
ATOM     33  C   UNL     1      -1.824  -1.940 -11.332  0.00  0.00    +0.041 A 
ATOM     34  C   UNL     1      -1.901  -3.154 -10.673  0.00  0.00    +0.023 A 
ATOM     35  C   UNL     1      -0.942  -3.497  -9.740  0.00  0.00    +0.047 A 
ATOM     36 CL   UNL     1      -3.026  -1.515 -12.510  0.00  0.00    -0.084 Cl
ENDBRANCH  29  30
ENDBRANCH  28  29
ENDBRANCH  26  28
ENDBRANCH  21  22
ENDBRANCH  20  21
ENDBRANCH   1  20
TORSDOF 10
