REMARK  Name = ZINC44874907
REMARK  8 active torsions:
REMARK  status: ('A' for Active; 'I' for Inactive)
REMARK    1  A    between atoms: C_4  and  C_7
REMARK    2  A    between atoms: C_7  and  S_8
REMARK    3  A    between atoms: S_8  and  N_11
REMARK    4  A    between atoms: C_13  and  C_22
REMARK    5  A    between atoms: N_24  and  C_25
REMARK    6  A    between atoms: C_25  and  C_26
REMARK    7  A    between atoms: C_29  and  C_32
REMARK    8  A    between atoms: C_32  and  N_33
REMARK                            x       y       z     vdW  Elec       q    Type
REMARK                         _______ _______ _______ _____ _____    ______ ____
ROOT
ATOM      1  N   UNL     1       5.696  -1.816   1.514  0.00  0.00    -0.200 N 
ATOM      2  C   UNL     1       5.742  -3.286   1.439  0.00  0.00    +0.185 C 
ATOM      3  C   UNL     1       6.917  -3.758   2.309  0.00  0.00    +0.277 C 
ATOM      4  O   UNL     1       8.119  -3.154   1.826  0.00  0.00    -0.476 OA
ATOM      5  C   UNL     1       8.113  -1.812   1.614  0.00  0.00    +0.144 A 
ATOM      6  C   UNL     1       6.914  -1.121   1.447  0.00  0.00    +0.093 A 
ATOM      7  C   UNL     1       6.921   0.246   1.221  0.00  0.00    +0.028 A 
ATOM      8  C   UNL     1       8.123   0.928   1.158  0.00  0.00    +0.002 A 
ATOM      9  C   UNL     1       9.315   0.246   1.321  0.00  0.00    +0.004 A 
ATOM     10  C   UNL     1       9.313  -1.120   1.557  0.00  0.00    +0.047 A 
ENDROOT
BRANCH   3  11
ATOM     11  C   UNL     1       7.034  -5.258   2.229  0.00  0.00    +0.256 C 
ATOM     12  O   UNL     1       8.015  -5.764   1.727  0.00  0.00    -0.272 OA
ATOM     13  N   UNL     1       6.048  -6.038   2.715  0.00  0.00    -0.308 N 
ATOM     14  H   UNL     1       5.263  -5.634   3.117  0.00  0.00    +0.149 HD
BRANCH  13  15
ATOM     15  C   UNL     1       6.162  -7.497   2.637  0.00  0.00    +0.139 C 
BRANCH  15  16
ATOM     16  C   UNL     1       4.937  -8.129   3.246  0.00  0.00    -0.030 A 
ATOM     17  C   UNL     1       4.913  -8.429   4.596  0.00  0.00    +0.005 A 
ATOM     18  C   UNL     1       3.789  -9.010   5.154  0.00  0.00    +0.002 A 
ATOM     19  C   UNL     1       2.690  -9.290   4.364  0.00  0.00    -0.064 A 
ATOM     20  C   UNL     1       2.715  -8.989   3.014  0.00  0.00    +0.002 A 
ATOM     21  C   UNL     1       3.836  -8.405   2.457  0.00  0.00    +0.005 A 
BRANCH  19  22
ATOM     22  C   UNL     1       1.466  -9.923   4.972  0.00  0.00    -0.043 C 
BRANCH  22  23
ATOM     23  N   UNL     1       0.553  -8.873   5.441  0.00  0.00    +0.382 N 
ATOM     24  C   UNL     1       1.192  -8.120   6.528  0.00  0.00    -0.078 C 
ATOM     25  C   UNL     1       0.278  -6.974   6.965  0.00  0.00    -0.019 C 
ATOM     26  C   UNL     1      -1.054  -7.549   7.455  0.00  0.00    -0.004 C 
ATOM     27  C   UNL     1      -1.676  -8.393   6.339  0.00  0.00    -0.019 C 
ATOM     28  C   UNL     1      -0.690  -9.487   5.925  0.00  0.00    -0.078 C 
ATOM     29  H   UNL     1       0.343  -8.246   4.679  0.00  0.00    -0.081 HD
ENDBRANCH  22  23
ENDBRANCH  19  22
ENDBRANCH  15  16
ENDBRANCH  13  15
ENDBRANCH   3  11
BRANCH   1  30
ATOM     30  S   UNL     1       4.257  -1.011   1.666  0.00  0.00    +0.050 S 
ATOM     31  O   UNL     1       4.593   0.216   2.298  0.00  0.00    -0.155 OA
ATOM     32  O   UNL     1       3.387  -1.939   2.300  0.00  0.00    -0.155 OA
BRANCH  30  33
ATOM     33  C   UNL     1       3.711  -0.707  -0.038  0.00  0.00    +0.224 C 
BRANCH  33  37
ATOM     34  C   UNL     1      -0.017   1.378   0.010  0.00  0.00    +0.000 A 
ATOM     35  C   UNL     1       1.171   2.086   0.002  0.00  0.00    +0.000 A 
ATOM     36  C   UNL     1       2.377   1.411  -0.013  0.00  0.00    +0.005 A 
ATOM     37  C   UNL     1       2.396   0.029  -0.020  0.00  0.00    -0.025 A 
ATOM     38  C   UNL     1       1.208  -0.679  -0.012  0.00  0.00    +0.005 A 
ATOM     39  C   UNL     1       0.002  -0.004   0.002  0.00  0.00    +0.000 A 
ENDBRANCH  33  37
ENDBRANCH  30  33
ENDBRANCH   1  30
TORSDOF 8
