REMARK  Name = ZINC39667118
REMARK  9 active torsions:
REMARK  status: ('A' for Active; 'I' for Inactive)
REMARK    1  A    between atoms: C_1  and  C_2
REMARK    2  A    between atoms: C_5  and  C_9
REMARK    3  A    between atoms: C_6  and  C_8
REMARK    4  A    between atoms: C_9  and  C_10
REMARK    5  A    between atoms: C_10  and  N_11
REMARK    6  A    between atoms: C_12  and  C_14
REMARK    7  A    between atoms: C_25  and  C_27
REMARK    8  A    between atoms: C_32  and  S_33
REMARK    9  A    between atoms: S_33  and  C_34
REMARK                            x       y       z     vdW  Elec       q    Type
REMARK                         _______ _______ _______ _____ _____    ______ ____
ROOT
ATOM      1  C   UNL     1      -2.450  -8.883   0.652  0.00  0.00    +0.100 C 
ATOM      2  C   UNL     1      -1.995  -9.183  -0.793  0.00  0.00    +0.121 C 
ATOM      3  N   UNL     1      -2.867 -10.296  -1.237  0.00  0.00    -0.296 N 
ATOM      4  C   UNL     1      -4.199  -9.967  -0.675  0.00  0.00    +0.115 C 
ATOM      5  C   UNL     1      -3.897  -9.399   0.726  0.00  0.00    -0.004 C 
ATOM      6  C   UNL     1      -4.851  -8.252   1.046  0.00  0.00    -0.010 C 
ATOM      7  C   UNL     1      -6.276  -8.799   1.171  0.00  0.00    -0.082 C 
ATOM      8  N   UNL     1      -6.322  -9.811   2.233  0.00  0.00    +0.379 N 
ATOM      9  C   UNL     1      -5.473 -10.953   1.874  0.00  0.00    -0.082 C 
ATOM     10  C   UNL     1      -4.014 -10.497   1.778  0.00  0.00    -0.010 C 
ATOM     11  C   UNL     1      -2.526 -11.365  -1.983  0.00  0.00    +0.249 C 
ATOM     12  O   UNL     1      -3.381 -12.150  -2.348  0.00  0.00    -0.270 OA
ATOM     13  H   UNL     1      -5.991  -9.406   3.096  0.00  0.00    -0.086 HD
ATOM     14  H   UNL     1      -7.273 -10.125   2.356  0.00  0.00    -0.086 HD
ENDROOT
BRANCH  11  15
ATOM     15  C   UNL     1      -1.117 -11.584  -2.357  0.00  0.00    +0.069 A 
ATOM     16  C   UNL     1      -0.277 -10.500  -2.636  0.00  0.00    +0.017 A 
ATOM     17  C   UNL     1       1.037 -10.758  -2.982  0.00  0.00    +0.020 A 
ATOM     18  C   UNL     1       1.482 -12.068  -3.042  0.00  0.00    +0.112 A 
ATOM     19  N   UNL     1       0.675 -13.076  -2.776  0.00  0.00    -0.248 NA
ATOM     20  C   UNL     1      -0.591 -12.885  -2.435  0.00  0.00    +0.114 A 
BRANCH  20  21
ATOM     21  S   UNL     1      -1.622 -14.270  -2.083  0.00  0.00    -0.069 S 
BRANCH  21  22
ATOM     22  C   UNL     1      -0.609 -15.662  -2.458  0.00  0.00    +0.014 A 
ATOM     23  C   UNL     1       0.117 -16.286  -1.451  0.00  0.00    +0.015 A 
ATOM     24  C   UNL     1       0.910 -17.377  -1.748  0.00  0.00    +0.001 A 
ATOM     25  C   UNL     1       0.982 -17.848  -3.047  0.00  0.00    +0.000 A 
ATOM     26  C   UNL     1       0.261 -17.229  -4.052  0.00  0.00    +0.001 A 
ATOM     27  C   UNL     1      -0.538 -16.142  -3.760  0.00  0.00    +0.015 A 
ENDBRANCH  21  22
ENDBRANCH  20  21
ENDBRANCH  11  15
BRANCH   1  29
ATOM     28  N   UNL     1      -2.192  -6.947   2.170  0.00  0.00    -0.315 N 
ATOM     29  C   UNL     1      -2.407  -7.401   0.919  0.00  0.00    +0.218 C 
ATOM     30  O   UNL     1      -2.566  -6.615   0.009  0.00  0.00    -0.275 OA
ATOM     31  H   UNL     1      -2.065  -7.575   2.899  0.00  0.00    +0.149 HD
BRANCH  28  32
ATOM     32  C   UNL     1      -2.151  -5.506   2.429  0.00  0.00    +0.109 C 
BRANCH  32  33
ATOM     33  C   UNL     1      -1.894  -5.263   3.918  0.00  0.00    +0.054 C 
BRANCH  33  38
ATOM     34  C   UNL     1      -1.730   0.423   4.938  0.00  0.00    +0.044 C 
ATOM     35  C   UNL     1      -1.772  -1.060   4.672  0.00  0.00    -0.050 A 
ATOM     36  C   UNL     1      -0.599  -1.756   4.449  0.00  0.00    +0.003 A 
ATOM     37  C   UNL     1      -0.638  -3.116   4.206  0.00  0.00    +0.004 A 
ATOM     38  C   UNL     1      -1.851  -3.780   4.185  0.00  0.00    -0.043 A 
ATOM     39  C   UNL     1      -3.024  -3.084   4.409  0.00  0.00    -0.047 A 
ATOM     40  C   UNL     1      -2.984  -1.724   4.657  0.00  0.00    +0.007 A 
ATOM     41  C   UNL     1      -4.346  -3.807   4.386  0.00  0.00    +0.044 C 
ENDBRANCH  33  38
ENDBRANCH  32  33
ENDBRANCH  28  32
ENDBRANCH   1  29
TORSDOF 7
