REMARK  Name = ZINC14548976
REMARK  4 active torsions:
REMARK  status: ('A' for Active; 'I' for Inactive)
REMARK    1  A    between atoms: C_1  and  C_2
REMARK    2  A    between atoms: C_2  and  C_3
REMARK    3  A    between atoms: N_5  and  C_6
REMARK    4  A    between atoms: C_19  and  C_22
REMARK                            x       y       z     vdW  Elec       q    Type
REMARK                         _______ _______ _______ _____ _____    ______ ____
ROOT
ATOM      1  C   UNL     1      -1.778   5.041  -2.356  0.00  0.00    +0.034 A 
ATOM      2  C   UNL     1      -2.042   5.643  -1.133  0.00  0.00    +0.025 A 
ATOM      3  C   UNL     1      -1.713   4.987   0.036  0.00  0.00    +0.025 A 
ATOM      4  C   UNL     1      -1.120   3.731  -0.013  0.00  0.00    +0.031 A 
ATOM      5  C   UNL     1      -0.851   3.127  -1.228  0.00  0.00    -0.018 A 
ATOM      6  C   UNL     1      -1.185   3.789  -2.401  0.00  0.00    +0.029 A 
ATOM      7  C   UNL     1      -0.206   1.771  -1.343  0.00  0.00    +0.049 C 
ATOM      8  C   UNL     1       1.086   1.946  -2.129  0.00  0.00    -0.023 C 
ATOM      9  C   UNL     1       2.105   2.064  -1.314  0.00  0.00    -0.030 C 
ATOM     10  C   UNL     1       1.642   1.981   0.130  0.00  0.00    +0.033 C 
ATOM     11  C   UNL     1       0.288   1.241   0.015  0.00  0.00    +0.029 C 
ATOM     12  C   UNL     1      -0.636   1.613   1.159  0.00  0.00    +0.111 C 
ATOM     13  N   UNL     1      -0.801   3.081   1.187  0.00  0.00    -0.336 N 
ATOM     14  H   UNL     1      -0.690   3.578   2.012  0.00  0.00    +0.147 HD
ENDROOT
BRANCH  12  15
ATOM     15  C   UNL     1      -1.980   0.966   0.950  0.00  0.00    +0.010 A 
ATOM     16  C   UNL     1      -2.482  -0.162   1.511  0.00  0.00    +0.013 A 
ATOM     17  C   UNL     1      -3.757  -0.570   1.169  0.00  0.00    +0.008 A 
ATOM     18  C   UNL     1      -4.465   0.163   0.275  0.00  0.00    +0.045 A 
ATOM     19  S   UNL     1      -3.324   1.481  -0.107  0.00  0.00    -0.100 S 
ENDBRANCH  12  15
BRANCH   1  22
ATOM     20  C   UNL     1      -2.041   7.044  -3.616  0.00  0.00    +0.217 C 
ATOM     21  O   UNL     1      -1.598   7.677  -2.680  0.00  0.00    -0.275 OA
ATOM     22  N   UNL     1      -2.112   5.700  -3.547  0.00  0.00    -0.285 N 
ATOM     23  H   UNL     1      -2.395   5.189  -4.321  0.00  0.00    +0.155 HD
BRANCH  20  25
ATOM     24  C   UNL     1      -2.324   9.269  -4.674  0.00  0.00    +0.013 C 
ATOM     25  C   UNL     1      -2.513   7.761  -4.854  0.00  0.00    +0.093 C 
ENDBRANCH  20  25
ENDBRANCH   1  22
TORSDOF 3
