REMARK  Name = ZINC39448829
REMARK  5 active torsions:
REMARK  status: ('A' for Active; 'I' for Inactive)
REMARK    1  A    between atoms: C_1  and  C_2
REMARK    2  A    between atoms: C_5  and  C_8
REMARK    3  A    between atoms: C_13  and  S_15
REMARK    4  A    between atoms: S_15  and  C_16
REMARK    5  A    between atoms: C_16  and  C_17
REMARK                            x       y       z     vdW  Elec       q    Type
REMARK                         _______ _______ _______ _____ _____    ______ ____
ROOT
ATOM      1  S   UNL     1      -2.934  -4.645   2.640  0.00  0.00    -0.081 S 
ENDROOT
BRANCH   1   6
ATOM      2  C   UNL     1       0.059  -4.275  -0.021  0.00  0.00    +0.200 C 
ATOM      3  N   UNL     1      -0.643  -4.772  -1.210  0.00  0.00    -0.336 N 
ATOM      4  C   UNL     1      -1.916  -5.061  -1.153  0.00  0.00    +0.190 C 
ATOM      5  N   UNL     1      -2.618  -4.960  -0.012  0.00  0.00    -0.195 NA
ATOM      6  C   UNL     1      -2.007  -4.811   1.150  0.00  0.00    +0.159 C 
ATOM      7  N   UNL     1      -0.631  -4.787   1.172  0.00  0.00    -0.300 N 
ATOM      8  N   UNL     1      -2.559  -5.482  -2.299  0.00  0.00    -0.329 N 
ATOM      9  H   UNL     1      -2.067  -5.560  -3.131  0.00  0.00    +0.145 HD
ATOM     10  H   UNL     1      -3.504  -5.700  -2.273  0.00  0.00    +0.145 HD
ATOM     11  H   UNL     1      -0.135  -5.096   1.946  0.00  0.00    +0.150 HD
ATOM     12  H   UNL     1      -0.160  -4.887  -2.043  0.00  0.00    +0.164 HD
BRANCH   2  17
ATOM     13  C   UNL     1      -0.018   1.503   0.010  0.00  0.00    +0.044 C 
ATOM     14  C   UNL     1       0.002  -0.004   0.002  0.00  0.00    -0.050 A 
ATOM     15  C   UNL     1       0.006  -0.689  -1.199  0.00  0.00    +0.004 A 
ATOM     16  C   UNL     1       0.025  -2.071  -1.206  0.00  0.00    +0.007 A 
ATOM     17  C   UNL     1       0.040  -2.768  -0.013  0.00  0.00    -0.007 A 
ATOM     18  C   UNL     1       0.037  -2.084   1.188  0.00  0.00    +0.007 A 
ATOM     19  C   UNL     1       0.023  -0.702   1.195  0.00  0.00    +0.004 A 
ENDBRANCH   2  17
ENDBRANCH   1   6
BRANCH   1  20
ATOM     20  C   UNL     1      -4.662  -4.737   2.094  0.00  0.00    +0.173 C 
BRANCH  20  21
ATOM     21  C   UNL     1      -5.573  -4.606   3.288  0.00  0.00    +0.234 C 
ATOM     22  O   UNL     1      -5.103  -4.465   4.397  0.00  0.00    -0.274 OA
ATOM     23  N   UNL     1      -6.910  -4.646   3.122  0.00  0.00    -0.239 N 
ATOM     24  C   UNL     1      -7.477  -4.815   1.851  0.00  0.00    +0.044 A 
ATOM     25  C   UNL     1      -7.104  -5.934   1.115  0.00  0.00    +0.024 A 
ATOM     26  C   UNL     1      -7.656  -6.171  -0.127  0.00  0.00    +0.002 A 
ATOM     27  C   UNL     1      -8.589  -5.283  -0.630  0.00  0.00    +0.000 A 
ATOM     28  C   UNL     1      -8.947  -4.168   0.092  0.00  0.00    +0.005 A 
ATOM     29  C   UNL     1      -8.385  -3.899   1.343  0.00  0.00    -0.025 A 
ATOM     30  C   UNL     1      -8.820  -2.591   1.962  0.00  0.00    +0.042 C 
ATOM     31  C   UNL     1      -8.132  -2.293   3.283  0.00  0.00    +0.042 C 
ATOM     32  C   UNL     1      -8.457  -3.337   4.321  0.00  0.00    -0.025 A 
ATOM     33  C   UNL     1      -7.778  -4.527   4.216  0.00  0.00    +0.044 A 
ATOM     34  C   UNL     1      -7.964  -5.539   5.142  0.00  0.00    +0.024 A 
ATOM     35  C   UNL     1      -8.872  -5.340   6.169  0.00  0.00    +0.002 A 
ATOM     36  C   UNL     1      -9.577  -4.154   6.261  0.00  0.00    +0.000 A 
ATOM     37  C   UNL     1      -9.371  -3.130   5.328  0.00  0.00    +0.005 A 
ENDBRANCH  20  21
ENDBRANCH   1  20
TORSDOF 4
