REMARK  Name = ZINC41023703
REMARK  4 active torsions:
REMARK  status: ('A' for Active; 'I' for Inactive)
REMARK    1  A    between atoms: C_5  and  C_6
REMARK    2  A    between atoms: C_6  and  S_7
REMARK    3  A    between atoms: S_7  and  C_8
REMARK    4  A    between atoms: C_12  and  N_14
REMARK                            x       y       z     vdW  Elec       q    Type
REMARK                         _______ _______ _______ _____ _____    ______ ____
ROOT
ATOM      1  C   UNL     1      -2.983  -2.470  -1.523  0.00  0.00    +0.192 A 
ATOM      2  N   UNL     1      -3.383  -2.813  -0.307  0.00  0.00    -0.207 NA
ATOM      3  C   UNL     1      -4.397  -3.659  -0.137  0.00  0.00    +0.122 A 
ATOM      4  C   UNL     1      -5.037  -4.184  -1.255  0.00  0.00    +0.086 A 
ATOM      5  C   UNL     1      -4.589  -3.801  -2.516  0.00  0.00    +0.122 A 
ATOM      6  N   UNL     1      -3.573  -2.946  -2.610  0.00  0.00    -0.207 NA
ATOM      7  N   UNL     1      -4.809  -4.013   1.139  0.00  0.00    -0.343 N 
ATOM      8  H   UNL     1      -4.357  -3.643   1.914  0.00  0.00    +0.144 HD
ATOM      9  H   UNL     1      -5.548  -4.630   1.256  0.00  0.00    +0.144 HD
ENDROOT
BRANCH   5  10
ATOM     10  N   UNL     1      -5.196  -4.298  -3.658  0.00  0.00    -0.343 N 
ATOM     11  H   UNL     1      -5.939  -4.918  -3.582  0.00  0.00    +0.144 HD
ATOM     12  H   UNL     1      -4.879  -4.027  -4.534  0.00  0.00    +0.144 HD
ENDBRANCH   5  10
BRANCH   1  13
ATOM     13  S   UNL     1      -1.638  -1.347  -1.699  0.00  0.00    -0.081 S 
BRANCH  13  14
ATOM     14  C   UNL     1      -1.156  -0.969   0.009  0.00  0.00    +0.119 C 
BRANCH  14  19
ATOM     15  C   UNL     1      -0.016   1.351   0.009  0.00  0.00    +0.013 A 
ATOM     16  C   UNL     1       1.183   2.038   0.002  0.00  0.00    +0.023 A 
ATOM     17  C   UNL     1       2.343   1.335  -0.013  0.00  0.00    +0.055 A 
ATOM     18  S   UNL     1       1.753  -0.350  -0.017  0.00  0.00    -0.086 S 
ATOM     19  C   UNL     1       0.002  -0.004   0.002  0.00  0.00    +0.001 A 
ATOM     20 BR   UNL     1       4.123   1.974  -0.027  0.00  0.00    -0.043 Br
ENDBRANCH  14  19
ENDBRANCH  13  14
ENDBRANCH   1  13
TORSDOF 4
