REMARK  Name = ZINC64683658
REMARK  6 active torsions:
REMARK  status: ('A' for Active; 'I' for Inactive)
REMARK    1  A    between atoms: C_9  and  C_12
REMARK    2  A    between atoms: C_12  and  N_13
REMARK    3  A    between atoms: N_16  and  CA_17
REMARK    4  A    between atoms: CA_17  and  CB_19
REMARK    5  A    between atoms: CA_17  and  C_29
REMARK    6  A    between atoms: CB_19  and  CG_20
REMARK                            x       y       z     vdW  Elec       q    Type
REMARK                         _______ _______ _______ _____ _____    ______ ____
ROOT
ATOM      1  N   UNK A   0       4.090  -3.312  -2.438  0.00  0.00    -0.298 N 
ATOM      2  C   UNK A   0       4.317  -3.597  -3.735  0.00  0.00    +0.300 C 
ATOM      3  O   UNK A   0       3.412  -3.517  -4.543  0.00  0.00    -0.253 OA
ATOM      4  N   TRP A   1       5.548  -3.971  -4.137  0.00  0.00    -0.286 N 
ATOM      5  H   UNK A   0       4.812  -3.376  -1.793  0.00  0.00    +0.150 HD
ATOM      6  H   TRP A   1       6.270  -4.035  -3.493  0.00  0.00    +0.151 HD
ENDROOT
BRANCH   1   7
ATOM      7  C   UNK A   0       2.752  -2.906  -2.001  0.00  0.00    +0.122 C 
BRANCH   7  15
ATOM      8  C   UNK A   0      -0.017   1.372   0.010  0.00  0.00    +0.000 A 
ATOM      9  C   UNK A   0       1.161   2.097   0.002  0.00  0.00    +0.001 A 
ATOM     10  C   UNK A   0       2.366   1.421  -0.021  0.00  0.00    +0.015 A 
ATOM     11  C   UNK A   0       2.381   0.038  -0.034  0.00  0.00    +0.013 A 
ATOM     12  C   UNK A   0       1.208  -0.710  -0.011  0.00  0.00    -0.015 A 
ATOM     13  C   UNK A   0       0.002  -0.004   0.002  0.00  0.00    +0.006 A 
ATOM     14  C   UNK A   0       1.372  -2.210   0.015  0.00  0.00    +0.126 C 
ATOM     15  C   UNK A   0       2.765  -2.643  -0.494  0.00  0.00    +0.091 C 
ATOM     16  S   UNK A   0       3.725  -1.127  -0.084  0.00  0.00    -0.118 S 
ATOM     17 CL   UNK A   0       1.160  -2.795   1.707  0.00  0.00    -0.115 Cl
ENDBRANCH   7  15
ENDBRANCH   1   7
BRANCH   4  18
ATOM     18  CA  TRP A   1       5.796  -4.281  -5.548  0.00  0.00    +0.191 C 
BRANCH  18  19
ATOM     19  C   TRP A   1       5.429  -5.718  -5.818  0.00  0.00    +0.376 C 
ATOM     20  O   TRP A   1       5.030  -6.047  -6.922  0.00  0.00    -0.244 OA
ATOM     21  OXT TRP A   1       5.530  -6.550  -4.933  0.00  0.00    -0.244 OA
ENDBRANCH  18  19
BRANCH  18  22
ATOM     22  CB  TRP A   1       7.277  -4.065  -5.865  0.00  0.00    +0.067 C 
BRANCH  22  23
ATOM     23  CG  TRP A   1       7.615  -2.604  -5.712  0.00  0.00    -0.039 C 
ATOM     24  CD2 TRP A   1       8.138  -2.001  -4.621  0.00  0.00    -0.001 A 
ATOM     25  CE3 TRP A   1       8.532  -2.503  -3.299  0.00  0.00    +0.010 A 
ATOM     26  CZ3 TRP A   1       9.036  -1.637  -2.392  0.00  0.00    +0.001 A 
ATOM     27  CH2 TRP A   1       9.192  -0.274  -2.680  0.00  0.00    +0.002 A 
ATOM     28  CZ2 TRP A   1       8.852   0.262  -3.872  0.00  0.00    +0.026 A 
ATOM     29  CE2 TRP A   1       8.312  -0.557  -4.901  0.00  0.00    +0.043 A 
ATOM     30  NE1 TRP A   1       7.913  -0.280  -6.119  0.00  0.00    -0.380 N 
ATOM     31  CD1 TRP A   1       7.445  -1.518  -6.751  0.00  0.00    +0.144 C 
ATOM     32  HE1 TRP A   1       7.928   0.597  -6.533  0.00  0.00    +0.160 HD
ENDBRANCH  22  23
ENDBRANCH  18  22
ENDBRANCH   4  18
TORSDOF 6
