REMARK  Name = ZINC01223245
REMARK  7 active torsions:
REMARK  status: ('A' for Active; 'I' for Inactive)
REMARK    1  A    between atoms: C_1  and  C_2
REMARK    2  A    between atoms: C_6  and  C_28
REMARK    3  A    between atoms: C_10  and  S_16
REMARK    4  A    between atoms: C_14  and  C_15
REMARK    5  A    between atoms: S_16  and  C_17
REMARK    6  A    between atoms: C_17  and  C_18
REMARK    7  A    between atoms: C_25  and  C_27
REMARK                            x       y       z     vdW  Elec       q    Type
REMARK                         _______ _______ _______ _____ _____    ______ ____
ROOT
ATOM      1  C   UNL     1      -1.610   0.084  -2.362  0.00  0.00    +0.044 C 
ATOM      2  C   UNL     1      -1.496  -0.683  -1.070  0.00  0.00    -0.047 A 
ATOM      3  C   UNL     1      -1.614  -2.056  -1.075  0.00  0.00    +0.013 A 
ATOM      4  C   UNL     1      -1.514  -2.764   0.126  0.00  0.00    -0.000 A 
ATOM      5  C   UNL     1      -1.642  -4.224   0.152  0.00  0.00    +0.017 A 
ATOM      6  C   UNL     1      -1.540  -4.873   1.334  0.00  0.00    -0.005 A 
ATOM      7  C   UNL     1      -1.312  -4.151   2.529  0.00  0.00    +0.165 A 
ATOM      8  N   UNL     1      -1.176  -4.532   3.786  0.00  0.00    -0.128 NA
ATOM      9  N   UNL     1      -0.982  -3.505   4.535  0.00  0.00    -0.122 NA
ATOM     10  C   UNL     1      -0.981  -2.408   3.810  0.00  0.00    +0.197 A 
ATOM     11  N   UNL     1      -1.191  -2.779   2.515  0.00  0.00    -0.270 N 
ATOM     12  C   UNL     1      -1.289  -2.072   1.329  0.00  0.00    +0.058 A 
ATOM     13  C   UNL     1      -1.167  -0.689   1.311  0.00  0.00    +0.030 A 
ATOM     14  C   UNL     1      -1.268  -0.004   0.117  0.00  0.00    -0.046 A 
ATOM     15  C   UNL     1      -1.135   1.497   0.104  0.00  0.00    +0.044 C 
ATOM     16  C   UNL     1      -1.670  -6.373   1.378  0.00  0.00    +0.047 C 
ENDROOT
BRANCH  10  17
ATOM     17  S   UNL     1      -0.754  -0.764   4.403  0.00  0.00    -0.076 S 
BRANCH  17  18
ATOM     18  C   UNL     1      -0.544  -1.093   6.170  0.00  0.00    +0.173 C 
BRANCH  18  19
ATOM     19  C   UNL     1      -0.328   0.207   6.901  0.00  0.00    +0.226 C 
ATOM     20  O   UNL     1      -0.318   1.253   6.287  0.00  0.00    -0.275 OA
ATOM     21  N   UNL     1      -0.147   0.207   8.236  0.00  0.00    -0.298 N 
ATOM     22  C   UNL     1      -0.273  -1.036   9.009  0.00  0.00    +0.108 C 
ATOM     23  C   UNL     1      -1.271  -0.817  10.145  0.00  0.00    +0.019 C 
ATOM     24  C   UNL     1      -0.841   0.397  10.972  0.00  0.00    +0.003 C 
ATOM     25  C   UNL     1      -0.835   1.644  10.085  0.00  0.00    +0.022 C 
ATOM     26  C   UNL     1       0.174   1.452   8.948  0.00  0.00    +0.073 C 
ATOM     27  C   UNL     1       0.086   2.634   7.980  0.00  0.00    +0.028 C 
ENDBRANCH  18  19
ENDBRANCH  17  18
ENDBRANCH  10  17
TORSDOF 3
