REMARK  Name = ZINC36109087
REMARK  8 active torsions:
REMARK  status: ('A' for Active; 'I' for Inactive)
REMARK    1  A    between atoms: C_1  and  C_2
REMARK    2  A    between atoms: C_2  and  C_3
REMARK    3  A    between atoms: C_2  and  N_4
REMARK    4  A    between atoms: C_5  and  C_7
REMARK    5  A    between atoms: C_7  and  C_9
REMARK    6  A    between atoms: C_7  and  N_20
REMARK    7  A    between atoms: C_9  and  C_10
REMARK    8  A    between atoms: N_23  and  C_24
REMARK                            x       y       z     vdW  Elec       q    Type
REMARK                         _______ _______ _______ _____ _____    ______ ____
ROOT
ATOM      1  C   UNL     1      -3.053  -2.256  -0.474  0.00  0.00    +0.165 C 
ENDROOT
BRANCH   1   2
ATOM      2  N   UNL     1      -3.082  -3.596  -1.065  0.00  0.00    -0.288 N 
ATOM      3  C   UNL     1      -3.183  -3.742  -2.401  0.00  0.00    +0.304 C 
ATOM      4  O   UNL     1      -3.251  -2.760  -3.116  0.00  0.00    -0.252 OA
ATOM      5  N   UNL     1      -3.209  -4.975  -2.945  0.00  0.00    -0.269 N 
ATOM      6  H   UNL     1      -3.027  -4.379  -0.495  0.00  0.00    +0.151 HD
ATOM      7  H   UNL     1      -3.088  -5.755  -2.382  0.00  0.00    +0.156 HD
BRANCH   5   8
ATOM      8  C   UNL     1      -3.412  -5.128  -4.321  0.00  0.00    +0.035 A 
ATOM      9  C   UNL     1      -4.139  -6.209  -4.801  0.00  0.00    +0.023 A 
ATOM     10  C   UNL     1      -4.338  -6.358  -6.160  0.00  0.00    +0.002 A 
ATOM     11  C   UNL     1      -3.812  -5.432  -7.042  0.00  0.00    +0.000 A 
ATOM     12  C   UNL     1      -3.087  -4.354  -6.567  0.00  0.00    +0.002 A 
ATOM     13  C   UNL     1      -2.890  -4.197  -5.209  0.00  0.00    +0.023 A 
ENDBRANCH   5   8
ENDBRANCH   1   2
BRANCH   1  15
ATOM     14  N   UNL     1      -1.373  -0.504   0.003  0.00  0.00    -0.311 N 
ATOM     15  C   UNL     1      -1.641  -1.728  -0.493  0.00  0.00    +0.234 C 
ATOM     16  O   UNL     1      -0.747  -2.405  -0.955  0.00  0.00    -0.274 OA
ATOM     17  H   UNL     1      -2.088   0.037   0.372  0.00  0.00    +0.149 HD
BRANCH  14  19
ATOM     18  C   UNL     1      -0.028   1.538  -0.007  0.00  0.00    +0.027 C 
ATOM     19  C   UNL     1      -0.001   0.008  -0.016  0.00  0.00    +0.067 C 
ATOM     20  C   UNL     1       0.749  -0.496   1.219  0.00  0.00    +0.027 C 
ENDBRANCH  14  19
ENDBRANCH   1  15
BRANCH   1  21
ATOM     21  C   UNL     1      -3.552  -2.325   0.971  0.00  0.00    +0.069 C 
BRANCH  21  22
ATOM     22  C   UNL     1      -5.002  -2.735   0.982  0.00  0.00    -0.020 A 
ATOM     23  C   UNL     1      -6.064  -1.914   1.025  0.00  0.00    +0.087 A 
ATOM     24  N   UNL     1      -7.220  -2.646   1.022  0.00  0.00    -0.360 N 
ATOM     25  H   UNL     1      -8.115  -2.274   1.048  0.00  0.00    +0.165 HD
ATOM     26  C   UNL     1      -6.923  -3.990   0.976  0.00  0.00    +0.047 A 
ATOM     27  C   UNL     1      -5.521  -4.104   0.943  0.00  0.00    +0.003 A 
ATOM     28  C   UNL     1      -4.926  -5.366   0.887  0.00  0.00    +0.010 A 
ATOM     29  C   UNL     1      -5.710  -6.485   0.862  0.00  0.00    +0.001 A 
ATOM     30  C   UNL     1      -7.093  -6.378   0.890  0.00  0.00    +0.002 A 
ATOM     31  C   UNL     1      -7.701  -5.143   0.954  0.00  0.00    +0.026 A 
ENDBRANCH  21  22
ENDBRANCH   1  21
TORSDOF 6
