REMARK  Name = ZINC35743236
REMARK  12 active torsions:
REMARK  status: ('A' for Active; 'I' for Inactive)
REMARK    1  A    between atoms: C_1  and  C_2
REMARK    2  A    between atoms: C_7  and  O_8
REMARK    3  A    between atoms: O_8  and  C_9
REMARK    4  A    between atoms: C_9  and  C_10
REMARK    5  A    between atoms: C_10  and  C_12
REMARK    6  A    between atoms: C_10  and  O_38
REMARK    7  A    between atoms: C_12  and  N_13
REMARK    8  A    between atoms: N_13  and  C_14
REMARK    9  A    between atoms: N_13  and  C_22
REMARK   10  A    between atoms: C_14  and  C_15
REMARK   11  A    between atoms: C_22  and  C_23
REMARK   12  A    between atoms: C_26  and  C_29
REMARK                            x       y       z     vdW  Elec       q    Type
REMARK                         _______ _______ _______ _____ _____    ______ ____
ROOT
ATOM      1  N   UNL     1      -0.022   0.134   7.465  0.00  0.00    +0.387 N 
ATOM      2  H   UNL     1       0.669   0.843   7.658  0.00  0.00    -0.081 HD
ENDROOT
BRANCH   1   3
ATOM      3  C   UNL     1       0.386  -0.640   6.285  0.00  0.00    -0.043 C 
BRANCH   3   4
ATOM      4  C   UNL     1       0.631   0.310   5.111  0.00  0.00    +0.135 C 
BRANCH   4   5
ATOM      5  O   UNL     1       1.740   1.159   5.409  0.00  0.00    -0.390 OA
ATOM      6  H   UNL     1       2.567   0.684   5.569  0.00  0.00    +0.210 HD
ENDBRANCH   4   5
BRANCH   4   7
ATOM      7  C   UNL     1       0.935  -0.503   3.851  0.00  0.00    +0.258 C 
BRANCH   7   8
ATOM      8  O   UNL     1       1.048   0.377   2.732  0.00  0.00    -0.489 OA
BRANCH   8  15
ATOM      9  C   UNL     1       1.275   2.100   0.505  0.00  0.00    +0.047 C 
ATOM     10  C   UNL     1       1.441   0.607   0.397  0.00  0.00    -0.009 A 
ATOM     11  C   UNL     1       1.722   0.029  -0.827  0.00  0.00    +0.007 A 
ATOM     12  C   UNL     1       1.874  -1.341  -0.927  0.00  0.00    +0.000 A 
ATOM     13  C   UNL     1       1.746  -2.138   0.197  0.00  0.00    +0.004 A 
ATOM     14  C   UNL     1       1.466  -1.565   1.422  0.00  0.00    +0.046 A 
ATOM     15  C   UNL     1       1.318  -0.189   1.526  0.00  0.00    +0.124 A 
ENDBRANCH   8  15
ENDBRANCH   7   8
ENDBRANCH   4   7
ENDBRANCH   3   4
ENDBRANCH   1   3
BRANCH   1  16
ATOM     16  C   UNL     1      -1.319   0.773   7.206  0.00  0.00    -0.043 C 
BRANCH  16  17
ATOM     17  C   UNL     1      -2.342  -0.283   6.872  0.00  0.00    -0.064 A 
ATOM     18  C   UNL     1      -2.498  -0.704   5.564  0.00  0.00    +0.004 A 
ATOM     19  C   UNL     1      -3.435  -1.672   5.257  0.00  0.00    +0.038 A 
ATOM     20  C   UNL     1      -4.218  -2.220   6.259  0.00  0.00    +0.123 A 
ATOM     21  C   UNL     1      -4.060  -1.798   7.568  0.00  0.00    +0.038 A 
ATOM     22  C   UNL     1      -3.119  -0.833   7.874  0.00  0.00    +0.004 A 
ATOM     23  F   UNL     1      -5.134  -3.167   5.960  0.00  0.00    -0.205 F 
ENDBRANCH  16  17
ENDBRANCH   1  16
BRANCH   1  24
ATOM     24  C   UNL     1      -0.141  -0.763   8.622  0.00  0.00    -0.030 C 
BRANCH  24  25
ATOM     25  C   UNL     1      -0.343   0.066   9.892  0.00  0.00    +0.194 C 
ATOM     26  C   UNL     1      -0.475  -0.846  11.134  0.00  0.00    +0.104 C 
ATOM     27  C   UNL     1      -1.526  -0.130  11.960  0.00  0.00    +0.091 C 
ATOM     28  N   UNL     1      -2.120   0.730  11.201  0.00  0.00    -0.089 NA
ATOM     29  O   UNL     1      -1.623   0.730   9.876  0.00  0.00    -0.392 OA
BRANCH  27  30
ATOM     30  C   UNL     1      -1.820  -0.373  13.385  0.00  0.00    +0.003 A 
ATOM     31  C   UNL     1      -1.097  -1.334  14.095  0.00  0.00    +0.013 A 
ATOM     32  C   UNL     1      -1.373  -1.560  15.426  0.00  0.00    +0.050 A 
ATOM     33  C   UNL     1      -2.369  -0.836  16.066  0.00  0.00    +0.166 A 
ATOM     34  C   UNL     1      -3.096   0.125  15.362  0.00  0.00    +0.167 A 
ATOM     35  C   UNL     1      -2.820   0.360  14.029  0.00  0.00    +0.059 A 
ATOM     36  O   UNL     1      -4.006   0.690  16.209  0.00  0.00    -0.453 OA
ATOM     37  C   UNL     1      -4.108  -0.217  17.323  0.00  0.00    +0.466 C 
ATOM     38  O   UNL     1      -2.826  -0.871  17.351  0.00  0.00    -0.453 OA
ENDBRANCH  27  30
ENDBRANCH  24  25
ENDBRANCH   1  24
TORSDOF 11
