REMARK  Name = ZINC20830568
REMARK  10 active torsions:
REMARK  status: ('A' for Active; 'I' for Inactive)
REMARK    1  A    between atoms: C_1  and  C_2
REMARK    2  A    between atoms: C_2  and  C_27
REMARK    3  A    between atoms: C_4  and  N_10
REMARK    4  A    between atoms: C_6  and  C_8
REMARK    5  A    between atoms: C_6  and  C_9
REMARK    6  A    between atoms: C_11  and  C_13
REMARK    7  A    between atoms: C_13  and  S_14
REMARK    8  A    between atoms: S_14  and  C_15
REMARK    9  A    between atoms: C_18  and  C_21
REMARK   10  A    between atoms: N_19  and  N_20
REMARK                            x       y       z     vdW  Elec       q    Type
REMARK                         _______ _______ _______ _____ _____    ______ ____
ROOT
ATOM      1  N   UNL     1       1.537   5.362  -1.061  0.00  0.00    -0.312 N 
ATOM      2  C   UNL     1       1.065   5.899  -2.204  0.00  0.00    +0.224 C 
ATOM      3  O   UNL     1       0.858   5.192  -3.167  0.00  0.00    -0.275 OA
ATOM      4  H   UNL     1       1.725   6.004  -0.188  0.00  0.00    +0.149 HD
ENDROOT
BRANCH   1   8
ATOM      5  C   UNL     1       0.855   1.071  -1.857  0.00  0.00    -0.010 C 
ATOM      6  C   UNL     1       0.768   1.693  -0.459  0.00  0.00    -0.072 C 
ATOM      7  C   UNL     1       0.518   3.193  -0.582  0.00  0.00    +0.009 C 
ATOM      8  C   UNL     1       1.802   3.920  -0.983  0.00  0.00    +0.070 C 
ATOM      9  C   UNL     1       2.858   3.660   0.093  0.00  0.00    +0.009 C 
ATOM     10  C   UNL     1       3.148   2.163   0.187  0.00  0.00    -0.072 C 
ATOM     11  N   UNL     1       1.941   1.374   0.330  0.00  0.00    +0.386 N 
ATOM     12  C   UNL     1       4.023   1.937   1.440  0.00  0.00    -0.010 C 
ATOM     13  C   UNL     1       3.967   1.718  -1.028  0.00  0.00    -0.010 C 
ATOM     14  C   UNL     1      -0.463   1.073   0.240  0.00  0.00    -0.010 C 
ATOM     15  H   UNL     1       1.696   1.455   1.399  0.00  0.00    -0.084 HD
ATOM     16  H   UNL     1       2.266   0.348   0.105  0.00  0.00    -0.084 HD
ENDBRANCH   1   8
BRANCH   2  17
ATOM     17  C   UNL     1       0.793   7.380  -2.284  0.00  0.00    +0.173 C 
BRANCH  17  18
ATOM     18  S   UNL     1       0.172   7.790  -3.933  0.00  0.00    -0.075 S 
BRANCH  18  19
ATOM     19  C   UNL     1      -0.054   9.528  -3.751  0.00  0.00    +0.209 A 
ATOM     20  N   UNL     1       0.186  10.237  -2.670  0.00  0.00    -0.121 NA
ATOM     21  N   UNL     1      -0.085  11.475  -2.884  0.00  0.00    -0.127 NA
ATOM     22  C   UNL     1      -0.523  11.631  -4.112  0.00  0.00    +0.182 A 
ATOM     23  N   UNL     1      -0.517  10.388  -4.704  0.00  0.00    -0.224 N 
BRANCH  22  24
ATOM     24  C   UNL     1      -0.944  12.901  -4.740  0.00  0.00    +0.024 A 
ATOM     25  C   UNL     1      -0.592  14.133  -4.176  0.00  0.00    +0.031 A 
ATOM     26  C   UNL     1      -1.001  15.294  -4.798  0.00  0.00    +0.111 A 
ATOM     27  N   UNL     1      -1.722  15.253  -5.903  0.00  0.00    -0.263 NA
ATOM     28  C   UNL     1      -2.080  14.113  -6.464  0.00  0.00    +0.111 A 
ATOM     29  C   UNL     1      -1.710  12.905  -5.912  0.00  0.00    +0.031 A 
ENDBRANCH  22  24
BRANCH  23  30
ATOM     30  N   UNL     1      -0.895  10.081  -5.980  0.00  0.00    -0.295 N 
ATOM     31  H   UNL     1      -1.252  10.873  -6.654  0.00  0.00    +0.163 HD
ATOM     32  H   UNL     1      -0.842   9.040  -6.334  0.00  0.00    +0.163 HD
ENDBRANCH  23  30
ENDBRANCH  18  19
ENDBRANCH  17  18
ENDBRANCH   2  17
TORSDOF 6
