REMARK  Name = ZINC08824254
REMARK  10 active torsions:
REMARK  status: ('A' for Active; 'I' for Inactive)
REMARK    1  A    between atoms: C_1  and  C_2
REMARK    2  A    between atoms: C_2  and  C_34
REMARK    3  A    between atoms: C_3  and  C_4
REMARK    4  A    between atoms: N_6  and  C_7
REMARK    5  A    between atoms: C_8  and  C_18
REMARK    6  A    between atoms: C_9  and  C_12
REMARK    7  A    between atoms: C_18  and  O_20
REMARK    8  A    between atoms: O_20  and  C_21
REMARK    9  A    between atoms: C_21  and  C_22
REMARK   10  A    between atoms: N_24  and  C_25
REMARK                            x       y       z     vdW  Elec       q    Type
REMARK                         _______ _______ _______ _____ _____    ______ ____
ROOT
ATOM      1  C   UNL     1      -4.209  -5.578   0.599  0.00  0.00    +0.087 A 
ATOM      2  C   UNL     1      -4.274  -4.763  -0.525  0.00  0.00    +0.095 A 
ATOM      3  C   UNL     1      -4.119  -5.414  -1.812  0.00  0.00    +0.005 A 
ATOM      4  C   UNL     1      -3.929  -6.758  -1.798  0.00  0.00    +0.056 A 
ATOM      5  S   UNL     1      -3.958  -7.157  -0.063  0.00  0.00    -0.080 S 
ENDROOT
BRANCH   3   6
ATOM      6  C   UNL     1      -4.165  -4.648  -3.081  0.00  0.00    -0.017 A 
ATOM      7  C   UNL     1      -5.215  -3.766  -3.328  0.00  0.00    +0.008 A 
ATOM      8  C   UNL     1      -5.250  -3.051  -4.508  0.00  0.00    +0.001 A 
ATOM      9  C   UNL     1      -4.251  -3.219  -5.450  0.00  0.00    +0.000 A 
ATOM     10  C   UNL     1      -3.209  -4.097  -5.213  0.00  0.00    +0.001 A 
ATOM     11  C   UNL     1      -3.160  -4.812  -4.034  0.00  0.00    +0.008 A 
ENDBRANCH   3   6
BRANCH   1  14
ATOM     12  C   UNL     1      -4.230  -6.150   2.894  0.00  0.00    +0.241 C 
ATOM     13  O   UNL     1      -4.052  -7.315   2.596  0.00  0.00    -0.270 OA
ATOM     14  N   UNL     1      -4.320  -5.213   1.929  0.00  0.00    -0.276 N 
ATOM     15  H   UNL     1      -4.462  -4.284   2.167  0.00  0.00    +0.156 HD
BRANCH  12  18
ATOM     16  C   UNL     1      -4.039  -8.132   4.890  0.00  0.00    +0.039 C 
ATOM     17  C   UNL     1      -4.259  -6.687   5.260  0.00  0.00    -0.071 C 
ATOM     18  C   UNL     1      -4.348  -5.763   4.308  0.00  0.00    +0.066 C 
ATOM     19  C   UNL     1      -4.380  -6.290   6.709  0.00  0.00    +0.039 C 
ENDBRANCH  12  18
ENDBRANCH   1  14
BRANCH   2  20
ATOM     20  C   UNL     1      -4.483  -3.320  -0.415  0.00  0.00    +0.343 C 
ATOM     21  O   UNL     1      -5.612  -2.866  -0.421  0.00  0.00    -0.245 OA
BRANCH  20  22
ATOM     22  O   UNL     1      -3.424  -2.491  -0.307  0.00  0.00    -0.452 OA
BRANCH  22  23
ATOM     23  C   UNL     1      -3.707  -1.071  -0.202  0.00  0.00    +0.328 C 
BRANCH  23  24
ATOM     24  C   UNL     1      -2.412  -0.308  -0.090  0.00  0.00    +0.255 C 
ATOM     25  O   UNL     1      -1.355  -0.903  -0.098  0.00  0.00    -0.272 OA
ATOM     26  N   UNL     1      -2.428   1.035   0.019  0.00  0.00    -0.283 N 
ATOM     27  H   UNL     1      -3.273   1.505   0.103  0.00  0.00    +0.155 HD
BRANCH  26  28
ATOM     28  C   UNL     1      -1.225   1.753   0.012  0.00  0.00    +0.037 A 
ATOM     29  C   UNL     1      -0.152   1.303  -0.747  0.00  0.00    +0.027 A 
ATOM     30  C   UNL     1       1.033   2.013  -0.760  0.00  0.00    +0.051 A 
ATOM     31  C   UNL     1       1.156   3.173  -0.012  0.00  0.00    +0.166 A 
ATOM     32  C   UNL     1       0.084   3.624   0.754  0.00  0.00    +0.168 A 
ATOM     33  C   UNL     1      -1.103   2.912   0.767  0.00  0.00    +0.072 A 
ATOM     34  O   UNL     1       0.455   4.774   1.389  0.00  0.00    -0.453 OA
ATOM     35  C   UNL     1       1.621   5.243   0.687  0.00  0.00    +0.466 C 
ATOM     36  O   UNL     1       2.199   4.042   0.144  0.00  0.00    -0.453 OA
ENDBRANCH  26  28
ENDBRANCH  23  24
ENDBRANCH  22  23
ENDBRANCH  20  22
ENDBRANCH   2  20
TORSDOF 8
