REMARK  Name = ZINC65592963
REMARK  9 active torsions:
REMARK  status: ('A' for Active; 'I' for Inactive)
REMARK    1  A    between atoms: C_1  and  C_2
REMARK    2  A    between atoms: C_2  and  C_3
REMARK    3  A    between atoms: C_3  and  C_4
REMARK    4  A    between atoms: C_4  and  C_5
REMARK    5  A    between atoms: C_5  and  C_6
REMARK    6  A    between atoms: C_5  and  N_23
REMARK    7  A    between atoms: N_8  and  C_9
REMARK    8  A    between atoms: N_12  and  C_15
REMARK    9  A    between atoms: C_15  and  C_16
REMARK                            x       y       z     vdW  Elec       q    Type
REMARK                         _______ _______ _______ _____ _____    ______ ____
ROOT
ATOM      1  C   UNL     1       1.369  -4.024  -2.595  0.00  0.00    +0.234 C 
ATOM      2  O   UNL     1       2.312  -4.702  -2.247  0.00  0.00    -0.274 OA
ATOM      3  N   UNL     1       0.243  -4.613  -3.045  0.00  0.00    -0.311 N 
ATOM      4  H   UNL     1      -0.511  -4.071  -3.323  0.00  0.00    +0.149 HD
ENDROOT
BRANCH   3   5
ATOM      5  C   UNL     1       0.159  -6.074  -3.113  0.00  0.00    +0.069 C 
ATOM      6  C   UNL     1       0.756  -6.560  -4.437  0.00  0.00    +0.003 C 
ATOM      7  C   UNL     1       0.593  -8.078  -4.537  0.00  0.00    -0.077 C 
ATOM      8  N   UNL     1      -0.832  -8.425  -4.485  0.00  0.00    +0.382 N 
ATOM      9  C   UNL     1      -1.394  -8.027  -3.189  0.00  0.00    -0.077 C 
ATOM     10  C   UNL     1      -1.308  -6.507  -3.037  0.00  0.00    +0.003 C 
ATOM     11  H   UNL     1      -1.321  -7.945  -5.225  0.00  0.00    -0.081 HD
BRANCH   8  12
ATOM     12  C   UNL     1      -0.988  -9.876  -4.660  0.00  0.00    -0.043 C 
BRANCH  12  13
ATOM     13  C   UNL     1      -2.453 -10.219  -4.730  0.00  0.00    -0.064 A 
ATOM     14  C   UNL     1      -3.150 -10.511  -3.572  0.00  0.00    +0.004 A 
ATOM     15  C   UNL     1      -4.494 -10.825  -3.634  0.00  0.00    +0.038 A 
ATOM     16  C   UNL     1      -5.144 -10.847  -4.857  0.00  0.00    +0.123 A 
ATOM     17  C   UNL     1      -4.445 -10.554  -6.016  0.00  0.00    +0.038 A 
ATOM     18  C   UNL     1      -3.102 -10.235  -5.950  0.00  0.00    +0.004 A 
ATOM     19  F   UNL     1      -6.458 -11.155  -4.920  0.00  0.00    -0.205 F 
ENDBRANCH  12  13
ENDBRANCH   8  12
ENDBRANCH   3   5
BRANCH   1  20
ATOM     20  C   UNL     1       1.455  -2.521  -2.524  0.00  0.00    +0.160 C 
BRANCH  20  21
ATOM     21  N   UNL     1       2.862  -2.114  -2.477  0.00  0.00    -0.288 N 
ATOM     22  C   UNL     1       3.651  -2.534  -1.468  0.00  0.00    +0.298 C 
ATOM     23  O   UNL     1       3.195  -3.249  -0.597  0.00  0.00    -0.253 OA
ATOM     24  N   UNL     1       4.945  -2.160  -1.424  0.00  0.00    -0.313 N 
ATOM     25  H   UNL     1       3.225  -1.543  -3.171  0.00  0.00    +0.151 HD
ATOM     26  H   UNL     1       5.309  -1.589  -2.119  0.00  0.00    +0.146 HD
ATOM     27  H   UNL     1       5.513  -2.462  -0.698  0.00  0.00    +0.146 HD
ENDBRANCH  20  21
BRANCH  20  28
ATOM     28  C   UNL     1       0.739  -2.027  -1.265  0.00  0.00    +0.032 C 
BRANCH  28  29
ATOM     29  C   UNL     1       0.718  -0.497  -1.257  0.00  0.00    +0.002 C 
BRANCH  29  31
ATOM     30  C   UNL     1      -0.019   1.526   0.010  0.00  0.00    +0.004 C 
ATOM     31  C   UNL     1       0.002  -0.004   0.002  0.00  0.00    -0.003 C 
ENDBRANCH  29  31
ENDBRANCH  28  29
ENDBRANCH  20  28
ENDBRANCH   1  20
TORSDOF 8
