REMARK  Name = ZINC32622204
REMARK  10 active torsions:
REMARK  status: ('A' for Active; 'I' for Inactive)
REMARK    1  A    between atoms: C_1  and  O_2
REMARK    2  A    between atoms: O_2  and  C_3
REMARK    3  A    between atoms: C_6  and  C_11
REMARK    4  A    between atoms: C_8  and  O_9
REMARK    5  A    between atoms: O_9  and  C_10
REMARK    6  A    between atoms: C_11  and  C_13
REMARK    7  A    between atoms: C_11  and  N_29
REMARK    8  A    between atoms: C_13  and  N_14
REMARK    9  A    between atoms: C_15  and  C_17
REMARK   10  A    between atoms: C_19  and  C_22
REMARK                            x       y       z     vdW  Elec       q    Type
REMARK                         _______ _______ _______ _____ _____    ______ ____
ROOT
ATOM      1  C   UNL     1       5.865  -2.488   0.057  0.00  0.00    -0.020 C 
ENDROOT
BRANCH   1   2
ATOM      2  N   UNL     1       5.256  -3.793  -0.236  0.00  0.00    +0.385 N 
ATOM      3  C   UNL     1       6.117  -4.890   0.224  0.00  0.00    -0.078 C 
ATOM      4  C   UNL     1       5.389  -6.223   0.036  0.00  0.00    -0.019 C 
ATOM      5  C   UNL     1       5.044  -6.407  -1.444  0.00  0.00    -0.004 C 
ATOM      6  C   UNL     1       4.187  -5.226  -1.910  0.00  0.00    -0.019 C 
ATOM      7  C   UNL     1       4.949  -3.922  -1.666  0.00  0.00    -0.078 C 
ATOM      8  H   UNL     1       4.307  -3.856   0.318  0.00  0.00    -0.081 HD
ENDBRANCH   1   2
BRANCH   1  12
ATOM      9  C   UNL     1       9.200  -1.859  -2.545  0.00  0.00    +0.161 A 
ATOM     10  C   UNL     1       7.908  -1.795  -3.042  0.00  0.00    +0.049 A 
ATOM     11  C   UNL     1       6.832  -2.004  -2.200  0.00  0.00    +0.006 A 
ATOM     12  C   UNL     1       7.041  -2.267  -0.859  0.00  0.00    -0.056 A 
ATOM     13  C   UNL     1       8.328  -2.332  -0.356  0.00  0.00    +0.051 A 
ATOM     14  C   UNL     1       9.411  -2.128  -1.196  0.00  0.00    +0.162 A 
BRANCH   9  16
ATOM     15  C   UNL     1       9.968  -1.386  -4.746  0.00  0.00    +0.277 C 
ATOM     16  O   UNL     1      10.259  -1.659  -3.374  0.00  0.00    -0.491 OA
ENDBRANCH   9  16
BRANCH  14  17
ATOM     17  O   UNL     1      10.677  -2.192  -0.704  0.00  0.00    -0.491 OA
ATOM     18  C   UNL     1      10.817  -2.472   0.690  0.00  0.00    +0.277 C 
ENDBRANCH  14  17
ENDBRANCH   1  12
BRANCH   1  19
ATOM     19  C   UNL     1       4.831  -1.382  -0.165  0.00  0.00    +0.094 C 
BRANCH  19  20
ATOM     20  N   UNL     1       3.646  -1.651   0.653  0.00  0.00    -0.311 N 
ATOM     21  C   UNL     1       2.636  -0.758   0.690  0.00  0.00    +0.266 C 
ATOM     22  O   UNL     1       2.709   0.269   0.046  0.00  0.00    -0.268 OA
ATOM     23  H   UNL     1       3.579  -2.581   1.236  0.00  0.00    +0.149 HD
BRANCH  21  24
ATOM     24  C   UNL     1       1.436  -1.031   1.518  0.00  0.00    +0.168 A 
ATOM     25  C   UNL     1       0.295  -0.199   1.663  0.00  0.00    +0.086 A 
ATOM     26  C   UNL     1      -0.511  -0.895   2.520  0.00  0.00    +0.168 A 
ATOM     27  O   UNL     1       0.147  -2.029   2.820  0.00  0.00    -0.354 OA
ATOM     28  N   UNL     1       1.216  -2.088   2.261  0.00  0.00    -0.073 NA
BRANCH  26  29
ATOM     29  C   UNL     1      -1.843  -0.486   3.013  0.00  0.00    +0.020 A 
ATOM     30  C   UNL     1      -2.395   0.732   2.612  0.00  0.00    +0.013 A 
ATOM     31  C   UNL     1      -3.641   1.105   3.071  0.00  0.00    +0.021 A 
ATOM     32  C   UNL     1      -4.339   0.280   3.936  0.00  0.00    +0.041 A 
ATOM     33  C   UNL     1      -3.794  -0.927   4.342  0.00  0.00    +0.021 A 
ATOM     34  C   UNL     1      -2.551  -1.314   3.885  0.00  0.00    +0.013 A 
ATOM     35 CL   UNL     1      -5.903   0.761   4.516  0.00  0.00    -0.084 Cl
ENDBRANCH  26  29
ENDBRANCH  21  24
ENDBRANCH  19  20
ENDBRANCH   1  19
TORSDOF 8
