REMARK  Name = ZINC32740345
REMARK  11 active torsions:
REMARK  status: ('A' for Active; 'I' for Inactive)
REMARK    1  A    between atoms: C_1  and  C_2
REMARK    2  A    between atoms: N_5  and  C_11
REMARK    3  A    between atoms: C_7  and  C_10
REMARK    4  A    between atoms: C_11  and  C_12
REMARK    5  A    between atoms: C_15  and  C_18
REMARK    6  A    between atoms: N_20  and  C_21
REMARK    7  A    between atoms: C_21  and  C_22
REMARK    8  A    between atoms: C_25  and  N_28
REMARK    9  A    between atoms: N_31  and  C_32
REMARK   10  A    between atoms: C_32  and  C_33
REMARK   11  A    between atoms: C_32  and  C_34
REMARK                            x       y       z     vdW  Elec       q    Type
REMARK                         _______ _______ _______ _____ _____    ______ ____
ROOT
ATOM      1  C   UNL     1      -2.480  -8.237  -0.600  0.00  0.00    +0.244 C 
ATOM      2  O   UNL     1      -2.456  -8.714  -1.718  0.00  0.00    -0.270 OA
ATOM      3  N   UNL     1      -2.438  -9.046   0.478  0.00  0.00    -0.307 N 
ATOM      4  H   UNL     1      -2.457  -8.665   1.370  0.00  0.00    +0.149 HD
ENDROOT
BRANCH   1   8
ATOM      5  C   UNL     1      -2.695  -4.026  -0.090  0.00  0.00    -0.033 A 
ATOM      6  C   UNL     1      -2.668  -4.565  -1.364  0.00  0.00    +0.005 A 
ATOM      7  C   UNL     1      -2.598  -5.932  -1.536  0.00  0.00    +0.013 A 
ATOM      8  C   UNL     1      -2.554  -6.772  -0.422  0.00  0.00    +0.037 A 
ATOM      9  C   UNL     1      -2.582  -6.221   0.860  0.00  0.00    +0.013 A 
ATOM     10  C   UNL     1      -2.647  -4.853   1.019  0.00  0.00    +0.005 A 
BRANCH   5  11
ATOM     11  C   UNL     1      -2.772  -2.532   0.091  0.00  0.00    +0.119 C 
BRANCH  11  15
ATOM     12  C   UNL     1      -0.035   1.559   0.093  0.00  0.00    +0.039 C 
ATOM     13  C   UNL     1      -0.010   0.029   0.077  0.00  0.00    +0.130 C 
ATOM     14  C   UNL     1      -1.444  -0.506   0.081  0.00  0.00    +0.116 C 
ATOM     15  N   UNL     1      -1.414  -1.975   0.143  0.00  0.00    -0.293 NA
ATOM     16  C   UNL     1      -0.703  -2.430   1.347  0.00  0.00    +0.116 C 
ATOM     17  C   UNL     1       0.724  -1.876   1.331  0.00  0.00    +0.130 C 
ATOM     18  O   UNL     1       0.676  -0.450   1.238  0.00  0.00    -0.371 OA
ATOM     19  C   UNL     1       1.478  -2.441   0.126  0.00  0.00    +0.039 C 
ENDBRANCH  11  15
ENDBRANCH   5  11
ENDBRANCH   1   8
BRANCH   3  20
ATOM     20  C   UNL     1      -2.364 -10.498   0.302  0.00  0.00    +0.139 C 
BRANCH  20  21
ATOM     21  C   UNL     1      -2.329 -11.167   1.652  0.00  0.00    -0.030 A 
ATOM     22  C   UNL     1      -1.116 -11.406   2.272  0.00  0.00    +0.007 A 
ATOM     23  C   UNL     1      -1.081 -12.019   3.509  0.00  0.00    +0.023 A 
ATOM     24  C   UNL     1      -2.265 -12.394   4.131  0.00  0.00    +0.035 A 
ATOM     25  C   UNL     1      -3.481 -12.152   3.505  0.00  0.00    +0.023 A 
ATOM     26  C   UNL     1      -3.510 -11.534   2.271  0.00  0.00    +0.007 A 
BRANCH  24  27
ATOM     27  N   UNL     1      -2.232 -13.015   5.384  0.00  0.00    -0.269 N 
ATOM     28  C   UNL     1      -1.230 -13.862   5.691  0.00  0.00    +0.304 C 
ATOM     29  O   UNL     1      -0.309 -14.022   4.913  0.00  0.00    -0.253 OA
ATOM     30  N   UNL     1      -1.247 -14.531   6.861  0.00  0.00    -0.297 N 
ATOM     31  H   UNL     1      -2.932 -12.837   6.032  0.00  0.00    +0.156 HD
ATOM     32  H   UNL     1      -1.981 -14.404   7.482  0.00  0.00    +0.151 HD
BRANCH  30  33
ATOM     33  C   UNL     1      -0.157 -15.452   7.194  0.00  0.00    +0.068 C 
ATOM     34  C   UNL     1      -0.055 -15.591   8.714  0.00  0.00    +0.027 C 
ATOM     35  C   UNL     1      -0.439 -16.822   6.574  0.00  0.00    +0.027 C 
ENDBRANCH  30  33
ENDBRANCH  24  27
ENDBRANCH  20  21
ENDBRANCH   3  20
TORSDOF 7
