REMARK  Name = ZINC09586960
REMARK  14 active torsions:
REMARK  status: ('A' for Active; 'I' for Inactive)
REMARK    1  A    between atoms: C_1  and  C_2
REMARK    2  A    between atoms: C_2  and  C_3
REMARK    3  A    between atoms: C_2  and  N_4
REMARK    4  A    between atoms: C_5  and  C_7
REMARK    5  A    between atoms: C_7  and  O_8
REMARK    6  A    between atoms: O_8  and  C_9
REMARK    7  A    between atoms: C_9  and  C_11
REMARK    8  A    between atoms: C_24  and  C_25
REMARK    9  A    between atoms: C_27  and  O_35
REMARK   10  A    between atoms: C_28  and  O_33
REMARK   11  A    between atoms: C_29  and  O_31
REMARK   12  A    between atoms: O_31  and  C_32
REMARK   13  A    between atoms: O_33  and  C_34
REMARK   14  A    between atoms: O_35  and  C_36
REMARK                            x       y       z     vdW  Elec       q    Type
REMARK                         _______ _______ _______ _____ _____    ______ ____
ROOT
ATOM      1  C   UNL     1       1.167   2.152  -0.016  0.00  0.00    +0.073 A 
ATOM      2  C   UNL     1       1.830   2.518  -1.268  0.00  0.00    +0.015 A 
ATOM      3  C   UNL     1       1.259   2.230  -2.511  0.00  0.00    +0.011 A 
ATOM      4  C   UNL     1       1.913   2.590  -3.653  0.00  0.00    +0.001 A 
ATOM      5  C   UNL     1       3.144   3.240  -3.594  0.00  0.00    +0.002 A 
ATOM      6  C   UNL     1       3.727   3.535  -2.401  0.00  0.00    +0.028 A 
ATOM      7  C   UNL     1       3.082   3.180  -1.201  0.00  0.00    +0.072 A 
ATOM      8  N   UNL     1       3.628   3.454  -0.019  0.00  0.00    -0.247 NA
ATOM      9  C   UNL     1       3.051   3.135   1.135  0.00  0.00    +0.072 A 
ATOM     10  C   UNL     1       1.807   2.483   1.169  0.00  0.00    -0.007 A 
ATOM     11  C   UNL     1       1.397   2.241   2.601  0.00  0.00    +0.043 C 
ATOM     12  C   UNL     1       2.517   2.823   3.474  0.00  0.00    +0.042 C 
ATOM     13  C   UNL     1       3.536   3.374   2.509  0.00  0.00    -0.021 C 
ATOM     14  C   UNL     1       4.689   3.981   2.842  0.00  0.00    +0.014 C 
ENDROOT
BRANCH  14  15
ATOM     15  C   UNL     1       4.986   4.272   4.255  0.00  0.00    -0.018 A 
ATOM     16  C   UNL     1       4.155   3.773   5.262  0.00  0.00    +0.057 A 
ATOM     17  C   UNL     1       4.441   4.043   6.588  0.00  0.00    +0.166 A 
ATOM     18  C   UNL     1       5.546   4.821   6.919  0.00  0.00    +0.204 A 
ATOM     19  C   UNL     1       6.372   5.324   5.918  0.00  0.00    +0.166 A 
ATOM     20  C   UNL     1       6.096   5.053   4.591  0.00  0.00    +0.057 A 
BRANCH  19  21
ATOM     21  O   UNL     1       7.452   6.083   6.246  0.00  0.00    -0.491 OA
ATOM     22  C   UNL     1       8.256   6.567   5.168  0.00  0.00    +0.277 C 
ENDBRANCH  19  21
BRANCH  18  23
ATOM     23  O   UNL     1       5.821   5.090   8.224  0.00  0.00    -0.488 OA
ATOM     24  C   UNL     1       5.233   6.267   8.781  0.00  0.00    +0.277 C 
ENDBRANCH  18  23
BRANCH  17  25
ATOM     25  O   UNL     1       3.637   3.552   7.569  0.00  0.00    -0.491 OA
ATOM     26  C   UNL     1       2.520   2.761   7.158  0.00  0.00    +0.277 C 
ENDBRANCH  17  25
ENDBRANCH  14  15
BRANCH   1  27
ATOM     27  C   UNL     1      -0.140   1.461  -0.015  0.00  0.00    +0.341 C 
ATOM     28  O   UNL     1      -0.185   0.248  -0.025  0.00  0.00    -0.245 OA
BRANCH  27  29
ATOM     29  O   UNL     1      -1.281   2.178  -0.007  0.00  0.00    -0.452 OA
BRANCH  29  30
ATOM     30  C   UNL     1      -2.527   1.433  -0.012  0.00  0.00    +0.328 C 
BRANCH  30  32
ATOM     31  N   UNL     1      -4.951   1.926  -0.004  0.00  0.00    -0.310 N 
ATOM     32  C   UNL     1      -3.687   2.395  -0.002  0.00  0.00    +0.251 C 
ATOM     33  O   UNL     1      -3.484   3.590   0.008  0.00  0.00    -0.272 OA
ATOM     34  H   UNL     1      -5.114   0.970  -0.013  0.00  0.00    +0.149 HD
BRANCH  31  36
ATOM     35  C   UNL     1      -6.393   3.296  -1.428  0.00  0.00    +0.027 C 
ATOM     36  C   UNL     1      -6.079   2.861   0.005  0.00  0.00    +0.067 C 
ATOM     37  C   UNL     1      -7.305   2.175   0.610  0.00  0.00    +0.027 C 
ENDBRANCH  31  36
ENDBRANCH  30  32
ENDBRANCH  29  30
ENDBRANCH  27  29
ENDBRANCH   1  27
TORSDOF 9
