REMARK  Name = ZINC35071974
REMARK  13 active torsions:
REMARK  status: ('A' for Active; 'I' for Inactive)
REMARK    1  A    between atoms: C_1  and  C_2
REMARK    2  A    between atoms: C_2  and  C_3
REMARK    3  A    between atoms: C_3  and  N_4
REMARK    4  A    between atoms: N_4  and  C_5
REMARK    5  A    between atoms: C_5  and  C_7
REMARK    6  A    between atoms: C_5  and  C_8
REMARK    7  A    between atoms: N_18  and  C_19
REMARK    8  A    between atoms: C_21  and  C_26
REMARK    9  A    between atoms: C_24  and  C_25
REMARK   10  A    between atoms: N_29  and  C_30
REMARK   11  A    between atoms: C_30  and  C_31
REMARK   12  A    between atoms: C_30  and  C_32
REMARK   13  A    between atoms: C_30  and  C_33
REMARK                            x       y       z     vdW  Elec       q    Type
REMARK                         _______ _______ _______ _____ _____    ______ ____
ROOT
ATOM      1  C   UNL     1       3.162  -2.098   1.146  0.00  0.00    +0.138 A 
ATOM      2  N   UNL     1       3.280  -0.805   1.127  0.00  0.00    -0.231 NA
ATOM      3  C   UNL     1       4.170  -0.160   1.922  0.00  0.00    +0.078 A 
ATOM      4  C   UNL     1       4.297   1.230   1.902  0.00  0.00    +0.028 A 
ATOM      5  C   UNL     1       5.213   1.843   2.727  0.00  0.00    +0.002 A 
ATOM      6  C   UNL     1       6.014   1.096   3.581  0.00  0.00    +0.001 A 
ATOM      7  C   UNL     1       5.907  -0.277   3.618  0.00  0.00    +0.015 A 
ATOM      8  C   UNL     1       4.986  -0.917   2.792  0.00  0.00    +0.065 A 
ATOM      9  C   UNL     1       4.828  -2.379   2.790  0.00  0.00    +0.266 A 
ATOM     10  O   UNL     1       5.500  -3.089   3.515  0.00  0.00    -0.267 OA
ATOM     11  N   UNL     1       3.902  -2.904   1.954  0.00  0.00    -0.263 N 
ENDROOT
BRANCH  11  12
ATOM     12  C   UNL     1       3.707  -4.291   1.917  0.00  0.00    +0.054 A 
ATOM     13  C   UNL     1       4.362  -5.060   0.964  0.00  0.00    +0.030 A 
ATOM     14  C   UNL     1       4.169  -6.427   0.930  0.00  0.00    -0.048 A 
ATOM     15  C   UNL     1       3.324  -7.030   1.844  0.00  0.00    +0.004 A 
ATOM     16  C   UNL     1       2.670  -6.267   2.793  0.00  0.00    +0.005 A 
ATOM     17  C   UNL     1       2.864  -4.900   2.836  0.00  0.00    -0.026 A 
ATOM     18  C   UNL     1       2.156  -4.070   3.876  0.00  0.00    +0.046 C 
ATOM     19  C   UNL     1       4.879  -7.262  -0.104  0.00  0.00    +0.044 C 
ENDBRANCH  11  12
BRANCH   1  20
ATOM     20  C   UNL     1       2.150  -2.737   0.230  0.00  0.00    +0.141 C 
ATOM     21  C   UNL     1       2.404  -2.281  -1.208  0.00  0.00    +0.036 C 
BRANCH  20  22
ATOM     22  N   UNL     1       0.801  -2.336   0.638  0.00  0.00    -0.276 N 
ATOM     23  C   UNL     1      -0.097  -3.271   1.008  0.00  0.00    +0.303 C 
ATOM     24  O   UNL     1       0.212  -4.446   1.003  0.00  0.00    -0.253 OA
ATOM     25  N   UNL     1      -1.338  -2.902   1.383  0.00  0.00    -0.294 N 
ATOM     26  H   UNL     1      -1.585  -1.964   1.387  0.00  0.00    +0.151 HD
BRANCH  25  27
ATOM     27  C   UNL     1      -2.314  -3.918   1.785  0.00  0.00    +0.028 C 
ATOM     28  C   UNL     1      -1.777  -4.691   2.991  0.00  0.00    +0.031 C 
ATOM     29  C   UNL     1      -3.632  -3.238   2.160  0.00  0.00    +0.031 C 
ATOM     30  C   UNL     1      -2.551  -4.885   0.624  0.00  0.00    +0.031 C 
ENDBRANCH  25  27
BRANCH  22  31
ATOM     31  C   UNL     1       0.428  -0.919   0.644  0.00  0.00    +0.110 C 
BRANCH  31  33
ATOM     32  C   UNL     1      -0.538   0.942  -0.715  0.00  0.00    +0.005 C 
ATOM     33  C   UNL     1      -0.148  -0.538  -0.721  0.00  0.00    +0.016 C 
ENDBRANCH  31  33
ENDBRANCH  22  31
ENDBRANCH  20  22
ENDBRANCH   1  20
TORSDOF 6
