REMARK  Name = ZINC30973596
REMARK  10 active torsions:
REMARK  status: ('A' for Active; 'I' for Inactive)
REMARK    1  A    between atoms: C_1  and  C_2
REMARK    2  A    between atoms: C_7  and  C_8
REMARK    3  A    between atoms: C_10  and  C_13
REMARK    4  A    between atoms: C_13  and  N_14
REMARK    5  A    between atoms: C_17  and  C_20
REMARK    6  A    between atoms: N_22  and  C_23
REMARK    7  A    between atoms: C_23  and  C_24
REMARK    8  A    between atoms: C_24  and  C_25
REMARK    9  A    between atoms: C_25  and  S_26
REMARK   10  A    between atoms: S_26  and  C_27
REMARK                            x       y       z     vdW  Elec       q    Type
REMARK                         _______ _______ _______ _____ _____    ______ ____
ROOT
ATOM      1  N   UNL     1      -1.602  -1.204  -1.374  0.00  0.00    +0.386 N 
ATOM      2  C   UNL     1      -2.082   0.009  -2.046  0.00  0.00    -0.077 C 
ATOM      3  C   UNL     1      -2.355  -0.296  -3.520  0.00  0.00    -0.006 C 
ATOM      4  C   UNL     1      -3.405  -1.407  -3.620  0.00  0.00    +0.071 C 
ATOM      5  C   UNL     1      -2.900  -2.644  -2.871  0.00  0.00    -0.006 C 
ATOM      6  C   UNL     1      -2.611  -2.270  -1.415  0.00  0.00    -0.077 C 
ATOM      7  H   UNL     1      -0.715  -1.561  -1.919  0.00  0.00    -0.081 HD
ENDROOT
BRANCH   4   8
ATOM      8  C   UNL     1      -3.634  -1.755  -5.069  0.00  0.00    +0.216 C 
ATOM      9  O   UNL     1      -3.416  -2.880  -5.464  0.00  0.00    -0.276 OA
ATOM     10  N   UNL     1      -4.081  -0.815  -5.925  0.00  0.00    -0.315 N 
ATOM     11  H   UNL     1      -4.279   0.206  -5.566  0.00  0.00    +0.149 HD
BRANCH  10  12
ATOM     12  C   UNL     1      -4.304  -1.152  -7.332  0.00  0.00    +0.105 C 
BRANCH  12  13
ATOM     13  C   UNL     1      -4.808   0.084  -8.080  0.00  0.00    +0.030 C 
BRANCH  13  14
ATOM     14  C   UNL     1      -5.040  -0.269  -9.550  0.00  0.00    +0.076 C 
BRANCH  14  15
ATOM     15  S   UNL     1      -5.638   1.197 -10.437  0.00  0.00    -0.125 S 
BRANCH  15  16
ATOM     16  C   UNL     1      -5.855   0.635 -12.092  0.00  0.00    +0.008 A 
ATOM     17  C   UNL     1      -5.564  -0.683 -12.424  0.00  0.00    +0.016 A 
ATOM     18  C   UNL     1      -5.740  -1.122 -13.722  0.00  0.00    +0.021 A 
ATOM     19  C   UNL     1      -6.196  -0.248 -14.693  0.00  0.00    +0.041 A 
ATOM     20  C   UNL     1      -6.481   1.067 -14.367  0.00  0.00    +0.021 A 
ATOM     21  C   UNL     1      -6.312   1.510 -13.070  0.00  0.00    +0.016 A 
ATOM     22 CL   UNL     1      -6.410  -0.802 -16.325  0.00  0.00    -0.084 Cl
ENDBRANCH  15  16
ENDBRANCH  14  15
ENDBRANCH  13  14
ENDBRANCH  12  13
ENDBRANCH  10  12
ENDBRANCH   4   8
BRANCH   1  23
ATOM     23  C   UNL     1      -1.198  -0.916   0.009  0.00  0.00    +0.022 C 
BRANCH  23  26
ATOM     24  C   UNL     1       1.282   1.686  -0.001  0.00  0.00    +0.202 A 
ATOM     25  N   UNL     1      -0.016   1.306   0.009  0.00  0.00    -0.193 NA
ATOM     26  C   UNL     1       0.002  -0.004   0.002  0.00  0.00    +0.211 A 
ATOM     27  O   UNL     1       1.285  -0.380  -0.012  0.00  0.00    -0.340 OA
ATOM     28  N   UNL     1       2.004   0.596  -0.014  0.00  0.00    -0.056 NA
BRANCH  24  35
ATOM     29  C   UNL     1       4.133   2.172  -0.025  0.00  0.00    +0.044 C 
ATOM     30  C   UNL     1       3.162   3.324  -0.011  0.00  0.00    -0.040 A 
ATOM     31  C   UNL     1       3.630   4.623  -0.009  0.00  0.00    +0.004 A 
ATOM     32  C   UNL     1       2.740   5.681   0.004  0.00  0.00    +0.000 A 
ATOM     33  C   UNL     1       1.377   5.445   0.016  0.00  0.00    +0.001 A 
ATOM     34  C   UNL     1       0.898   4.151   0.009  0.00  0.00    +0.012 A 
ATOM     35  C   UNL     1       1.791   3.081   0.001  0.00  0.00    +0.025 A 
ENDBRANCH  24  35
ENDBRANCH  23  26
ENDBRANCH   1  23
TORSDOF 9
