REMARK  Name = ZINC32451982
REMARK  9 active torsions:
REMARK  status: ('A' for Active; 'I' for Inactive)
REMARK    1  A    between atoms: C_1  and  C_2
REMARK    2  A    between atoms: C_2  and  C_3
REMARK    3  A    between atoms: C_3  and  C_5
REMARK    4  A    between atoms: C_3  and  C_23
REMARK    5  A    between atoms: C_5  and  N_6
REMARK    6  A    between atoms: C_7  and  C_9
REMARK    7  A    between atoms: C_9  and  C_10
REMARK    8  A    between atoms: C_10  and  C_12
REMARK    9  A    between atoms: C_10  and  N_19
REMARK                            x       y       z     vdW  Elec       q    Type
REMARK                         _______ _______ _______ _____ _____    ______ ____
ROOT
ATOM      1  C   UNL     1      -3.255   2.997  -1.057  0.00  0.00    +0.122 C 
ENDROOT
BRANCH   1   3
ATOM      2  N   UNL     1      -3.162   3.075  -3.527  0.00  0.00    -0.315 N 
ATOM      3  C   UNL     1      -2.663   3.498  -2.349  0.00  0.00    +0.215 C 
ATOM      4  O   UNL     1      -1.738   4.282  -2.328  0.00  0.00    -0.276 OA
ATOM      5  H   UNL     1      -4.001   2.364  -3.546  0.00  0.00    +0.149 HD
BRANCH   2   6
ATOM      6  C   UNL     1      -2.587   3.563  -4.784  0.00  0.00    +0.112 C 
BRANCH   6   7
ATOM      7  C   UNL     1      -3.330   2.933  -5.963  0.00  0.00    +0.036 C 
BRANCH   7   8
ATOM      8  C   UNL     1      -2.661   3.337  -7.252  0.00  0.00    -0.043 A 
ATOM      9  C   UNL     1      -2.572   4.673  -7.595  0.00  0.00    +0.004 A 
ATOM     10  C   UNL     1      -1.955   5.044  -8.774  0.00  0.00    +0.000 A 
ATOM     11  C   UNL     1      -1.435   4.079  -9.616  0.00  0.00    +0.000 A 
ATOM     12  C   UNL     1      -1.529   2.742  -9.276  0.00  0.00    +0.000 A 
ATOM     13  C   UNL     1      -2.142   2.371  -8.094  0.00  0.00    +0.004 A 
ENDBRANCH   7   8
BRANCH   7  15
ATOM     14  C   UNL     1      -5.556   2.691  -7.071  0.00  0.00    +0.004 C 
ATOM     15  C   UNL     1      -4.782   3.416  -5.968  0.00  0.00    +0.006 C 
ENDBRANCH   7  15
ENDBRANCH   6   7
ENDBRANCH   2   6
ENDBRANCH   1   3
BRANCH   1  16
ATOM     16  C   UNL     1      -2.512   3.627   0.123  0.00  0.00    +0.113 C 
BRANCH  16  17
ATOM     17  C   UNL     1      -3.181   3.223   1.411  0.00  0.00    -0.027 A 
ATOM     18  C   UNL     1      -3.010   1.943   1.907  0.00  0.00    +0.006 A 
ATOM     19  C   UNL     1      -3.619   1.574   3.091  0.00  0.00    +0.015 A 
ATOM     20  C   UNL     1      -4.408   2.481   3.775  0.00  0.00    +0.018 A 
ATOM     21  C   UNL     1      -4.583   3.759   3.277  0.00  0.00    +0.015 A 
ATOM     22  C   UNL     1      -3.969   4.129   2.095  0.00  0.00    +0.006 A 
ATOM     23 BR   UNL     1      -5.248   1.973   5.392  0.00  0.00    -0.050 Br
ENDBRANCH  16  17
BRANCH  16  24
ATOM     24  N   UNL     1      -1.122   3.164   0.128  0.00  0.00    -0.292 N 
ATOM     25  C   UNL     1      -0.168   3.905   0.726  0.00  0.00    +0.298 C 
ATOM     26  O   UNL     1      -0.443   4.997   1.183  0.00  0.00    -0.253 OA
ATOM     27  N   UNL     1       1.092   3.434   0.817  0.00  0.00    -0.313 N 
ATOM     28  H   UNL     1      -0.857   2.213  -0.356  0.00  0.00    +0.151 HD
ATOM     29  H   UNL     1       1.871   4.038   1.305  0.00  0.00    +0.146 HD
ATOM     30  H   UNL     1       1.341   2.446   0.403  0.00  0.00    +0.146 HD
ENDBRANCH  16  24
ENDBRANCH   1  16
TORSDOF 8
