REMARK  Name = ZINC09449257
REMARK  6 active torsions:
REMARK  status: ('A' for Active; 'I' for Inactive)
REMARK    1  A    between atoms: C_6  and  C_7
REMARK    2  A    between atoms: C_9  and  C_13
REMARK    3  A    between atoms: C_16  and  S_19
REMARK    4  A    between atoms: N_17  and  N_18
REMARK    5  A    between atoms: S_19  and  C_20
REMARK    6  A    between atoms: C_20  and  C_21
REMARK                            x       y       z     vdW  Elec       q    Type
REMARK                         _______ _______ _______ _____ _____    ______ ____
ROOT
ATOM      1  C   UNL     1      -3.354  -3.784   0.033  0.00  0.00    +0.202 A 
ATOM      2  N   UNL     1      -2.696  -4.919   0.030  0.00  0.00    -0.125 NA
ATOM      3  N   UNL     1      -3.520  -5.904   0.031  0.00  0.00    -0.120 NA
ATOM      4  C   UNL     1      -4.756  -5.459   0.034  0.00  0.00    +0.209 A 
ATOM      5  N   UNL     1      -4.694  -4.094   0.041  0.00  0.00    -0.222 N 
ENDROOT
BRANCH   1   8
ATOM      6  C   UNL     1      -1.267  -0.765   0.025  0.00  0.00    +0.066 A 
ATOM      7  C   UNL     1      -1.393  -2.122   0.023  0.00  0.00    +0.061 A 
ATOM      8  C   UNL     1      -2.767  -2.426   0.032  0.00  0.00    +0.132 A 
ATOM      9  N   UNL     1      -3.440  -1.293   0.040  0.00  0.00    -0.170 NA
ATOM     10  N   UNL     1      -2.523  -0.234   0.041  0.00  0.00    -0.276 N 
ATOM     11  H   UNL     1      -2.743   0.711   0.049  0.00  0.00    +0.189 HD
BRANCH   6  17
ATOM     12  C   UNL     1      -0.016   1.390   0.028  0.00  0.00    +0.011 A 
ATOM     13  C   UNL     1       1.171   2.093   0.022  0.00  0.00    +0.020 A 
ATOM     14  C   UNL     1       2.379   1.417   0.007  0.00  0.00    +0.041 A 
ATOM     15  C   UNL     1       2.404   0.033  -0.003  0.00  0.00    +0.020 A 
ATOM     16  C   UNL     1       1.223  -0.680   0.003  0.00  0.00    +0.011 A 
ATOM     17  C   UNL     1       0.003  -0.005   0.019  0.00  0.00    -0.000 A 
ATOM     18 CL   UNL     1       3.869   2.309  -0.001  0.00  0.00    -0.084 Cl
ENDBRANCH   6  17
ENDBRANCH   1   8
BRANCH   5  19
ATOM     19  N   UNL     1      -5.744  -3.220   0.052  0.00  0.00    -0.295 N 
ATOM     20  H   UNL     1      -6.029  -2.986  -0.887  0.00  0.00    +0.163 HD
ATOM     21  H   UNL     1      -6.518  -3.591   0.583  0.00  0.00    +0.163 HD
ENDBRANCH   5  19
BRANCH   4  22
ATOM     22  S   UNL     1      -6.220  -6.439   0.036  0.00  0.00    -0.075 S 
BRANCH  22  23
ATOM     23  C   UNL     1      -5.606  -8.146   0.034  0.00  0.00    +0.173 C 
BRANCH  23  24
ATOM     24  C   UNL     1      -6.773  -9.100   0.035  0.00  0.00    +0.229 C 
ATOM     25  O   UNL     1      -7.907  -8.670   0.038  0.00  0.00    -0.275 OA
ATOM     26  N   UNL     1      -6.556 -10.430   0.034  0.00  0.00    -0.270 N 
ATOM     27  C   UNL     1      -7.630 -11.312   0.142  0.00  0.00    +0.125 A 
ATOM     28  C   UNL     1      -7.392 -12.678   0.247  0.00  0.00    +0.045 A 
ATOM     29  C   UNL     1      -8.467 -13.542   0.354  0.00  0.00    +0.020 A 
ATOM     30  C   UNL     1      -9.750 -13.008   0.353  0.00  0.00    +0.036 A 
ATOM     31  C   UNL     1      -9.912 -11.640   0.246  0.00  0.00    +0.128 A 
ATOM     32  N   UNL     1      -8.867 -10.840   0.150  0.00  0.00    -0.239 NA
ATOM     33 BR   UNL     1     -11.257 -14.140   0.497  0.00  0.00    -0.049 Br
ATOM     34  H   UNL     1      -5.652 -10.774  -0.042  0.00  0.00    +0.156 HD
ENDBRANCH  23  24
ENDBRANCH  22  23
ENDBRANCH   4  22
TORSDOF 6
