REMARK  Name = ZINC39936867
REMARK  3 active torsions:
REMARK  status: ('A' for Active; 'I' for Inactive)
REMARK    1  A    between atoms: C_9  and  C_12
REMARK    2  A    between atoms: N_14  and  C_15
REMARK    3  A    between atoms: C_17  and  C_26
REMARK                            x       y       z     vdW  Elec       q    Type
REMARK                         _______ _______ _______ _____ _____    ______ ____
ROOT
ATOM      1  C   UNL     1       0.122  -2.916   0.213  0.00  0.00    +0.242 C 
ATOM      2  O   UNL     1      -0.950  -2.450   0.548  0.00  0.00    -0.270 OA
ATOM      3  N   UNL     1       0.210  -4.211  -0.147  0.00  0.00    -0.298 N 
ATOM      4  H   UNL     1       1.066  -4.583  -0.414  0.00  0.00    +0.150 HD
ENDROOT
BRANCH   1  13
ATOM      5  C   UNL     1      -0.049   1.267   1.001  0.00  0.00    +0.001 A 
ATOM      6  C   UNL     1       1.123   2.033   0.978  0.00  0.00    +0.002 A 
ATOM      7  C   UNL     1       2.341   1.502   0.713  0.00  0.00    +0.024 A 
ATOM      8  C   UNL     1       2.476   0.123   0.442  0.00  0.00    +0.041 A 
ATOM      9  N   UNL     1       3.670  -0.390   0.183  0.00  0.00    -0.285 N 
ATOM     10  C   UNL     1       3.870  -1.676  -0.079  0.00  0.00    +0.222 C 
ATOM     11  O   UNL     1       4.992  -2.083  -0.308  0.00  0.00    -0.275 OA
ATOM     12  C   UNL     1       2.700  -2.634  -0.092  0.00  0.00    +0.137 C 
ATOM     13  C   UNL     1       1.327  -2.062   0.203  0.00  0.00    +0.032 C 
ATOM     14  C   UNL     1       1.253  -0.709   0.460  0.00  0.00    +0.005 A 
ATOM     15  C   UNL     1      -0.028  -0.066   0.755  0.00  0.00    +0.010 A 
ATOM     16  H   UNL     1       4.436   0.204   0.185  0.00  0.00    +0.155 HD
ENDBRANCH   1  13
BRANCH   3  17
ATOM     17  C   UNL     1      -0.985  -5.058  -0.137  0.00  0.00    +0.152 C 
ATOM     18  C   UNL     1      -0.912  -6.157  -1.224  0.00  0.00    +0.132 C 
ATOM     19  C   UNL     1      -2.258  -6.400  -1.860  0.00  0.00    -0.046 C 
ATOM     20  C   UNL     1      -3.181  -5.455  -1.725  0.00  0.00    -0.013 C 
ATOM     21  S   UNL     1      -2.463  -4.149  -0.753  0.00  0.00    -0.106 S 
ATOM     22  C   UNL     1      -4.578  -5.471  -2.279  0.00  0.00    +0.042 C 
ATOM     23  C   UNL     1      -4.678  -6.576  -3.338  0.00  0.00    +0.005 C 
ATOM     24  C   UNL     1      -4.065  -7.856  -2.761  0.00  0.00    +0.005 C 
ATOM     25  C   UNL     1      -2.552  -7.683  -2.633  0.00  0.00    +0.032 C 
BRANCH  18  26
ATOM     26  C   UNL     1       0.064  -5.731  -2.290  0.00  0.00    +0.220 C 
ATOM     27  O   UNL     1      -0.298  -4.996  -3.185  0.00  0.00    -0.275 OA
ATOM     28  N   UNL     1       1.338  -6.166  -2.249  0.00  0.00    -0.329 N 
ATOM     29  H   UNL     1       1.647  -6.694  -1.496  0.00  0.00    +0.145 HD
ATOM     30  H   UNL     1       1.947  -5.952  -2.973  0.00  0.00    +0.145 HD
ENDBRANCH  18  26
ENDBRANCH   3  17
TORSDOF 3
