REMARK  Name = ZINC50306995
REMARK  5 active torsions:
REMARK  status: ('A' for Active; 'I' for Inactive)
REMARK    1  A    between atoms: C_1  and  C_2
REMARK    2  A    between atoms: C_2  and  C_3
REMARK    3  A    between atoms: C_4  and  N_21
REMARK    4  A    between atoms: C_5  and  C_9
REMARK    5  A    between atoms: N_11  and  C_12
REMARK                            x       y       z     vdW  Elec       q    Type
REMARK                         _______ _______ _______ _____ _____    ______ ____
ROOT
ATOM      1  C   UNL     1       3.106  -0.644  -4.371  0.00  0.00    +0.270 C 
ATOM      2  O   UNL     1       3.839   0.296  -4.609  0.00  0.00    -0.268 OA
ATOM      3  N   UNL     1       3.510  -1.900  -4.647  0.00  0.00    -0.278 N 
ATOM      4  H   UNL     1       2.957  -2.655  -4.391  0.00  0.00    +0.155 HD
ENDROOT
BRANCH   3   5
ATOM      5  C   UNL     1       4.728  -2.115  -5.302  0.00  0.00    +0.062 A 
ATOM      6  C   UNL     1       4.774  -2.154  -6.690  0.00  0.00    +0.041 A 
ATOM      7  C   UNL     1       5.979  -2.367  -7.334  0.00  0.00    +0.032 A 
ATOM      8  C   UNL     1       7.137  -2.542  -6.598  0.00  0.00    +0.020 A 
ATOM      9  C   UNL     1       7.094  -2.504  -5.215  0.00  0.00    +0.032 A 
ATOM     10  C   UNL     1       5.894  -2.285  -4.566  0.00  0.00    +0.041 A 
ATOM     11 BR   UNL     1       5.837  -2.225  -2.677  0.00  0.00    -0.048 Br
ATOM     12 BR   UNL     1       8.782  -2.833  -7.483  0.00  0.00    -0.050 Br
ATOM     13 BR   UNL     1       3.192  -1.917  -7.697  0.00  0.00    -0.048 Br
ENDBRANCH   3   5
BRANCH   1  16
ATOM     14  C   UNL     1      -0.019   0.566  -2.935  0.00  0.00    +0.057 A 
ATOM     15  C   UNL     1       1.213   0.846  -3.439  0.00  0.00    +0.078 A 
ATOM     16  C   UNL     1       1.774  -0.411  -3.782  0.00  0.00    +0.168 A 
ATOM     17  N   UNL     1       0.880  -1.332  -3.475  0.00  0.00    -0.167 NA
ATOM     18  N   UNL     1      -0.169  -0.784  -2.975  0.00  0.00    -0.279 N 
ATOM     19  H   UNL     1      -0.956  -1.264  -2.674  0.00  0.00    +0.189 HD
BRANCH  15  20
ATOM     20  N   UNL     1       1.803   2.110  -3.588  0.00  0.00    -0.355 N 
ATOM     21  H   UNL     1       1.319   2.905  -3.317  0.00  0.00    +0.142 HD
ATOM     22  H   UNL     1       2.694   2.187  -3.963  0.00  0.00    +0.142 HD
ENDBRANCH  15  20
BRANCH  14  24
ATOM     23  C   UNL     1      -1.854   2.099  -3.591  0.00  0.00    +0.010 C 
ATOM     24  C   UNL     1      -1.024   1.564  -2.422  0.00  0.00    +0.053 C 
ENDBRANCH  14  24
ENDBRANCH   1  16
TORSDOF 4
