REMARK  Name = ZINC17590434
REMARK  5 active torsions:
REMARK  status: ('A' for Active; 'I' for Inactive)
REMARK    1  A    between atoms: C_1  and  N_2
REMARK    2  A    between atoms: C_6  and  C_7
REMARK    3  A    between atoms: C_7  and  C_9
REMARK    4  A    between atoms: C_7  and  N_16
REMARK    5  A    between atoms: C_25  and  C_27
REMARK                            x       y       z     vdW  Elec       q    Type
REMARK                         _______ _______ _______ _____ _____    ______ ____
ROOT
ATOM      1  N   UNL     1      -1.090   3.283   1.002  0.00  0.00    -0.315 N 
ATOM      2  C   UNL     1      -1.396   3.058   2.327  0.00  0.00    +0.131 A 
ATOM      3  C   UNL     1      -1.239   4.084   3.293  0.00  0.00    +0.040 A 
ATOM      4  C   UNL     1      -0.785   5.362   2.951  0.00  0.00    +0.013 A 
ATOM      5  C   UNL     1      -0.658   6.313   3.922  0.00  0.00    +0.001 A 
ATOM      6  C   UNL     1      -0.981   6.030   5.246  0.00  0.00    +0.002 A 
ATOM      7  C   UNL     1      -1.432   4.797   5.611  0.00  0.00    +0.028 A 
ATOM      8  C   UNL     1      -1.574   3.796   4.640  0.00  0.00    +0.077 A 
ATOM      9  N   UNL     1      -2.013   2.568   4.947  0.00  0.00    -0.227 NA
ATOM     10  C   UNL     1      -2.135   1.647   4.009  0.00  0.00    +0.162 A 
ATOM     11  N   UNL     1      -1.837   1.877   2.732  0.00  0.00    -0.212 NA
ATOM     12  H   UNL     1      -0.767   4.153   0.719  0.00  0.00    +0.148 HD
ENDROOT
BRANCH  10  13
ATOM     13  C   UNL     1      -2.625   0.302   4.394  0.00  0.00    +0.019 A 
ATOM     14  C   UNL     1      -2.772  -0.692   3.427  0.00  0.00    +0.011 A 
ATOM     15  C   UNL     1      -3.222  -1.945   3.792  0.00  0.00    +0.001 A 
ATOM     16  C   UNL     1      -3.540  -2.211   5.112  0.00  0.00    +0.000 A 
ATOM     17  C   UNL     1      -3.402  -1.227   6.074  0.00  0.00    +0.001 A 
ATOM     18  C   UNL     1      -2.946   0.027   5.722  0.00  0.00    +0.011 A 
ENDBRANCH  10  13
BRANCH   1  19
ATOM     19  C   UNL     1      -1.253   2.208   0.020  0.00  0.00    +0.168 C 
BRANCH  19  20
ATOM     20  C   UNL     1      -1.461   2.804  -1.348  0.00  0.00    -0.020 A 
ATOM     21  C   UNL     1      -0.737   3.917  -1.734  0.00  0.00    +0.009 A 
ATOM     22  C   UNL     1      -0.924   4.462  -2.990  0.00  0.00    +0.038 A 
ATOM     23  C   UNL     1      -1.845   3.899  -3.858  0.00  0.00    +0.123 A 
ATOM     24  C   UNL     1      -2.573   2.788  -3.469  0.00  0.00    +0.038 A 
ATOM     25  C   UNL     1      -2.380   2.241  -2.214  0.00  0.00    +0.009 A 
ATOM     26  F   UNL     1      -2.032   4.434  -5.085  0.00  0.00    -0.205 F 
ENDBRANCH  19  20
BRANCH  19  32
ATOM     27  C   UNL     1      -1.165  -0.889   0.009  0.00  0.00    +0.150 C 
ATOM     28  N   UNL     1       0.002  -0.004   0.002  0.00  0.00    -0.336 N 
ATOM     29  C   UNL     1       1.315  -0.391  -0.013  0.00  0.00    +0.106 A 
ATOM     30  C   UNL     1       2.053   0.735  -0.014  0.00  0.00    +0.130 A 
ATOM     31  N   UNL     1       1.214   1.781   0.000  0.00  0.00    -0.238 NA
ATOM     32  C   UNL     1      -0.016   1.346   0.009  0.00  0.00    +0.134 A 
ENDBRANCH  19  32
ENDBRANCH   1  19
TORSDOF 4
