REMARK  Name = ZINC62777444
REMARK  6 active torsions:
REMARK  status: ('A' for Active; 'I' for Inactive)
REMARK    1  A    between atoms: C_1  and  C_2
REMARK    2  A    between atoms: C_2  and  C_3
REMARK    3  A    between atoms: C_3  and  N_4
REMARK    4  A    between atoms: N_4  and  C_5
REMARK    5  A    between atoms: C_5  and  C_7
REMARK    6  A    between atoms: C_5  and  C_20
REMARK                            x       y       z     vdW  Elec       q    Type
REMARK                         _______ _______ _______ _____ _____    ______ ____
ROOT
ATOM      1  C   UNL     1       1.426  -2.440  -2.474  0.00  0.00    -0.006 C 
ENDROOT
BRANCH   1   2
ATOM      2  C   UNL     1       1.339  -3.943  -2.544  0.00  0.00    -0.041 A 
ATOM      3  C   UNL     1       1.062  -4.670  -1.403  0.00  0.00    +0.031 A 
ATOM      4  C   UNL     1       0.983  -6.053  -1.468  0.00  0.00    +0.067 A 
ATOM      5  C   UNL     1       1.183  -6.705  -2.687  0.00  0.00    +0.068 A 
ATOM      6  C   UNL     1       1.460  -5.967  -3.827  0.00  0.00    +0.043 A 
ATOM      7  C   UNL     1       1.532  -4.588  -3.754  0.00  0.00    +0.022 A 
ATOM      8 BR   UNL     1       1.902  -3.581  -5.311  0.00  0.00    -0.050 Br
ATOM      9  N   UNL     1       1.042  -8.069  -2.442  0.00  0.00    -0.306 N 
ATOM     10  H   UNL     1       1.127  -8.775  -3.100  0.00  0.00    +0.170 HD
ATOM     11  C   UNL     1       0.769  -8.239  -1.134  0.00  0.00    +0.325 A 
ATOM     12  O   UNL     1       0.589  -9.312  -0.590  0.00  0.00    -0.247 OA
ATOM     13  N   UNL     1       0.727  -7.041  -0.520  0.00  0.00    -0.306 N 
ATOM     14  H   UNL     1       0.549  -6.892   0.422  0.00  0.00    +0.170 HD
ENDBRANCH   1   2
BRANCH   1  15
ATOM     15  C   UNL     1       2.873  -2.022  -2.425  0.00  0.00    -0.020 A 
ATOM     16  C   UNL     1       3.605  -1.564  -3.467  0.00  0.00    +0.107 A 
ATOM     17  N   UNL     1       4.848  -1.301  -3.012  0.00  0.00    -0.285 N 
ATOM     18  H   UNL     1       5.587  -0.959  -3.538  0.00  0.00    +0.188 HD
ATOM     19  N   UNL     1       4.880  -1.606  -1.645  0.00  0.00    -0.182 NA
ATOM     20  C   UNL     1       3.695  -2.033  -1.293  0.00  0.00    +0.136 A 
ENDBRANCH   1  15
BRANCH   1  21
ATOM     21  N   UNL     1       0.738  -1.966  -1.265  0.00  0.00    +0.386 N 
ATOM     22  H   UNL     1       1.226  -2.301  -0.447  0.00  0.00    -0.085 HD
ATOM     23  H   UNL     1      -0.208  -2.316  -1.258  0.00  0.00    -0.085 HD
BRANCH  21  24
ATOM     24  C   UNL     1       0.718  -0.497  -1.257  0.00  0.00    -0.082 C 
BRANCH  24  26
ATOM     25  C   UNL     1      -0.019   1.526   0.010  0.00  0.00    +0.002 C 
ATOM     26  C   UNL     1       0.002  -0.004   0.002  0.00  0.00    -0.022 C 
ENDBRANCH  24  26
ENDBRANCH  21  24
ENDBRANCH   1  21
TORSDOF 5
