REMARK  Name = ZINC15675935
REMARK  15 active torsions:
REMARK  status: ('A' for Active; 'I' for Inactive)
REMARK    1  A    between atoms: C_1  and  C_2
REMARK    2  A    between atoms: C_11  and  C_25
REMARK    3  A    between atoms: C_11  and  C_26
REMARK    4  A    between atoms: N_12  and  C_15
REMARK    5  A    between atoms: C_15  and  C_16
REMARK    6  A    between atoms: C_16  and  N_82
REMARK    7  A    between atoms: C_17  and  C_18
REMARK    8  A    between atoms: C_17  and  N_82
REMARK    9  A    between atoms: C_18  and  C_19
REMARK   10  A    between atoms: C_18  and  C_20
REMARK   11  A    between atoms: C_21  and  C_22
REMARK   12  A    between atoms: C_21  and  N_82
REMARK   13  A    between atoms: C_22  and  C_23
REMARK   14  A    between atoms: C_22  and  C_24
REMARK   15  A    between atoms: N_28  and  C_29
REMARK                            x       y       z     vdW  Elec       q    Type
REMARK                         _______ _______ _______ _____ _____    ______ ____
ROOT
ATOM      1  C   UNL     1      -3.074   1.711   0.005  0.00  0.00    +0.086 C 
ATOM      2  C   UNL     1      -2.002   0.665  -0.167  0.00  0.00    +0.105 A 
ATOM      3  C   UNL     1      -0.718   0.802   0.205  0.00  0.00    +0.071 A 
ATOM      4  C   UNL     1      -0.052  -0.401  -0.131  0.00  0.00    +0.088 A 
ATOM      5  C   UNL     1      -1.016  -1.228  -0.707  0.00  0.00    +0.154 A 
ATOM      6  O   UNL     1      -2.183  -0.550  -0.711  0.00  0.00    -0.458 OA
ATOM      7  C   UNL     1      -0.390  -2.436  -1.048  0.00  0.00    +0.079 A 
ATOM      8  C   UNL     1       0.919  -2.337  -0.682  0.00  0.00    +0.109 A 
ATOM      9  N   UNL     1       1.130  -1.077  -0.125  0.00  0.00    -0.331 N 
ATOM     10  C   UNL     1       2.453  -0.658   0.347  0.00  0.00    +0.157 C 
ATOM     11  C   UNL     1       3.234  -1.889   0.808  0.00  0.00    +0.128 C 
ATOM     12  N   UNL     1       3.168  -2.984  -0.152  0.00  0.00    -0.282 N 
ATOM     13  C   UNL     1       2.025  -3.295  -0.807  0.00  0.00    +0.264 C 
ATOM     14  O   UNL     1       1.918  -4.315  -1.462  0.00  0.00    -0.268 OA
ATOM     15  C   UNL     1       4.699  -1.498   1.011  0.00  0.00    +0.043 C 
ENDROOT
BRANCH  11  16
ATOM     16  C   UNL     1       2.668  -2.359   2.123  0.00  0.00    +0.238 C 
ATOM     17  O   UNL     1       3.175  -1.999   3.165  0.00  0.00    -0.273 OA
ATOM     18  N   UNL     1       1.600  -3.181   2.142  0.00  0.00    -0.311 N 
ATOM     19  H   UNL     1       1.195  -3.469   1.310  0.00  0.00    +0.149 HD
BRANCH  18  20
ATOM     20  C   UNL     1       1.051  -3.638   3.421  0.00  0.00    +0.073 C 
ATOM     21  C   UNL     1       1.883  -4.836   3.923  0.00  0.00    +0.022 C 
ATOM     22  C   UNL     1       1.673  -4.976   5.406  0.00  0.00    +0.002 C 
ATOM     23  C   UNL     1       0.554  -5.977   5.751  0.00  0.00    +0.000 C 
ATOM     24  C   UNL     1      -0.672  -5.843   4.829  0.00  0.00    +0.000 C 
ATOM     25  C   UNL     1      -1.031  -4.408   4.553  0.00  0.00    +0.002 C 
ATOM     26  C   UNL     1      -0.353  -3.977   3.237  0.00  0.00    +0.022 C 
ENDBRANCH  18  20
ENDBRANCH  11  16
BRANCH  12  27
ATOM     27  C   UNL     1       4.375  -3.771  -0.417  0.00  0.00    +0.091 C 
BRANCH  27  28
ATOM     28  C   UNL     1       4.436  -4.954   0.552  0.00  0.00    -0.060 C 
BRANCH  28  29
ATOM     29  N   UNL     1       5.646  -5.749   0.259  0.00  0.00    +0.381 N 
ATOM     30  H   UNL     1       5.665  -5.971  -0.744  0.00  0.00    -0.082 HD
BRANCH  29  31
ATOM     31  C   UNL     1       6.856  -4.972   0.601  0.00  0.00    -0.076 C 
BRANCH  31  32
ATOM     32  C   UNL     1       6.730  -4.373   2.003  0.00  0.00    -0.034 C 
ATOM     33  C   UNL     1       6.812  -5.492   3.044  0.00  0.00    +0.005 C 
ATOM     34  C   UNL     1       7.866  -3.376   2.236  0.00  0.00    +0.005 C 
ENDBRANCH  31  32
ENDBRANCH  29  31
BRANCH  29  35
ATOM     35  C   UNL     1       5.621  -7.010   1.029  0.00  0.00    -0.076 C 
BRANCH  35  36
ATOM     36  C   UNL     1       6.770  -7.902   0.554  0.00  0.00    -0.034 C 
ATOM     37  C   UNL     1       6.811  -9.175   1.401  0.00  0.00    +0.005 C 
ATOM     38  C   UNL     1       6.552  -8.274  -0.915  0.00  0.00    +0.005 C 
ENDBRANCH  35  36
ENDBRANCH  29  35
ENDBRANCH  28  29
ENDBRANCH  27  28
ENDBRANCH  12  27
TORSDOF 9
