REMARK  Name = ZINC63730219
REMARK  10 active torsions:
REMARK  status: ('A' for Active; 'I' for Inactive)
REMARK    1  A    between atoms: C_1  and  C_2
REMARK    2  A    between atoms: C_5  and  C_13
REMARK    3  A    between atoms: C_11  and  C_12
REMARK    4  A    between atoms: C_17  and  S_26
REMARK    5  A    between atoms: N_18  and  C_19
REMARK    6  A    between atoms: C_19  and  C_20
REMARK    7  A    between atoms: S_26  and  C_27
REMARK    8  A    between atoms: C_27  and  C_28
REMARK    9  A    between atoms: N_30  and  C_31
REMARK   10  A    between atoms: C_35  and  N_37
REMARK                            x       y       z     vdW  Elec       q    Type
REMARK                         _______ _______ _______ _____ _____    ______ ____
ROOT
ATOM      1  C   UNL     1      -4.620  -1.401   1.125  0.00  0.00    +0.208 C 
ATOM      2  N   UNL     1      -5.348  -2.550   0.561  0.00  0.00    -0.242 N 
ATOM      3  N   UNL     1      -5.963  -3.191   1.643  0.00  0.00    -0.162 NA
ATOM      4  C   UNL     1      -5.706  -2.591   2.756  0.00  0.00    +0.176 C 
ATOM      5  N   UNL     1      -4.893  -1.479   2.570  0.00  0.00    -0.281 N 
ATOM      6  H   UNL     1      -5.393  -2.810  -0.372  0.00  0.00    +0.170 HD
ENDROOT
BRANCH   1  11
ATOM      7  C   UNL     1      -0.041   1.516  -0.008  0.00  0.00    +0.046 C 
ATOM      8  C   UNL     1      -0.022   0.009  -0.023  0.00  0.00    -0.024 C 
ATOM      9  C   UNL     1      -1.106  -0.776  -0.019  0.00  0.00    -0.014 C 
ATOM     10  C   UNL     1      -2.478  -0.534   0.195  0.00  0.00    +0.013 C 
ATOM     11  C   UNL     1      -3.142  -1.529   0.859  0.00  0.00    -0.008 C 
ATOM     12  C   UNL     1      -2.420  -2.715   1.310  0.00  0.00    +0.005 C 
ATOM     13  C   UNL     1      -1.210  -3.047   0.845  0.00  0.00    +0.004 C 
ATOM     14  C   UNL     1      -0.583  -2.193  -0.218  0.00  0.00    +0.159 C 
ATOM     15  N   UNL     1       0.864  -2.060  -0.118  0.00  0.00    -0.276 NA
ATOM     16  C   UNL     1       1.143  -0.791  -0.050  0.00  0.00    +0.037 C 
ATOM     17  C   UNL     1       2.544  -0.238   0.002  0.00  0.00    +0.065 C 
ENDBRANCH   1  11
BRANCH   5  18
ATOM     18  C   UNL     1      -4.404  -0.565   3.605  0.00  0.00    +0.144 C 
BRANCH  18  19
ATOM     19  C   UNL     1      -5.388   0.562   3.785  0.00  0.00    -0.030 A 
ATOM     20  C   UNL     1      -5.267   1.714   3.030  0.00  0.00    +0.005 A 
ATOM     21  C   UNL     1      -6.169   2.747   3.196  0.00  0.00    +0.000 A 
ATOM     22  C   UNL     1      -7.193   2.630   4.117  0.00  0.00    +0.000 A 
ATOM     23  C   UNL     1      -7.315   1.478   4.872  0.00  0.00    +0.000 A 
ATOM     24  C   UNL     1      -6.415   0.443   4.703  0.00  0.00    +0.005 A 
ENDBRANCH  18  19
ENDBRANCH   5  18
BRANCH   4  25
ATOM     25  S   UNL     1      -6.313  -3.118   4.324  0.00  0.00    -0.080 S 
BRANCH  25  26
ATOM     26  C   UNL     1      -7.298  -4.592   3.941  0.00  0.00    +0.173 C 
BRANCH  26  27
ATOM     27  C   UNL     1      -7.882  -5.150   5.213  0.00  0.00    +0.227 C 
ATOM     28  O   UNL     1      -7.657  -4.606   6.274  0.00  0.00    -0.275 OA
ATOM     29  N   UNL     1      -8.656  -6.253   5.173  0.00  0.00    -0.285 N 
ATOM     30  H   UNL     1      -8.891  -6.649   4.319  0.00  0.00    +0.155 HD
BRANCH  29  31
ATOM     31  C   UNL     1      -9.119  -6.827   6.362  0.00  0.00    +0.036 A 
ATOM     32  C   UNL     1      -9.243  -8.206   6.466  0.00  0.00    +0.023 A 
ATOM     33  C   UNL     1      -9.701  -8.770   7.641  0.00  0.00    +0.004 A 
ATOM     34  C   UNL     1     -10.035  -7.962   8.713  0.00  0.00    +0.033 A 
ATOM     35  C   UNL     1      -9.913  -6.588   8.611  0.00  0.00    +0.128 A 
ATOM     36  C   UNL     1      -9.450  -6.019   7.441  0.00  0.00    +0.056 A 
BRANCH  35  37
ATOM     37  N   UNL     1     -10.273  -5.728   9.761  0.00  0.00    +0.056 N 
ATOM     38  O   UNL     1     -10.674  -6.226  10.787  0.00  0.00    -0.126 OA
ATOM     39  O   UNL     1     -10.167  -4.527   9.673  0.00  0.00    -0.126 OA
ENDBRANCH  35  37
ENDBRANCH  29  31
ENDBRANCH  26  27
ENDBRANCH  25  26
ENDBRANCH   4  25
TORSDOF 8
