REMARK  Name = ZINC59792166
REMARK  9 active torsions:
REMARK  status: ('A' for Active; 'I' for Inactive)
REMARK    1  A    between atoms: C_2  and  C_3
REMARK    2  A    between atoms: C_3  and  N_4
REMARK    3  A    between atoms: C_5  and  C_22
REMARK    4  A    between atoms: C_8  and  S_9
REMARK    5  A    between atoms: S_9  and  C_10
REMARK    6  A    between atoms: C_10  and  C_11
REMARK    7  A    between atoms: C_11  and  C_12
REMARK    8  A    between atoms: N_14  and  C_15
REMARK    9  A    between atoms: C_25  and  N_28
REMARK                            x       y       z     vdW  Elec       q    Type
REMARK                         _______ _______ _______ _____ _____    ______ ____
ROOT
ATOM      1  N   UNL     1      -1.316  -1.722  -0.784  0.00  0.00    -0.298 N 
ATOM      2  C   UNL     1      -1.487  -1.435  -2.119  0.00  0.00    +0.165 A 
ATOM      3  N   UNL     1      -1.173  -2.519  -2.789  0.00  0.00    -0.128 NA
ATOM      4  N   UNL     1      -0.821  -3.451  -1.977  0.00  0.00    -0.122 NA
ATOM      5  C   UNL     1      -0.884  -3.017  -0.738  0.00  0.00    +0.192 A 
ENDROOT
BRANCH   2   6
ATOM      6  C   UNL     1      -1.940  -0.149  -2.690  0.00  0.00    +0.019 A 
ATOM      7  C   UNL     1      -2.491  -0.106  -3.972  0.00  0.00    +0.014 A 
ATOM      8  C   UNL     1      -2.912   1.097  -4.499  0.00  0.00    +0.033 A 
ATOM      9  C   UNL     1      -2.790   2.260  -3.759  0.00  0.00    +0.126 A 
ATOM     10  C   UNL     1      -2.245   2.225  -2.488  0.00  0.00    +0.033 A 
ATOM     11  C   UNL     1      -1.825   1.027  -1.947  0.00  0.00    +0.014 A 
BRANCH   9  12
ATOM     12  N   UNL     1      -3.244   3.548  -4.331  0.00  0.00    +0.056 N 
ATOM     13  O   UNL     1      -3.721   3.582  -5.441  0.00  0.00    -0.126 OA
ATOM     14  O   UNL     1      -3.139   4.566  -3.687  0.00  0.00    -0.126 OA
ENDBRANCH   9  12
ENDBRANCH   2   6
BRANCH   1  15
ATOM     15  C   UNL     1      -1.543  -0.824   0.351  0.00  0.00    +0.152 C 
BRANCH  15  17
ATOM     16  C   UNL     1      -0.147   1.106   0.884  0.00  0.00    +0.005 C 
ATOM     17  C   UNL     1      -0.237  -0.195   0.763  0.00  0.00    -0.013 C 
ENDBRANCH  15  17
ENDBRANCH   1  15
BRANCH   5  18
ATOM     18  S   UNL     1      -0.490  -3.936   0.712  0.00  0.00    -0.086 S 
BRANCH  18  19
ATOM     19  C   UNL     1       0.009  -5.561   0.080  0.00  0.00    +0.086 C 
BRANCH  19  20
ATOM     20  C   UNL     1       0.384  -6.472   1.251  0.00  0.00    +0.107 C 
BRANCH  20  21
ATOM     21  C   UNL     1       0.798  -7.822   0.725  0.00  0.00    +0.218 C 
ATOM     22  O   UNL     1       0.795  -8.035  -0.469  0.00  0.00    -0.275 OA
ATOM     23  N   UNL     1       1.173  -8.793   1.582  0.00  0.00    -0.285 N 
ATOM     24  H   UNL     1       1.111  -8.646   2.539  0.00  0.00    +0.155 HD
BRANCH  23  25
ATOM     25  C   UNL     1       1.653 -10.012   1.091  0.00  0.00    +0.047 A 
ATOM     26  C   UNL     1       2.351 -10.054  -0.108  0.00  0.00    +0.024 A 
ATOM     27  C   UNL     1       2.823 -11.259  -0.590  0.00  0.00    +0.002 A 
ATOM     28  C   UNL     1       2.601 -12.424   0.121  0.00  0.00    +0.001 A 
ATOM     29  C   UNL     1       1.906 -12.387   1.315  0.00  0.00    +0.017 A 
ATOM     30  C   UNL     1       1.436 -11.184   1.806  0.00  0.00    +0.039 A 
ATOM     31 BR   UNL     1       0.492 -11.133   3.443  0.00  0.00    -0.048 Br
ENDBRANCH  23  25
ENDBRANCH  20  21
ENDBRANCH  19  20
ENDBRANCH  18  19
ENDBRANCH   5  18
TORSDOF 9
