REMARK  Name = ZINC01092312
REMARK  6 active torsions:
REMARK  status: ('A' for Active; 'I' for Inactive)
REMARK    1  A    between atoms: C_4  and  C_7
REMARK    2  A    between atoms: C_9  and  C_28
REMARK    3  A    between atoms: C_12  and  S_14
REMARK    4  A    between atoms: S_14  and  C_15
REMARK    5  A    between atoms: C_15  and  C_16
REMARK    6  A    between atoms: N_21  and  C_22
REMARK                            x       y       z     vdW  Elec       q    Type
REMARK                         _______ _______ _______ _____ _____    ______ ____
ROOT
ATOM      1  C   UNL     1      -2.109  -8.512   0.989  0.00  0.00    +0.188 C 
ATOM      2  C   UNL     1      -3.418  -9.063   0.505  0.00  0.00    +0.095 C 
ATOM      3  N   UNL     1      -4.458  -8.308   0.354  0.00  0.00    -0.182 NA
ATOM      4  N   UNL     1      -4.376  -6.938   0.637  0.00  0.00    -0.215 N 
ATOM      5  C   UNL     1      -3.138  -6.341   0.723  0.00  0.00    +0.170 C 
ATOM      6  N   UNL     1      -2.067  -7.059   0.875  0.00  0.00    -0.248 NA
ATOM      7  H   UNL     1      -5.294  -6.351   0.787  0.00  0.00    +0.176 HD
ENDROOT
BRANCH   1  11
ATOM      8  C   UNL     1      -1.550  -9.622   5.076  0.00  0.00    +0.000 A 
ATOM      9  C   UNL     1      -0.810 -10.239   4.085  0.00  0.00    +0.000 A 
ATOM     10  C   UNL     1      -0.990  -9.879   2.762  0.00  0.00    +0.006 A 
ATOM     11  C   UNL     1      -1.912  -8.904   2.431  0.00  0.00    -0.017 A 
ATOM     12  C   UNL     1      -2.649  -8.284   3.422  0.00  0.00    +0.006 A 
ATOM     13  C   UNL     1      -2.471  -8.646   4.745  0.00  0.00    +0.000 A 
ENDBRANCH   1  11
BRANCH   2  14
ATOM     14  C   UNL     1      -3.522 -10.501   0.195  0.00  0.00    +0.000 A 
ATOM     15  C   UNL     1      -2.380 -11.304   0.199  0.00  0.00    +0.010 A 
ATOM     16  C   UNL     1      -2.486 -12.650  -0.086  0.00  0.00    +0.001 A 
ATOM     17  C   UNL     1      -3.718 -13.202  -0.387  0.00  0.00    +0.000 A 
ATOM     18  C   UNL     1      -4.854 -12.411  -0.398  0.00  0.00    +0.001 A 
ATOM     19  C   UNL     1      -4.764 -11.065  -0.109  0.00  0.00    +0.010 A 
ENDBRANCH   2  14
BRANCH   5  20
ATOM     20  S   UNL     1      -3.006  -4.588   0.619  0.00  0.00    -0.080 S 
BRANCH  20  21
ATOM     21  C   UNL     1      -1.214  -4.397   0.789  0.00  0.00    +0.173 C 
BRANCH  21  22
ATOM     22  C   UNL     1      -0.856  -2.934   0.727  0.00  0.00    +0.231 C 
ATOM     23  O   UNL     1      -1.726  -2.103   0.583  0.00  0.00    -0.274 OA
ATOM     24  N   UNL     1       0.432  -2.550   0.832  0.00  0.00    -0.239 N 
ATOM     25  C   UNL     1       0.752  -1.242   0.777  0.00  0.00    +0.310 C 
ATOM     26  O   UNL     1      -0.121  -0.409   0.633  0.00  0.00    -0.252 OA
ATOM     27  N   UNL     1       2.039  -0.859   0.882  0.00  0.00    -0.269 N 
ATOM     28  H   UNL     1       1.222  -3.305   0.963  0.00  0.00    +0.159 HD
ATOM     29  H   UNL     1       2.837  -1.615   0.927  0.00  0.00    +0.156 HD
BRANCH  27  30
ATOM     30  C   UNL     1       2.362   0.502   0.935  0.00  0.00    +0.035 A 
ATOM     31  C   UNL     1       3.550   0.958   0.379  0.00  0.00    +0.023 A 
ATOM     32  C   UNL     1       3.863   2.302   0.429  0.00  0.00    +0.002 A 
ATOM     33  C   UNL     1       3.000   3.192   1.040  0.00  0.00    +0.000 A 
ATOM     34  C   UNL     1       1.819   2.741   1.600  0.00  0.00    +0.002 A 
ATOM     35  C   UNL     1       1.497   1.399   1.549  0.00  0.00    +0.023 A 
ENDBRANCH  27  30
ENDBRANCH  21  22
ENDBRANCH  20  21
ENDBRANCH   5  20
TORSDOF 6
