REMARK  Name = ZINC67418223
REMARK  6 active torsions:
REMARK  status: ('A' for Active; 'I' for Inactive)
REMARK    1  A    between atoms: C_1  and  C_2
REMARK    2  A    between atoms: C_2  and  C_3
REMARK    3  A    between atoms: C_3  and  C_4
REMARK    4  A    between atoms: C_4  and  C_6
REMARK    5  A    between atoms: C_4  and  N_15
REMARK    6  A    between atoms: C_22  and  C_26
REMARK                            x       y       z     vdW  Elec       q    Type
REMARK                         _______ _______ _______ _____ _____    ______ ____
ROOT
ATOM      1  N   UNL     1      -0.305  -2.348   1.265  0.00  0.00    -0.289 N 
ATOM      2  C   UNL     1       0.993  -2.654   1.076  0.00  0.00    +0.303 C 
ATOM      3  O   UNL     1       1.470  -2.616  -0.042  0.00  0.00    -0.253 OA
ATOM      4  N   UNL     1       1.763  -3.002   2.126  0.00  0.00    -0.286 N 
ATOM      5  C   UNL     1       3.208  -3.212   1.905  0.00  0.00    +0.109 C 
ATOM      6  C   UNL     1       4.061  -2.599   3.030  0.00  0.00    +0.020 C 
ATOM      7  C   UNL     1       3.499  -1.259   3.437  0.00  0.00    +0.010 C 
ATOM      8  C   UNL     1       2.515  -1.452   4.587  0.00  0.00    +0.021 C 
ATOM      9  C   UNL     1       1.149  -1.795   4.164  0.00  0.00    +0.027 C 
ATOM     10  C   UNL     1       1.141  -3.148   3.423  0.00  0.00    +0.110 C 
ATOM     11  H   UNL     1      -0.702  -2.438   2.145  0.00  0.00    +0.151 HD
ENDROOT
BRANCH   8  12
ATOM     12  C   UNL     1       2.459  -0.176   5.387  0.00  0.00    -0.044 A 
ATOM     13  C   UNL     1       2.056   1.001   4.784  0.00  0.00    +0.004 A 
ATOM     14  C   UNL     1       2.005   2.171   5.518  0.00  0.00    +0.000 A 
ATOM     15  C   UNL     1       2.356   2.165   6.855  0.00  0.00    +0.000 A 
ATOM     16  C   UNL     1       2.757   0.988   7.458  0.00  0.00    +0.000 A 
ATOM     17  C   UNL     1       2.805  -0.184   6.725  0.00  0.00    +0.004 A 
ENDBRANCH   8  12
BRANCH   1  18
ATOM     18  C   UNL     1      -1.119  -1.879   0.140  0.00  0.00    +0.143 C 
BRANCH  18  19
ATOM     19  C   UNL     1      -2.265  -1.051   0.660  0.00  0.00    +0.158 A 
ATOM     20  N   UNL     1      -3.033  -1.345   1.677  0.00  0.00    -0.132 NA
ATOM     21  N   UNL     1      -3.914  -0.424   1.853  0.00  0.00    -0.129 NA
ATOM     22  C   UNL     1      -3.752   0.521   0.942  0.00  0.00    +0.161 A 
ATOM     23  N   UNL     1      -2.688   0.142   0.161  0.00  0.00    -0.285 N 
ATOM     24  C   UNL     1      -2.274   0.930  -0.873  0.00  0.00    +0.094 A 
ATOM     25  C   UNL     1      -2.901   2.095  -1.141  0.00  0.00    +0.018 A 
ATOM     26  C   UNL     1      -3.992   2.511  -0.358  0.00  0.00    +0.005 A 
ATOM     27  C   UNL     1      -4.420   1.731   0.671  0.00  0.00    +0.048 A 
ENDBRANCH  18  19
BRANCH  18  28
ATOM     28  C   UNL     1      -1.666  -3.082  -0.630  0.00  0.00    +0.030 C 
BRANCH  28  30
ATOM     29  C   UNL     1      -1.054  -5.056  -2.033  0.00  0.00    +0.004 C 
ATOM     30  C   UNL     1      -0.506  -3.853  -1.263  0.00  0.00    -0.001 C 
ENDBRANCH  28  30
ENDBRANCH  18  28
ENDBRANCH   1  18
TORSDOF 5
