REMARK  Name = ZINC39422748
REMARK  10 active torsions:
REMARK  status: ('A' for Active; 'I' for Inactive)
REMARK    1  A    between atoms: C_1  and  C_2
REMARK    2  A    between atoms: C_6  and  N_8
REMARK    3  A    between atoms: C_9  and  C_11
REMARK    4  A    between atoms: C_11  and  C_13
REMARK    5  A    between atoms: C_11  and  O_14
REMARK    6  A    between atoms: O_14  and  C_15
REMARK    7  A    between atoms: C_15  and  C_17
REMARK    8  A    between atoms: C_22  and  N_23
REMARK    9  A    between atoms: N_23  and  S_24
REMARK   10  A    between atoms: S_24  and  C_27
REMARK                            x       y       z     vdW  Elec       q    Type
REMARK                         _______ _______ _______ _____ _____    ______ ____
ROOT
ATOM      1  C   UNL     1       0.520  -8.545   4.180  0.00  0.00    +0.083 A 
ATOM      2  C   UNL     1       0.044  -9.118   2.997  0.00  0.00    +0.017 A 
ATOM      3  C   UNL     1       0.117 -10.481   2.816  0.00  0.00    +0.001 A 
ATOM      4  C   UNL     1       0.661 -11.291   3.801  0.00  0.00    +0.002 A 
ATOM      5  C   UNL     1       1.135 -10.741   4.974  0.00  0.00    +0.027 A 
ATOM      6  C   UNL     1       1.076  -9.367   5.173  0.00  0.00    +0.088 A 
ENDROOT
BRANCH   1   7
ATOM      7  C   UNL     1       0.446  -7.088   4.380  0.00  0.00    +0.342 C 
ATOM      8  O   UNL     1       0.866  -6.594   5.408  0.00  0.00    -0.245 OA
BRANCH   7   9
ATOM      9  O   UNL     1      -0.088  -6.303   3.424  0.00  0.00    -0.449 OA
BRANCH   9  10
ATOM     10  C   UNL     1      -0.129  -4.898   3.686  0.00  0.00    +0.259 C 
ATOM     11  C   UNL     1      -1.444  -4.547   4.383  0.00  0.00    +0.062 C 
BRANCH  10  13
ATOM     12  N   UNL     1       0.052  -2.797   2.393  0.00  0.00    -0.282 N 
ATOM     13  C   UNL     1      -0.031  -4.143   2.385  0.00  0.00    +0.258 C 
ATOM     14  O   UNL     1      -0.028  -4.745   1.333  0.00  0.00    -0.271 OA
ATOM     15  H   UNL     1       0.127  -2.321   3.234  0.00  0.00    +0.155 HD
BRANCH  12  21
ATOM     16  C   UNL     1       1.524   1.061  -0.275  0.00  0.00    +0.044 C 
ATOM     17  C   UNL     1       0.735  -0.215  -0.134  0.00  0.00    -0.049 A 
ATOM     18  C   UNL     1      -0.011  -0.687  -1.199  0.00  0.00    +0.003 A 
ATOM     19  C   UNL     1      -0.737  -1.857  -1.074  0.00  0.00    +0.002 A 
ATOM     20  C   UNL     1      -0.718  -2.559   0.116  0.00  0.00    +0.023 A 
ATOM     21  C   UNL     1       0.031  -2.089   1.186  0.00  0.00    +0.034 A 
ATOM     22  C   UNL     1       0.762  -0.915   1.056  0.00  0.00    +0.026 A 
ENDBRANCH  12  21
ENDBRANCH  10  13
ENDBRANCH   9  10
ENDBRANCH   7   9
ENDBRANCH   1   7
BRANCH   6  23
ATOM     23  N   UNL     1       1.558  -8.811   6.351  0.00  0.00    -0.097 NA
BRANCH  23  24
ATOM     24  S   UNL     1       2.212  -9.785   7.519  0.00  0.00    +0.092 S 
ATOM     25  O   UNL     1       1.154 -10.595   8.012  0.00  0.00    -0.148 OA
ATOM     26  O   UNL     1       3.401 -10.337   6.970  0.00  0.00    -0.148 OA
BRANCH  24  27
ATOM     27  C   UNL     1       2.709  -8.742   8.849  0.00  0.00    +0.112 A 
ATOM     28  C   UNL     1       4.057  -8.186   8.846  0.00  0.00    +0.031 A 
ATOM     29  C   UNL     1       4.501  -7.379   9.834  0.00  0.00    +0.027 A 
ATOM     30  C   UNL     1       3.614  -7.045  10.946  0.00  0.00    +0.056 A 
ATOM     31  N   UNL     1       3.723  -6.317  12.029  0.00  0.00    -0.268 N 
ATOM     32  C   UNL     1       2.533  -6.378  12.714  0.00  0.00    +0.308 C 
ATOM     33  O   UNL     1       2.302  -5.813  13.762  0.00  0.00    -0.252 OA
ATOM     34  N   UNL     1       1.643  -7.175  12.034  0.00  0.00    -0.267 N 
ATOM     35  C   UNL     1       2.229  -7.616  10.949  0.00  0.00    +0.058 A 
ATOM     36  C   UNL     1       1.828  -8.476   9.838  0.00  0.00    +0.054 A 
ATOM     37  H   UNL     1       0.736  -7.377  12.310  0.00  0.00    +0.156 HD
ATOM     38  H   UNL     1       4.510  -5.820  12.301  0.00  0.00    +0.156 HD
ENDBRANCH  24  27
ENDBRANCH  23  24
ENDBRANCH   6  23
TORSDOF 8
