REMARK  Name = ZINC00704084
REMARK  4 active torsions:
REMARK  status: ('A' for Active; 'I' for Inactive)
REMARK    1  A    between atoms: N_9  and  C_10
REMARK    2  A    between atoms: C_10  and  C_11
REMARK    3  A    between atoms: N_18  and  C_19
REMARK    4  A    between atoms: C_19  and  C_21
REMARK                            x       y       z     vdW  Elec       q    Type
REMARK                         _______ _______ _______ _____ _____    ______ ____
ROOT
ATOM      1  C   UNL     1      -0.015   1.377   0.027  0.00  0.00    +0.002 A 
ATOM      2  C   UNL     1       1.172   2.091   0.030  0.00  0.00    +0.002 A 
ATOM      3  C   UNL     1       2.383   1.429   0.016  0.00  0.00    +0.028 A 
ATOM      4  C   UNL     1       2.412   0.042  -0.002  0.00  0.00    +0.068 A 
ATOM      5  C   UNL     1       1.216  -0.678  -0.005  0.00  0.00    +0.066 A 
ATOM      6  C   UNL     1       0.003  -0.003   0.009  0.00  0.00    +0.028 A 
ATOM      7  N   UNL     1       1.549  -2.029  -0.023  0.00  0.00    -0.326 N 
ATOM      8  C   UNL     1       2.906  -2.133  -0.031  0.00  0.00    +0.202 A 
ATOM      9  N   UNL     1       3.450  -0.885  -0.018  0.00  0.00    -0.307 N 
ATOM     10  N   UNL     1       3.590  -3.270  -0.049  0.00  0.00    -0.140 NA
ATOM     11  H   UNL     1       0.922  -2.769  -0.030  0.00  0.00    +0.169 HD
ENDROOT
BRANCH  10  12
ATOM     12  C   UNL     1       2.946  -4.441   0.052  0.00  0.00    +0.305 C 
ATOM     13  O   UNL     1       1.726  -4.468   0.062  0.00  0.00    -0.265 OA
BRANCH  12  14
ATOM     14  C   UNL     1       3.710  -5.694   0.148  0.00  0.00    +0.191 A 
ATOM     15  C   UNL     1       3.183  -6.948   0.249  0.00  0.00    +0.054 A 
ATOM     16  C   UNL     1       4.268  -7.838   0.317  0.00  0.00    +0.042 A 
ATOM     17  C   UNL     1       5.394  -7.096   0.255  0.00  0.00    +0.196 A 
ATOM     18  O   UNL     1       5.054  -5.805   0.147  0.00  0.00    -0.458 OA
ENDBRANCH  12  14
ENDBRANCH  10  12
BRANCH   9  19
ATOM     19  C   UNL     1       4.881  -0.572  -0.021  0.00  0.00    +0.160 C 
BRANCH  19  20
ATOM     20  C   UNL     1       5.378  -0.482   1.399  0.00  0.00    -0.028 A 
ATOM     21  C   UNL     1       5.345   0.727   2.067  0.00  0.00    +0.007 A 
ATOM     22  C   UNL     1       5.801   0.810   3.369  0.00  0.00    +0.020 A 
ATOM     23  C   UNL     1       6.291  -0.317   4.003  0.00  0.00    +0.041 A 
ATOM     24  C   UNL     1       6.324  -1.528   3.334  0.00  0.00    +0.020 A 
ATOM     25  C   UNL     1       5.862  -1.611   2.034  0.00  0.00    +0.007 A 
ATOM     26 CL   UNL     1       6.864  -0.214   5.639  0.00  0.00    -0.084 Cl
ENDBRANCH  19  20
ENDBRANCH   9  19
TORSDOF 4
