REMARK  Name = ZINC09368217
REMARK  9 active torsions:
REMARK  status: ('A' for Active; 'I' for Inactive)
REMARK    1  A    between atoms: C_1  and  C_2
REMARK    2  A    between atoms: C_2  and  S_3
REMARK    3  A    between atoms: S_3  and  C_4
REMARK    4  A    between atoms: C_10  and  C_12
REMARK    5  A    between atoms: C_12  and  S_13
REMARK    6  A    between atoms: S_13  and  C_14
REMARK    7  A    between atoms: C_20  and  C_22
REMARK    8  A    between atoms: C_27  and  O_28
REMARK    9  A    between atoms: O_28  and  C_29
REMARK                            x       y       z     vdW  Elec       q    Type
REMARK                         _______ _______ _______ _____ _____    ______ ____
ROOT
ATOM      1  C   UNL     1      -0.641  -6.966  -0.028  0.00  0.00    +0.160 A 
ATOM      2  N   UNL     1       0.552  -7.542  -0.042  0.00  0.00    -0.133 NA
ATOM      3  N   UNL     1       0.687  -8.796  -0.050  0.00  0.00    -0.125 NA
ATOM      4  C   UNL     1      -0.353  -9.613  -0.045  0.00  0.00    +0.189 A 
ATOM      5  S   UNL     1      -1.687  -8.419  -0.018  0.00  0.00    -0.024 S 
ATOM      6  N   UNL     1      -0.398 -11.004  -0.051  0.00  0.00    -0.259 N 
ATOM      7  C   UNL     1       0.746 -11.715  -0.065  0.00  0.00    +0.253 C 
ATOM      8  O   UNL     1       1.819 -11.142  -0.072  0.00  0.00    -0.270 OA
ATOM      9  H   UNL     1      -1.254 -11.462  -0.046  0.00  0.00    +0.157 HD
ENDROOT
BRANCH   7  10
ATOM     10  C   UNL     1       0.699 -13.190  -0.072  0.00  0.00    +0.080 A 
ATOM     11  C   UNL     1      -0.531 -13.853  -0.064  0.00  0.00    +0.036 A 
ATOM     12  C   UNL     1      -0.568 -15.231  -0.070  0.00  0.00    +0.042 A 
ATOM     13  C   UNL     1       0.610 -15.962  -0.085  0.00  0.00    +0.023 A 
ATOM     14  C   UNL     1       1.831 -15.319  -0.093  0.00  0.00    +0.048 A 
ATOM     15  C   UNL     1       1.887 -13.933  -0.092  0.00  0.00    +0.132 A 
ATOM     16 CL   UNL     1      -2.097 -16.054  -0.061  0.00  0.00    -0.084 Cl
BRANCH  15  17
ATOM     17  O   UNL     1       3.087 -13.299  -0.106  0.00  0.00    -0.494 OA
ATOM     18  C   UNL     1       4.255 -14.122  -0.126  0.00  0.00    +0.277 C 
ENDBRANCH  15  17
ENDBRANCH   7  10
BRANCH   1  19
ATOM     19  S   UNL     1      -1.074  -5.258  -0.015  0.00  0.00    -0.088 S 
BRANCH  19  20
ATOM     20  C   UNL     1       0.524  -4.400  -0.026  0.00  0.00    +0.172 C 
BRANCH  20  27
ATOM     21  C   UNL     1       1.100   1.973   0.002  0.00  0.00    +0.160 A 
ATOM     22  N   UNL     1      -0.015   1.257   0.009  0.00  0.00    -0.133 NA
ATOM     23  N   UNL     1       0.002  -0.004   0.002  0.00  0.00    -0.125 NA
ATOM     24  C   UNL     1       1.133  -0.690  -0.013  0.00  0.00    +0.189 A 
ATOM     25  S   UNL     1       2.314   0.656  -0.017  0.00  0.00    -0.024 S 
ATOM     26  N   UNL     1       1.345  -2.067  -0.021  0.00  0.00    -0.263 N 
ATOM     27  C   UNL     1       0.294  -2.910  -0.016  0.00  0.00    +0.229 C 
ATOM     28  O   UNL     1      -0.836  -2.471  -0.003  0.00  0.00    -0.275 OA
ATOM     29  H   UNL     1       2.249  -2.418  -0.032  0.00  0.00    +0.157 HD
BRANCH  21  30
ATOM     30  S   UNL     1       1.324   3.720   0.009  0.00  0.00    -0.097 S 
BRANCH  30  32
ATOM     31  C   UNL     1      -0.316   5.909   0.035  0.00  0.00    +0.016 C 
ATOM     32  C   UNL     1      -0.365   4.380   0.028  0.00  0.00    +0.073 C 
ENDBRANCH  30  32
ENDBRANCH  21  30
ENDBRANCH  20  27
ENDBRANCH  19  20
ENDBRANCH   1  19
TORSDOF 7
