REMARK  Name = ZINC20810771
REMARK  9 active torsions:
REMARK  status: ('A' for Active; 'I' for Inactive)
REMARK    1  A    between atoms: C_1  and  C_2
REMARK    2  A    between atoms: C_6  and  C_38
REMARK    3  A    between atoms: C_7  and  N_8
REMARK    4  A    between atoms: C_9  and  C_11
REMARK    5  A    between atoms: C_11  and  N_12
REMARK    6  A    between atoms: N_15  and  C_18
REMARK    7  A    between atoms: C_18  and  C_20
REMARK    8  A    between atoms: C_18  and  C_21
REMARK    9  A    between atoms: C_33  and  C_37
REMARK                            x       y       z     vdW  Elec       q    Type
REMARK                         _______ _______ _______ _____ _____    ______ ____
ROOT
ATOM      1  N   UNL     1      -0.826  -0.929   5.950  0.00  0.00    -0.298 NA
ATOM      2  C   UNL     1      -2.152  -1.563   5.947  0.00  0.00    +0.066 C 
ATOM      3  C   UNL     1      -2.211  -2.623   7.050  0.00  0.00    -0.062 C 
ATOM      4  N   UNL     1      -1.955  -1.990   8.350  0.00  0.00    +0.388 N 
ATOM      5  C   UNL     1      -0.617  -1.383   8.347  0.00  0.00    -0.062 C 
ATOM      6  C   UNL     1      -0.546  -0.313   7.254  0.00  0.00    +0.066 C 
ATOM      7  H   UNL     1      -2.648  -1.276   8.519  0.00  0.00    -0.081 HD
ENDROOT
BRANCH   4   8
ATOM      8  C   UNL     1      -2.029  -3.004   9.411  0.00  0.00    -0.004 C 
ATOM      9  C   UNL     1      -3.361  -3.750   9.311  0.00  0.00    -0.005 C 
BRANCH   8  10
ATOM     10  C   UNL     1      -1.929  -2.332  10.756  0.00  0.00    +0.097 A 
ATOM     11  N   UNL     1      -2.056  -3.076  11.884  0.00  0.00    -0.312 N 
ATOM     12  H   UNL     1      -2.209  -4.031  11.809  0.00  0.00    +0.170 HD
ATOM     13  C   UNL     1      -1.973  -2.517  13.106  0.00  0.00    +0.260 A 
ATOM     14  O   UNL     1      -2.089  -3.199  14.109  0.00  0.00    -0.267 OA
ATOM     15  C   UNL     1      -1.747  -1.105  13.207  0.00  0.00    +0.075 A 
ATOM     16  C   UNL     1      -1.622  -0.289  14.414  0.00  0.00    -0.023 A 
ATOM     17  C   UNL     1      -1.409   1.032  14.240  0.00  0.00    -0.004 A 
ATOM     18  S   UNL     1      -1.364   1.263  12.483  0.00  0.00    -0.073 S 
ATOM     19  C   UNL     1      -1.630  -0.420  11.987  0.00  0.00    +0.116 A 
ATOM     20  N   UNL     1      -1.718  -1.044  10.816  0.00  0.00    -0.228 NA
ATOM     21  C   UNL     1      -1.246   2.073  15.306  0.00  0.00    +0.046 C 
ATOM     22  C   UNL     1      -0.984   1.362  16.641  0.00  0.00    -0.009 C 
ATOM     23  C   UNL     1      -2.013   0.241  16.810  0.00  0.00    +0.008 C 
ATOM     24  C   UNL     1      -1.724  -0.884  15.816  0.00  0.00    +0.037 C 
ATOM     25  C   UNL     1      -1.118   2.364  17.790  0.00  0.00    +0.008 C 
ENDBRANCH   8  10
ENDBRANCH   4   8
BRANCH   1  26
ATOM     26  C   UNL     1      -0.711   0.056   4.867  0.00  0.00    +0.180 C 
BRANCH  26  28
ATOM     27  N   UNL     1      -0.673   0.056   2.393  0.00  0.00    -0.284 N 
ATOM     28  C   UNL     1      -0.761  -0.652   3.537  0.00  0.00    +0.231 C 
ATOM     29  O   UNL     1      -0.881  -1.858   3.496  0.00  0.00    -0.274 OA
ATOM     30  H   UNL     1      -0.626   1.024   2.424  0.00  0.00    +0.155 HD
BRANCH  27  37
ATOM     31  C   UNL     1       1.306  -1.948   1.984  0.00  0.00    +0.045 C 
ATOM     32  C   UNL     1       0.300  -1.591   0.919  0.00  0.00    -0.029 A 
ATOM     33  C   UNL     1       0.318  -2.247  -0.296  0.00  0.00    +0.005 A 
ATOM     34  C   UNL     1      -0.603  -1.920  -1.274  0.00  0.00    +0.001 A 
ATOM     35  C   UNL     1      -1.546  -0.936  -1.038  0.00  0.00    +0.005 A 
ATOM     36  C   UNL     1      -1.569  -0.277   0.175  0.00  0.00    -0.029 A 
ATOM     37  C   UNL     1      -0.648  -0.606   1.161  0.00  0.00    +0.039 A 
ATOM     38  C   UNL     1      -2.596   0.796   0.431  0.00  0.00    +0.045 C 
ENDBRANCH  27  37
ENDBRANCH  26  28
ENDBRANCH   1  26
TORSDOF 5
