REMARK  Name = ZINC03545313
REMARK  8 active torsions:
REMARK  status: ('A' for Active; 'I' for Inactive)
REMARK    1  A    between atoms: C_1  and  C_2
REMARK    2  A    between atoms: C_5  and  N_8
REMARK    3  A    between atoms: C_9  and  C_11
REMARK    4  A    between atoms: C_11  and  C_12
REMARK    5  A    between atoms: C_14  and  C_17
REMARK    6  A    between atoms: C_17  and  S_18
REMARK    7  A    between atoms: S_18  and  C_19
REMARK    8  A    between atoms: N_23  and  C_24
REMARK                            x       y       z     vdW  Elec       q    Type
REMARK                         _______ _______ _______ _____ _____    ______ ____
ROOT
ATOM      1  C   UNL     1       3.707   6.192   0.314  0.00  0.00    +0.087 A 
ATOM      2  N   UNL     1       4.516   6.553  -0.655  0.00  0.00    -0.248 NA
ATOM      3  C   UNL     1       5.731   6.994  -0.407  0.00  0.00    +0.059 A 
ATOM      4  C   UNL     1       6.143   7.058   0.885  0.00  0.00    +0.071 A 
ATOM      5  S   UNL     1       4.684   6.457   1.725  0.00  0.00    -0.080 S 
ENDROOT
BRANCH   1   6
ATOM      6  C   UNL     1       2.295   5.673   0.225  0.00  0.00    +0.159 C 
BRANCH   6   8
ATOM      7  N   UNL     1       1.162   3.485   0.009  0.00  0.00    -0.285 N 
ATOM      8  C   UNL     1       2.318   4.171   0.104  0.00  0.00    +0.224 C 
ATOM      9  O   UNL     1       3.377   3.580   0.091  0.00  0.00    -0.275 OA
ATOM     10  H   UNL     1       0.206   4.025  -0.067  0.00  0.00    +0.155 HD
BRANCH   7  15
ATOM     11  C   UNL     1       1.221  -2.188   0.005  0.00  0.00    +0.044 C 
ATOM     12  C   UNL     1       1.206  -0.681   0.006  0.00  0.00    -0.050 A 
ATOM     13  C   UNL     1       2.145   0.019   0.741  0.00  0.00    +0.005 A 
ATOM     14  C   UNL     1       2.133   1.400   0.745  0.00  0.00    +0.023 A 
ATOM     15  C   UNL     1       1.177   2.086   0.008  0.00  0.00    +0.033 A 
ATOM     16  C   UNL     1       0.236   1.381  -0.731  0.00  0.00    +0.023 A 
ATOM     17  C   UNL     1       0.253  -0.000  -0.729  0.00  0.00    +0.005 A 
ENDBRANCH   7  15
ENDBRANCH   6   8
ENDBRANCH   1   6
BRANCH   3  18
ATOM     18  C   UNL     1       6.645   7.412  -1.530  0.00  0.00    +0.133 C 
BRANCH  18  19
ATOM     19  S   UNL     1       7.604   5.982  -2.090  0.00  0.00    -0.080 S 
BRANCH  19  20
ATOM     20  C   UNL     1       8.558   6.735  -3.367  0.00  0.00    +0.192 A 
ATOM     21  N   UNL     1       8.513   7.995  -3.735  0.00  0.00    -0.123 NA
ATOM     22  N   UNL     1       9.342   8.198  -4.696  0.00  0.00    -0.137 NA
ATOM     23  C   UNL     1       9.960   7.091  -4.996  0.00  0.00    +0.225 A 
ATOM     24  N   UNL     1       9.487   6.120  -4.156  0.00  0.00    -0.312 N 
ATOM     25  C   UNL     1       9.890   4.713  -4.114  0.00  0.00    +0.152 C 
ENDBRANCH  19  20
ENDBRANCH  18  19
ENDBRANCH   3  18
TORSDOF 6
