REMARK  Name = ZINC39699305
REMARK  10 active torsions:
REMARK  status: ('A' for Active; 'I' for Inactive)
REMARK    1  A    between atoms: C_1  and  C_2
REMARK    2  A    between atoms: C_4  and  C_33
REMARK    3  A    between atoms: C_9  and  C_14
REMARK    4  A    between atoms: C_14  and  C_16
REMARK    5  A    between atoms: C_14  and  N_26
REMARK    6  A    between atoms: N_21  and  C_22
REMARK    7  A    between atoms: C_22  and  C_23
REMARK    8  A    between atoms: C_22  and  C_24
REMARK    9  A    between atoms: C_22  and  C_25
REMARK   10  A    between atoms: C_29  and  O_32
REMARK                            x       y       z     vdW  Elec       q    Type
REMARK                         _______ _______ _______ _____ _____    ______ ____
ROOT
ATOM      1  C   UNL     1      -1.133  -4.455   3.160  0.00  0.00    -0.011 C 
ENDROOT
BRANCH   1  10
ATOM      2  C   UNL     1       5.359  -2.573   5.466  0.00  0.00    +0.044 C 
ATOM      3  C   UNL     1       3.949  -2.276   5.024  0.00  0.00    -0.050 A 
ATOM      4  C   UNL     1       3.347  -1.081   5.417  0.00  0.00    +0.008 A 
ATOM      5  C   UNL     1       2.081  -0.744   5.057  0.00  0.00    -0.028 A 
ATOM      6  C   UNL     1       1.313  -1.609   4.256  0.00  0.00    +0.043 A 
ATOM      7  N   UNL     1       0.072  -1.268   3.908  0.00  0.00    -0.284 N 
ATOM      8  C   UNL     1      -0.704  -2.034   3.159  0.00  0.00    +0.223 C 
ATOM      9  O   UNL     1      -1.829  -1.669   2.874  0.00  0.00    -0.275 OA
ATOM     10  C   UNL     1      -0.187  -3.363   2.657  0.00  0.00    +0.088 C 
ATOM     11  C   UNL     1       1.224  -3.755   3.049  0.00  0.00    -0.006 C 
ATOM     12  C   UNL     1       1.923  -2.879   3.826  0.00  0.00    -0.007 A 
ATOM     13  C   UNL     1       3.293  -3.176   4.246  0.00  0.00    +0.012 A 
ATOM     14  C   UNL     1       1.495   0.565   5.519  0.00  0.00    +0.046 C 
ATOM     15  H   UNL     1      -0.279  -0.419   4.220  0.00  0.00    +0.155 HD
ENDBRANCH   1  10
BRANCH   1  16
ATOM     16  N   UNL     1      -0.692  -5.759   2.649  0.00  0.00    +0.385 N 
ATOM     17  C   UNL     1      -1.692  -6.779   2.986  0.00  0.00    -0.076 C 
ATOM     18  C   UNL     1      -1.199  -8.153   2.527  0.00  0.00    +0.013 C 
ATOM     19  C   UNL     1      -0.980  -8.131   1.011  0.00  0.00    +0.111 C 
ATOM     20  C   UNL     1       0.008  -7.014   0.664  0.00  0.00    +0.013 C 
ATOM     21  C   UNL     1      -0.529  -5.683   1.192  0.00  0.00    -0.076 C 
ATOM     22  H   UNL     1       0.191  -6.004   3.072  0.00  0.00    -0.081 HD
BRANCH  19  23
ATOM     23  O   UNL     1      -0.450  -9.388   0.587  0.00  0.00    -0.392 OA
ATOM     24  H   UNL     1      -0.286  -9.445  -0.365  0.00  0.00    +0.210 HD
ENDBRANCH  19  23
ENDBRANCH   1  16
BRANCH   1  25
ATOM     25  C   UNL     1      -1.121  -4.476   4.690  0.00  0.00    +0.183 C 
ATOM     26  N   UNL     1       0.074  -5.180   5.192  0.00  0.00    -0.229 N 
ATOM     27  N   UNL     1      -0.406  -6.279   5.915  0.00  0.00    -0.064 NA
ATOM     28  N   UNL     1      -1.632  -6.341   5.924  0.00  0.00    -0.061 NA
ATOM     29  N   UNL     1      -2.233  -5.293   5.210  0.00  0.00    -0.211 N 
ATOM     30  H   UNL     1       1.001  -4.933   5.051  0.00  0.00    +0.172 HD
BRANCH  29  31
ATOM     31  C   UNL     1      -3.667  -5.057   5.018  0.00  0.00    +0.047 C 
ATOM     32  C   UNL     1      -4.051  -5.393   3.576  0.00  0.00    +0.033 C 
ATOM     33  C   UNL     1      -4.462  -5.944   5.978  0.00  0.00    +0.033 C 
ATOM     34  C   UNL     1      -3.984  -3.587   5.301  0.00  0.00    +0.033 C 
ENDBRANCH  29  31
ENDBRANCH   1  25
TORSDOF 5
