REMARK  Name = ZINC33988380
REMARK  8 active torsions:
REMARK  status: ('A' for Active; 'I' for Inactive)
REMARK    1  A    between atoms: C_1  and  C_2
REMARK    2  A    between atoms: C_18  and  C_33
REMARK    3  A    between atoms: C_20  and  O_31
REMARK    4  A    between atoms: C_23  and  C_30
REMARK    5  A    between atoms: C_24  and  C_25
REMARK    6  A    between atoms: C_24  and  O_29
REMARK    7  A    between atoms: C_25  and  C_27
REMARK    8  A    between atoms: C_27  and  O_28
REMARK                            x       y       z     vdW  Elec       q    Type
REMARK                         _______ _______ _______ _____ _____    ______ ____
ROOT
ATOM      1  C   UNL     1       0.122   1.626   0.145  0.00  0.00    +0.011 C 
ATOM      2  C   UNL     1       0.104   0.100   0.028  0.00  0.00    +0.026 C 
ATOM      3  C   UNL     1      -1.363  -0.413  -0.022  0.00  0.00    +0.011 C 
ATOM      4  C   UNL     1      -1.595  -0.902   1.412  0.00  0.00    +0.005 C 
ATOM      5  C   UNL     1      -2.789  -1.748   1.697  0.00  0.00    +0.037 C 
ATOM      6  C   UNL     1      -3.026  -2.900   0.724  0.00  0.00    +0.048 C 
ATOM      7  C   UNL     1      -4.525  -3.221   0.826  0.00  0.00    +0.194 C 
ATOM      8  C   UNL     1      -4.888  -3.417   2.275  0.00  0.00    -0.020 C 
ATOM      9  C   UNL     1      -6.135  -3.871   2.522  0.00  0.00    +0.054 C 
ATOM     10  C   UNL     1      -6.504  -4.088   3.942  0.00  0.00    +0.179 C 
ATOM     11  O   UNL     1      -7.232  -5.001   4.296  0.00  0.00    -0.288 OA
ATOM     12  C   UNL     1      -5.927  -3.115   4.905  0.00  0.00    +0.047 C 
ATOM     13  C   UNL     1      -4.687  -2.670   4.641  0.00  0.00    -0.009 C 
ATOM     14  C   UNL     1      -3.961  -3.156   3.414  0.00  0.00    +0.047 C 
ATOM     15  C   UNL     1      -2.757  -2.293   3.129  0.00  0.00    +0.153 C 
ATOM     16  C   UNL     1      -1.420  -2.902   3.507  0.00  0.00    +0.154 C 
ATOM     17  C   UNL     1      -0.245  -1.948   3.201  0.00  0.00    +0.044 C 
ATOM     18  C   UNL     1      -0.260  -1.606   1.731  0.00  0.00    +0.010 C 
ATOM     19  C   UNL     1       0.751  -0.537   1.284  0.00  0.00    +0.134 C 
ATOM     20  C   UNL     1      -0.023  -2.851   0.880  0.00  0.00    +0.015 C 
ATOM     21  F   UNL     1      -2.907  -1.154   3.962  0.00  0.00    -0.238 F 
ATOM     22  C   UNL     1      -3.462  -4.547   3.797  0.00  0.00    +0.023 C 
ATOM     23  F   UNL     1      -5.263  -2.157   0.304  0.00  0.00    -0.241 F 
ENDROOT
BRANCH  19  24
ATOM     24  C   UNL     1       2.062  -1.185   0.929  0.00  0.00    +0.190 C 
ATOM     25  O   UNL     1       2.267  -1.554  -0.202  0.00  0.00    -0.292 OA
BRANCH  24  26
ATOM     26  C   UNL     1       3.119  -1.374   1.987  0.00  0.00    +0.233 C 
BRANCH  26  27
ATOM     27  O   UNL     1       4.263  -2.007   1.409  0.00  0.00    -0.387 OA
ATOM     28  H   UNL     1       4.985  -2.160   2.034  0.00  0.00    +0.210 HD
ENDBRANCH  26  27
ENDBRANCH  24  26
ENDBRANCH  19  24
BRANCH  19  29
ATOM     29  O   UNL     1       0.927   0.437   2.309  0.00  0.00    -0.380 OA
ATOM     30  H   UNL     1       1.512   1.167   2.062  0.00  0.00    +0.211 HD
ENDBRANCH  19  29
BRANCH  16  31
ATOM     31  O   UNL     1      -1.381  -3.125   4.927  0.00  0.00    -0.389 OA
ATOM     32  H   UNL     1      -0.554  -3.514   5.242  0.00  0.00    +0.210 HD
ENDBRANCH  16  31
TORSDOF 5
