REMARK  Name = ZINC57316462
REMARK  8 active torsions:
REMARK  status: ('A' for Active; 'I' for Inactive)
REMARK    1  A    between atoms: C_4  and  C_7
REMARK    2  A    between atoms: C_7  and  C_8
REMARK    3  A    between atoms: C_7  and  C_14
REMARK    4  A    between atoms: N_16  and  C_17
REMARK    5  A    between atoms: C_17  and  N_19
REMARK    6  A    between atoms: N_19  and  C_20
REMARK    7  A    between atoms: C_20  and  C_21
REMARK    8  A    between atoms: C_24  and  C_26
REMARK                            x       y       z     vdW  Elec       q    Type
REMARK                         _______ _______ _______ _____ _____    ______ ____
ROOT
ATOM      1  C   UNL     1       3.700  -1.661  -1.204  0.00  0.00    +0.230 C 
ATOM      2  O   UNL     1       3.810  -2.854  -1.013  0.00  0.00    -0.274 OA
ATOM      3  N   UNL     1       3.568  -1.190  -2.459  0.00  0.00    -0.267 N 
ATOM      4  H   UNL     1       3.480  -0.236  -2.612  0.00  0.00    +0.157 HD
ENDROOT
BRANCH   3   5
ATOM      5  C   UNL     1       3.558  -2.043  -3.502  0.00  0.00    +0.137 C 
ATOM      6  S   UNL     1       3.713  -3.727  -3.233  0.00  0.00    -0.018 S 
BRANCH   5   7
ATOM      7  N   UNL     1       3.425  -1.571  -4.758  0.00  0.00    -0.319 N 
ATOM      8  H   UNL     1       3.337  -0.617  -4.911  0.00  0.00    +0.148 HD
BRANCH   7   9
ATOM      9  C   UNL     1       3.414  -2.499  -5.892  0.00  0.00    +0.177 C 
BRANCH   9  10
ATOM     10  C   UNL     1       3.256  -1.723  -7.174  0.00  0.00    +0.123 A 
ATOM     11  C   UNL     1       4.261  -1.236  -7.927  0.00  0.00    +0.047 A 
ATOM     12  C   UNL     1       3.673  -0.583  -9.028  0.00  0.00    +0.050 A 
ATOM     13  C   UNL     1       2.327  -0.709  -8.885  0.00  0.00    +0.135 A 
ATOM     14  O   UNL     1       2.088  -1.408  -7.759  0.00  0.00    -0.458 OA
BRANCH  13  15
ATOM     15  C   UNL     1       1.303  -0.176  -9.808  0.00  0.00    +0.017 A 
ATOM     16  C   UNL     1       1.687   0.524 -10.953  0.00  0.00    +0.012 A 
ATOM     17  C   UNL     1       0.727   1.019 -11.811  0.00  0.00    +0.016 A 
ATOM     18  C   UNL     1      -0.616   0.822 -11.538  0.00  0.00    +0.018 A 
ATOM     19  C   UNL     1      -1.004   0.128 -10.405  0.00  0.00    +0.016 A 
ATOM     20  C   UNL     1      -0.053  -0.377  -9.542  0.00  0.00    +0.012 A 
ATOM     21 BR   UNL     1      -1.926   1.505 -12.719  0.00  0.00    -0.050 Br
ENDBRANCH  13  15
ENDBRANCH   9  10
ENDBRANCH   7   9
ENDBRANCH   5   7
ENDBRANCH   3   5
BRANCH   1  22
ATOM     22  C   UNL     1       3.711  -0.707  -0.038  0.00  0.00    +0.135 C 
BRANCH  22  26
ATOM     23  C   UNL     1       0.035   1.467   0.061  0.00  0.00    +0.000 A 
ATOM     24  C   UNL     1       0.020   0.087  -0.022  0.00  0.00    +0.000 A 
ATOM     25  C   UNL     1       1.210  -0.617  -0.054  0.00  0.00    +0.005 A 
ATOM     26  C   UNL     1       2.414   0.060  -0.004  0.00  0.00    -0.031 A 
ATOM     27  C   UNL     1       2.429   1.440   0.079  0.00  0.00    +0.005 A 
ATOM     28  C   UNL     1       1.240   2.143   0.112  0.00  0.00    +0.000 A 
ENDBRANCH  22  26
BRANCH  22  29
ATOM     29  C   UNL     1       3.870  -1.483   1.245  0.00  0.00    -0.031 A 
ATOM     30  C   UNL     1       3.012  -2.528   1.531  0.00  0.00    +0.005 A 
ATOM     31  C   UNL     1       3.158  -3.240   2.707  0.00  0.00    +0.000 A 
ATOM     32  C   UNL     1       4.161  -2.906   3.597  0.00  0.00    +0.000 A 
ATOM     33  C   UNL     1       5.020  -1.861   3.310  0.00  0.00    +0.000 A 
ATOM     34  C   UNL     1       4.877  -1.153   2.132  0.00  0.00    +0.005 A 
ENDBRANCH  22  29
ENDBRANCH   1  22
TORSDOF 8
