REMARK  Name = ZINC24970699
REMARK  12 active torsions:
REMARK  status: ('A' for Active; 'I' for Inactive)
REMARK    1  A    between atoms: C_1  and  C_2
REMARK    2  A    between atoms: C_2  and  N_3
REMARK    3  A    between atoms: N_3  and  C_4
REMARK    4  A    between atoms: N_3  and  S_6
REMARK    5  A    between atoms: C_4  and  C_5
REMARK    6  A    between atoms: S_6  and  C_9
REMARK    7  A    between atoms: C_12  and  O_32
REMARK    8  A    between atoms: C_13  and  N_15
REMARK    9  A    between atoms: C_16  and  C_18
REMARK   10  A    between atoms: C_18  and  N_19
REMARK   11  A    between atoms: C_27  and  C_29
REMARK   12  A    between atoms: O_32  and  C_33
REMARK                            x       y       z     vdW  Elec       q    Type
REMARK                         _______ _______ _______ _____ _____    ______ ____
ROOT
ATOM      1  N   UNL     1      -2.886   3.582   0.059  0.00  0.00    -0.284 N 
ATOM      2  C   UNL     1      -2.865   4.759   0.716  0.00  0.00    +0.201 C 
ATOM      3  O   UNL     1      -1.830   5.164   1.202  0.00  0.00    -0.278 OA
ATOM      4  H   UNL     1      -3.806   3.249  -0.443  0.00  0.00    +0.155 HD
ENDROOT
BRANCH   1   9
ATOM      5  C   UNL     1       0.652   2.584  -0.080  0.00  0.00    +0.107 A 
ATOM      6  C   UNL     1       0.540   1.206  -0.072  0.00  0.00    +0.032 A 
ATOM      7  C   UNL     1      -0.707   0.611  -0.020  0.00  0.00    +0.049 A 
ATOM      8  C   UNL     1      -1.848   1.396   0.018  0.00  0.00    +0.141 A 
ATOM      9  C   UNL     1      -1.735   2.784   0.015  0.00  0.00    +0.077 A 
ATOM     10  C   UNL     1      -0.481   3.374  -0.037  0.00  0.00    +0.055 A 
BRANCH   5  11
ATOM     11  S   UNL     1       2.245   3.336  -0.145  0.00  0.00    +0.061 S 
ATOM     12  O   UNL     1       2.103   4.637   0.408  0.00  0.00    -0.153 OA
ATOM     13  O   UNL     1       3.164   2.384   0.372  0.00  0.00    -0.153 OA
BRANCH  11  14
ATOM     14  N   UNL     1       2.625   3.540  -1.744  0.00  0.00    -0.177 NA
BRANCH  14  16
ATOM     15  C   UNL     1       3.432   5.752  -2.405  0.00  0.00    +0.022 C 
ATOM     16  C   UNL     1       2.252   4.778  -2.433  0.00  0.00    +0.106 C 
ENDBRANCH  14  16
BRANCH  14  17
ATOM     17  C   UNL     1       3.333   2.483  -2.470  0.00  0.00    +0.106 C 
ATOM     18  C   UNL     1       2.321   1.599  -3.200  0.00  0.00    +0.022 C 
ENDBRANCH  14  17
ENDBRANCH  11  14
ENDBRANCH   5  11
BRANCH   8  19
ATOM     19  O   UNL     1      -3.075   0.812   0.063  0.00  0.00    -0.493 OA
ATOM     20  C   UNL     1      -3.114  -0.617   0.069  0.00  0.00    +0.277 C 
ENDBRANCH   8  19
ENDBRANCH   1   9
BRANCH   2  21
ATOM     21  C   UNL     1      -4.128   5.571   0.848  0.00  0.00    +0.020 C 
BRANCH  21  22
ATOM     22  N   UNL     1      -3.843   6.800   1.601  0.00  0.00    +0.390 N 
ATOM     23  C   UNL     1      -3.446   6.491   2.982  0.00  0.00    -0.072 C 
ATOM     24  C   UNL     1      -2.773   7.732   3.593  0.00  0.00    +0.024 C 
ATOM     25  C   UNL     1      -3.627   8.916   3.276  0.00  0.00    -0.010 A 
ATOM     26  C   UNL     1      -4.638   8.968   2.364  0.00  0.00    -0.051 A 
ATOM     27  C   UNL     1      -5.302  10.186   2.240  0.00  0.00    +0.010 A 
ATOM     28  C   UNL     1      -4.931  11.240   3.003  0.00  0.00    +0.045 A 
ATOM     29  S   UNL     1      -3.590  10.548   3.961  0.00  0.00    -0.101 S 
ATOM     30  C   UNL     1      -4.982   7.725   1.548  0.00  0.00    -0.033 C 
ATOM     31  H   UNL     1      -2.992   7.307   1.124  0.00  0.00    -0.080 HD
BRANCH  30  32
ATOM     32  C   UNL     1      -5.257   8.119   0.096  0.00  0.00    -0.020 C 
ATOM     33  C   UNL     1      -4.987   9.571  -0.305  0.00  0.00    +0.002 C 
ATOM     34  C   UNL     1      -6.427   9.069  -0.170  0.00  0.00    +0.002 C 
ENDBRANCH  30  32
ENDBRANCH  21  22
ENDBRANCH   2  21
TORSDOF 9
