REMARK  Name = ZINC14846050
REMARK  5 active torsions:
REMARK  status: ('A' for Active; 'I' for Inactive)
REMARK    1  A    between atoms: C_6  and  C_7
REMARK    2  A    between atoms: C_9  and  C_12
REMARK    3  A    between atoms: C_12  and  S_13
REMARK    4  A    between atoms: S_13  and  C_14
REMARK    5  A    between atoms: C_18  and  N_20
REMARK                            x       y       z     vdW  Elec       q    Type
REMARK                         _______ _______ _______ _____ _____    ______ ____
ROOT
ATOM      1  C   UNL     1      -2.864  -4.077   0.020  0.00  0.00    +0.133 C 
ENDROOT
BRANCH   1   4
ATOM      2  C   UNL     1      -1.267  -0.763   0.011  0.00  0.00    +0.109 A 
ATOM      3  N   UNL     1      -1.462  -2.074   0.011  0.00  0.00    -0.243 NA
ATOM      4  C   UNL     1      -2.673  -2.582   0.020  0.00  0.00    +0.059 A 
ATOM      5  C   UNL     1      -3.753  -1.758   0.029  0.00  0.00    +0.071 A 
ATOM      6  S   UNL     1      -2.950  -0.160   0.031  0.00  0.00    -0.075 S 
BRANCH   2  12
ATOM      7  C   UNL     1      -0.017   1.391   0.010  0.00  0.00    +0.013 A 
ATOM      8  C   UNL     1       1.169   2.095   0.002  0.00  0.00    +0.039 A 
ATOM      9  C   UNL     1       2.379   1.418  -0.013  0.00  0.00    +0.123 A 
ATOM     10  C   UNL     1       2.403   0.033  -0.021  0.00  0.00    +0.039 A 
ATOM     11  C   UNL     1       1.223  -0.680  -0.014  0.00  0.00    +0.013 A 
ATOM     12  C   UNL     1       0.002  -0.004   0.002  0.00  0.00    +0.007 A 
ATOM     13  F   UNL     1       3.538   2.112  -0.022  0.00  0.00    -0.205 F 
ENDBRANCH   2  12
ENDBRANCH   1   4
BRANCH   1  14
ATOM     14  S   UNL     1      -2.928  -4.679   1.730  0.00  0.00    -0.080 S 
BRANCH  14  15
ATOM     15  C   UNL     1      -3.151  -6.419   1.561  0.00  0.00    +0.192 A 
ATOM     16  N   UNL     1      -3.222  -6.946   0.348  0.00  0.00    -0.207 NA
ATOM     17  C   UNL     1      -3.390  -8.255   0.182  0.00  0.00    +0.122 A 
ATOM     18  C   UNL     1      -3.492  -9.073   1.304  0.00  0.00    +0.086 A 
ATOM     19  C   UNL     1      -3.412  -8.483   2.563  0.00  0.00    +0.122 A 
ATOM     20  N   UNL     1      -3.239  -7.167   2.652  0.00  0.00    -0.207 NA
ATOM     21  N   UNL     1      -3.464  -8.799  -1.091  0.00  0.00    -0.343 N 
ATOM     22  H   UNL     1      -3.393  -8.223  -1.869  0.00  0.00    +0.144 HD
ATOM     23  H   UNL     1      -3.587  -9.754  -1.204  0.00  0.00    +0.144 HD
BRANCH  19  24
ATOM     24  N   UNL     1      -3.508  -9.258   3.708  0.00  0.00    -0.343 N 
ATOM     25  H   UNL     1      -3.631 -10.217   3.636  0.00  0.00    +0.144 HD
ATOM     26  H   UNL     1      -3.452  -8.840   4.582  0.00  0.00    +0.144 HD
ENDBRANCH  19  24
ENDBRANCH  14  15
ENDBRANCH   1  14
TORSDOF 5
