REMARK  Name = ZINC54641555
REMARK  9 active torsions:
REMARK  status: ('A' for Active; 'I' for Inactive)
REMARK    1  A    between atoms: C_1  and  C_2
REMARK    2  A    between atoms: C_2  and  C_3
REMARK    3  A    between atoms: C_3  and  O_4
REMARK    4  A    between atoms: O_4  and  C_5
REMARK    5  A    between atoms: C_10  and  C_11
REMARK    6  A    between atoms: C_13  and  C_22
REMARK    7  A    between atoms: C_14  and  C_21
REMARK    8  A    between atoms: C_22  and  O_24
REMARK    9  A    between atoms: O_24  and  C_25
REMARK                            x       y       z     vdW  Elec       q    Type
REMARK                         _______ _______ _______ _____ _____    ______ ____
ROOT
ATOM      1  C   UNL     1       0.673  -4.763  -1.290  0.00  0.00    +0.184 C 
ATOM      2  C   UNL     1       1.695  -5.573  -0.536  0.00  0.00    +0.082 C 
ATOM      3  C   UNL     1       1.877  -6.888  -0.733  0.00  0.00    +0.020 C 
ATOM      4  N   UNL     1       1.131  -7.605  -1.636  0.00  0.00    -0.286 N 
ATOM      5  C   UNL     1       0.004  -6.991  -2.161  0.00  0.00    +0.240 A 
ATOM      6  N   UNL     1      -0.227  -5.661  -2.003  0.00  0.00    -0.201 N 
ATOM      7  N   UNL     1      -1.437  -5.411  -2.648  0.00  0.00    -0.042 NA
ATOM      8  N   UNL     1      -1.835  -6.543  -3.132  0.00  0.00    -0.021 NA
ATOM      9  N   UNL     1      -0.990  -7.476  -2.850  0.00  0.00    -0.092 NA
ATOM     10  C   UNL     1       2.937  -7.603   0.065  0.00  0.00    +0.061 C 
ATOM     11  H   UNL     1       1.383  -8.505  -1.896  0.00  0.00    +0.155 HD
ENDROOT
BRANCH   1  17
ATOM     12  C   UNL     1       1.224  -2.487  -2.188  0.00  0.00    +0.126 A 
ATOM     13  C   UNL     1       1.874  -1.662  -3.094  0.00  0.00    +0.047 A 
ATOM     14  C   UNL     1       2.664  -2.212  -4.084  0.00  0.00    +0.019 A 
ATOM     15  C   UNL     1       2.808  -3.585  -4.173  0.00  0.00    +0.018 A 
ATOM     16  C   UNL     1       2.160  -4.410  -3.272  0.00  0.00    +0.025 A 
ATOM     17  C   UNL     1       1.373  -3.864  -2.276  0.00  0.00    +0.024 A 
ATOM     18 BR   UNL     1       3.890  -4.335  -5.530  0.00  0.00    -0.050 Br
BRANCH  12  19
ATOM     19  O   UNL     1       0.445  -1.948  -1.213  0.00  0.00    -0.492 OA
BRANCH  19  20
ATOM     20  C   UNL     1       0.337  -0.524  -1.183  0.00  0.00    +0.229 C 
BRANCH  20  22
ATOM     21  C   UNL     1      -0.689   1.419   0.006  0.00  0.00    +0.007 C 
ATOM     22  C   UNL     1      -0.573  -0.106  -0.026  0.00  0.00    +0.038 C 
ENDBRANCH  20  22
ENDBRANCH  19  20
ENDBRANCH  12  19
ENDBRANCH   1  17
BRANCH   2  23
ATOM     23  C   UNL     1       2.499  -4.918   0.423  0.00  0.00    +0.339 C 
ATOM     24  O   UNL     1       2.062  -4.700   1.538  0.00  0.00    -0.245 OA
BRANCH  23  25
ATOM     25  O   UNL     1       3.753  -4.534   0.102  0.00  0.00    -0.458 OA
BRANCH  25  26
ATOM     26  C   UNL     1       4.510  -3.877   1.121  0.00  0.00    +0.177 C 
ATOM     27  C   UNL     1       4.276  -2.368   1.037  0.00  0.00    +0.044 C 
ATOM     28  C   UNL     1       5.086  -1.664   2.127  0.00  0.00    +0.004 C 
ATOM     29  C   UNL     1       6.574  -1.961   1.928  0.00  0.00    +0.000 C 
ATOM     30  C   UNL     1       6.809  -3.470   2.012  0.00  0.00    +0.004 C 
ATOM     31  C   UNL     1       5.998  -4.174   0.921  0.00  0.00    +0.044 C 
ENDBRANCH  25  26
ENDBRANCH  23  25
ENDBRANCH   2  23
TORSDOF 7
