REMARK  Name = ZINC55817420
REMARK  8 active torsions:
REMARK  status: ('A' for Active; 'I' for Inactive)
REMARK    1  A    between atoms: C_1  and  S_2
REMARK    2  A    between atoms: S_2  and  C_3
REMARK    3  A    between atoms: C_3  and  C_4
REMARK    4  A    between atoms: C_4  and  C_5
REMARK    5  A    between atoms: C_5  and  C_7
REMARK    6  A    between atoms: C_5  and  N_19
REMARK    7  A    between atoms: N_9  and  C_10
REMARK    8  A    between atoms: C_10  and  C_11
REMARK                            x       y       z     vdW  Elec       q    Type
REMARK                         _______ _______ _______ _____ _____    ______ ____
ROOT
ATOM      1  C   UNL     1       1.957  -3.821   2.963  0.00  0.00    +0.234 C 
ATOM      2  O   UNL     1       1.228  -4.507   3.648  0.00  0.00    -0.274 OA
ATOM      3  N   UNL     1       2.947  -4.394   2.250  0.00  0.00    -0.310 N 
ATOM      4  H   UNL     1       3.530  -3.846   1.702  0.00  0.00    +0.149 HD
ENDROOT
BRANCH   1   5
ATOM      5  C   UNL     1       1.757  -2.329   2.909  0.00  0.00    +0.161 C 
BRANCH   5   6
ATOM      6  N   UNL     1       0.985  -1.897   4.078  0.00  0.00    -0.288 N 
ATOM      7  C   UNL     1      -0.254  -2.385   4.284  0.00  0.00    +0.298 C 
ATOM      8  O   UNL     1      -0.732  -3.183   3.501  0.00  0.00    -0.253 OA
ATOM      9  N   UNL     1      -0.964  -1.988   5.359  0.00  0.00    -0.313 N 
ATOM     10  H   UNL     1       1.366  -1.260   4.702  0.00  0.00    +0.151 HD
ATOM     11  H   UNL     1      -0.583  -1.351   5.984  0.00  0.00    +0.146 HD
ATOM     12  H   UNL     1      -1.856  -2.339   5.508  0.00  0.00    +0.146 HD
ENDBRANCH   5   6
BRANCH   5  13
ATOM     13  C   UNL     1       0.997  -1.962   1.633  0.00  0.00    +0.042 C 
BRANCH  13  14
ATOM     14  C   UNL     1       0.902  -0.439   1.516  0.00  0.00    +0.071 C 
BRANCH  14  16
ATOM     15  C   UNL     1      -0.022   1.810   0.012  0.00  0.00    +0.084 C 
ATOM     16  S   UNL     1       0.002  -0.004   0.002  0.00  0.00    -0.164 S 
ENDBRANCH  14  16
ENDBRANCH  13  14
ENDBRANCH   5  13
ENDBRANCH   1   5
BRANCH   3  17
ATOM     17  C   UNL     1       3.142  -5.845   2.302  0.00  0.00    +0.140 C 
BRANCH  17  18
ATOM     18  C   UNL     1       4.304  -6.228   1.422  0.00  0.00    -0.014 A 
ATOM     19  C   UNL     1       4.076  -6.729   0.155  0.00  0.00    +0.044 A 
ATOM     20  C   UNL     1       5.144  -7.081  -0.653  0.00  0.00    +0.124 A 
ATOM     21  C   UNL     1       6.440  -6.930  -0.191  0.00  0.00    +0.039 A 
ATOM     22  C   UNL     1       6.667  -6.428   1.077  0.00  0.00    +0.018 A 
ATOM     23  C   UNL     1       5.599  -6.072   1.881  0.00  0.00    +0.023 A 
ATOM     24 BR   UNL     1       5.911  -5.378   3.613  0.00  0.00    -0.050 Br
ATOM     25  F   UNL     1       4.921  -7.571  -1.892  0.00  0.00    -0.205 F 
ENDBRANCH  17  18
ENDBRANCH   3  17
TORSDOF 7
