REMARK  Name = ZINC21588108
REMARK  10 active torsions:
REMARK  status: ('A' for Active; 'I' for Inactive)
REMARK    1  A    between atoms: C_1  and  C_2
REMARK    2  A    between atoms: C_2  and  C_3
REMARK    3  A    between atoms: C_3  and  C_4
REMARK    4  A    between atoms: C_4  and  C_5
REMARK    5  A    between atoms: C_15  and  C_17
REMARK    6  A    between atoms: C_17  and  C_19
REMARK    7  A    between atoms: C_17  and  N_25
REMARK    8  A    between atoms: C_19  and  C_20
REMARK    9  A    between atoms: C_20  and  S_21
REMARK   10  A    between atoms: S_21  and  C_24
REMARK                            x       y       z     vdW  Elec       q    Type
REMARK                         _______ _______ _______ _____ _____    ______ ____
ROOT
ATOM      1  C   UNL     1      -0.056  12.010   1.786  0.00  0.00    +0.172 C 
ENDROOT
BRANCH   1  12
ATOM      2  C   UNL     1      -0.755   3.526   1.278  0.00  0.00    -0.046 A 
ATOM      3  C   UNL     1      -1.807   4.216   0.693  0.00  0.00    +0.006 A 
ATOM      4  C   UNL     1      -1.850   5.585   0.686  0.00  0.00    +0.029 A 
ATOM      5  C   UNL     1      -0.816   6.343   1.282  0.00  0.00    +0.080 A 
ATOM      6  C   UNL     1       0.239   5.607   1.868  0.00  0.00    +0.041 A 
ATOM      7  C   UNL     1       0.272   4.235   1.873  0.00  0.00    +0.021 A 
ATOM      8  S   UNL     1       1.300   6.892   2.485  0.00  0.00    -0.052 S 
ATOM      9  C   UNL     1       0.311   8.279   1.944  0.00  0.00    +0.165 A 
ATOM     10  N   UNL     1      -0.706   7.687   1.361  0.00  0.00    -0.225 NA
ATOM     11  N   UNL     1       0.555   9.634   2.100  0.00  0.00    -0.263 N 
ATOM     12  C   UNL     1      -0.322  10.536   1.616  0.00  0.00    +0.240 C 
ATOM     13  O   UNL     1      -1.324  10.163   1.045  0.00  0.00    -0.273 OA
ATOM     14  H   UNL     1       1.464   9.973   2.618  0.00  0.00    +0.157 HD
BRANCH   2  15
ATOM     15  C   UNL     1      -0.735   2.019   1.269  0.00  0.00    +0.035 C 
BRANCH  15  16
ATOM     16  C   UNL     1      -0.019   1.526   0.010  0.00  0.00    +0.004 C 
BRANCH  16  18
ATOM     17  C   UNL     1       0.718  -0.497  -1.257  0.00  0.00    +0.004 C 
ATOM     18  C   UNL     1       0.002  -0.004   0.002  0.00  0.00    -0.003 C 
ENDBRANCH  16  18
ENDBRANCH  15  16
ENDBRANCH   2  15
ENDBRANCH   1  12
BRANCH   1  19
ATOM     19  N   UNL     1      -1.148  12.776   1.179  0.00  0.00    -0.222 N 
ATOM     20  C   UNL     1      -2.438  12.686   1.548  0.00  0.00    +0.254 C 
ATOM     21  O   UNL     1      -2.876  11.968   2.425  0.00  0.00    -0.270 OA
ATOM     22  C   UNL     1      -3.234  13.608   0.711  0.00  0.00    +0.049 A 
ATOM     23  C   UNL     1      -4.578  13.936   0.641  0.00  0.00    +0.014 A 
ATOM     24  C   UNL     1      -5.011  14.866  -0.291  0.00  0.00    +0.001 A 
ATOM     25  C   UNL     1      -4.111  15.470  -1.149  0.00  0.00    +0.001 A 
ATOM     26  C   UNL     1      -2.763  15.152  -1.090  0.00  0.00    +0.014 A 
ATOM     27  C   UNL     1      -2.316  14.224  -0.164  0.00  0.00    +0.049 A 
ATOM     28  C   UNL     1      -0.993  13.658   0.175  0.00  0.00    +0.254 C 
ATOM     29  O   UNL     1       0.058  13.941  -0.364  0.00  0.00    -0.270 OA
ENDBRANCH   1  19
BRANCH   1  30
ATOM     30  C   UNL     1       0.034  12.344   3.276  0.00  0.00    +0.055 C 
BRANCH  30  31
ATOM     31  C   UNL     1       0.426  13.813   3.447  0.00  0.00    +0.168 C 
BRANCH  31  32
ATOM     32  S   UNL     1       0.533  14.209   5.214  0.00  0.00    -0.034 S 
ATOM     33  O   UNL     1      -0.765  14.093   5.780  0.00  0.00    -0.175 OA
ATOM     34  O   UNL     1       1.602  13.461   5.778  0.00  0.00    -0.175 OA
ATOM     35  C   UNL     1       1.001  15.961   5.204  0.00  0.00    +0.194 C 
ENDBRANCH  31  32
ENDBRANCH  30  31
ENDBRANCH   1  30
TORSDOF 8
