REMARK  Name = ZINC22362545
REMARK  13 active torsions:
REMARK  status: ('A' for Active; 'I' for Inactive)
REMARK    1  A    between atoms: C_1  and  C_2
REMARK    2  A    between atoms: C_5  and  S_8
REMARK    3  A    between atoms: S_8  and  N_11
REMARK    4  A    between atoms: N_11  and  C_12
REMARK    5  A    between atoms: N_11  and  C_29
REMARK    6  A    between atoms: C_12  and  C_13
REMARK    7  A    between atoms: N_15  and  C_16
REMARK    8  A    between atoms: C_16  and  C_18
REMARK    9  A    between atoms: C_16  and  C_19
REMARK   10  A    between atoms: C_22  and  S_25
REMARK   11  A    between atoms: S_25  and  C_28
REMARK   12  A    between atoms: C_34  and  O_35
REMARK   13  A    between atoms: O_35  and  C_36
REMARK                            x       y       z     vdW  Elec       q    Type
REMARK                         _______ _______ _______ _____ _____    ______ ____
ROOT
ATOM      1  N   UNL     1      -2.417  -0.039   0.024  0.00  0.00    -0.191 N 
ENDROOT
BRANCH   1   2
ATOM      2  C   UNL     1      -1.194  -0.719   0.010  0.00  0.00    +0.093 A 
ATOM      3  C   UNL     1      -1.169  -2.106   0.002  0.00  0.00    +0.028 A 
ATOM      4  C   UNL     1       0.041  -2.775  -0.013  0.00  0.00    +0.002 A 
ATOM      5  C   UNL     1       1.227  -2.065  -0.021  0.00  0.00    +0.004 A 
ATOM      6  C   UNL     1       1.210  -0.682  -0.019  0.00  0.00    +0.047 A 
ATOM      7  C   UNL     1       0.002  -0.004   0.002  0.00  0.00    +0.143 A 
BRANCH   7   8
ATOM      8  O   UNL     1      -0.016   1.356   0.009  0.00  0.00    -0.493 OA
ATOM      9  C   UNL     1       1.248   2.022   0.001  0.00  0.00    +0.277 C 
ENDBRANCH   7   8
ENDBRANCH   1   2
BRANCH   1  10
ATOM     10  S   UNL     1      -3.094   0.479  -1.395  0.00  0.00    +0.075 S 
ATOM     11  O   UNL     1      -3.956   1.559  -1.064  0.00  0.00    -0.150 OA
ATOM     12  O   UNL     1      -2.029   0.613  -2.327  0.00  0.00    -0.150 OA
BRANCH  10  17
ATOM     13  C   UNL     1      -6.616  -3.979  -3.427  0.00  0.00    +0.044 C 
ATOM     14  C   UNL     1      -5.736  -2.865  -2.920  0.00  0.00    -0.050 A 
ATOM     15  C   UNL     1      -6.258  -1.900  -2.079  0.00  0.00    +0.005 A 
ATOM     16  C   UNL     1      -5.452  -0.878  -1.614  0.00  0.00    +0.029 A 
ATOM     17  C   UNL     1      -4.122  -0.823  -1.988  0.00  0.00    +0.109 A 
ATOM     18  C   UNL     1      -3.601  -1.785  -2.833  0.00  0.00    +0.029 A 
ATOM     19  C   UNL     1      -4.407  -2.809  -3.295  0.00  0.00    +0.005 A 
ENDBRANCH  10  17
ENDBRANCH   1  10
BRANCH   1  20
ATOM     20  C   UNL     1      -3.099   0.214   1.296  0.00  0.00    +0.227 C 
BRANCH  20  21
ATOM     21  C   UNL     1      -2.556   1.475   1.916  0.00  0.00    +0.233 C 
ATOM     22  O   UNL     1      -1.684   2.102   1.351  0.00  0.00    -0.274 OA
ATOM     23  N   UNL     1      -3.038   1.907   3.098  0.00  0.00    -0.307 N 
ATOM     24  H   UNL     1      -3.829   1.339   3.610  0.00  0.00    +0.149 HD
BRANCH  23  25
ATOM     25  C   UNL     1      -2.510   3.134   3.700  0.00  0.00    +0.100 C 
ATOM     26  C   UNL     1      -1.248   2.806   4.501  0.00  0.00    +0.033 C 
BRANCH  25  27
ATOM     27  C   UNL     1      -3.546   3.730   4.617  0.00  0.00    -0.027 A 
ATOM     28  C   UNL     1      -4.317   2.907   5.417  0.00  0.00    +0.007 A 
ATOM     29  C   UNL     1      -5.264   3.455   6.262  0.00  0.00    +0.027 A 
ATOM     30  C   UNL     1      -5.449   4.824   6.299  0.00  0.00    +0.088 A 
ATOM     31  C   UNL     1      -4.682   5.647   5.495  0.00  0.00    +0.027 A 
ATOM     32  C   UNL     1      -3.731   5.100   4.654  0.00  0.00    +0.007 A 
BRANCH  30  33
ATOM     33  S   UNL     1      -6.661   5.521   7.370  0.00  0.00    -0.006 S 
ATOM     34  O   UNL     1      -6.799   4.578   8.424  0.00  0.00    -0.170 OA
ATOM     35  O   UNL     1      -6.199   6.839   7.633  0.00  0.00    -0.170 OA
ATOM     36  C   UNL     1      -8.181   5.578   6.380  0.00  0.00    +0.200 C 
ENDBRANCH  30  33
ENDBRANCH  25  27
ENDBRANCH  23  25
ENDBRANCH  20  21
ENDBRANCH   1  20
TORSDOF 9
