REMARK  Name = ZINC40335535
REMARK  4 active torsions:
REMARK  status: ('A' for Active; 'I' for Inactive)
REMARK    1  A    between atoms: C_6  and  N_7
REMARK    2  A    between atoms: C_11  and  C_12
REMARK    3  A    between atoms: N_14  and  C_15
REMARK    4  A    between atoms: C_15  and  C_16
REMARK                            x       y       z     vdW  Elec       q    Type
REMARK                         _______ _______ _______ _____ _____    ______ ____
ROOT
ATOM      1  C   UNL     1      -0.017   1.389   0.010  0.00  0.00    +0.023 A 
ATOM      2  C   UNL     1       1.153   2.096   0.002  0.00  0.00    +0.012 A 
ATOM      3  C   UNL     1       2.371   1.422  -0.013  0.00  0.00    +0.012 A 
ATOM      4  C   UNL     1       2.402   0.018  -0.021  0.00  0.00    +0.049 A 
ATOM      5  C   UNL     1       1.205  -0.690  -0.014  0.00  0.00    +0.049 A 
ATOM      6  C   UNL     1       0.002  -0.004   0.002  0.00  0.00    +0.027 A 
ATOM      7  N   UNL     1       3.726  -0.368  -0.035  0.00  0.00    -0.360 N 
ATOM      8  H   UNL     1       4.035  -1.287  -0.043  0.00  0.00    +0.165 HD
ATOM      9  C   UNL     1       4.535   0.720  -0.037  0.00  0.00    +0.096 A 
ATOM     10  C   UNL     1       3.781   1.856  -0.024  0.00  0.00    +0.062 A 
ENDROOT
BRANCH  10  11
ATOM     11  C   UNL     1       4.275   3.239  -0.021  0.00  0.00    +0.246 C 
ATOM     12  O   UNL     1       3.487   4.167  -0.009  0.00  0.00    -0.270 OA
ATOM     13  N   UNL     1       5.601   3.482  -0.032  0.00  0.00    -0.307 N 
ATOM     14  H   UNL     1       6.229   2.742  -0.041  0.00  0.00    +0.149 HD
BRANCH  13  15
ATOM     15  C   UNL     1       6.094   4.861  -0.029  0.00  0.00    +0.147 C 
BRANCH  15  16
ATOM     16  C   UNL     1       7.601   4.857  -0.043  0.00  0.00    +0.008 A 
ATOM     17  C   UNL     1       8.444   4.865  -1.104  0.00  0.00    +0.014 A 
ATOM     18  C   UNL     1       9.808   4.858  -0.876  0.00  0.00    +0.023 A 
ATOM     19  C   UNL     1      10.260   4.844   0.402  0.00  0.00    +0.055 A 
ATOM     20  S   UNL     1       8.737   4.847   1.333  0.00  0.00    -0.085 S 
ATOM     21 BR   UNL     1      12.043   4.831   1.035  0.00  0.00    -0.043 Br
ENDBRANCH  15  16
ENDBRANCH  13  15
ENDBRANCH  10  11
BRANCH   6  22
ATOM     22  N   UNL     1      -1.202  -0.715   0.010  0.00  0.00    -0.358 N 
ATOM     23  H   UNL     1      -2.046  -0.238   0.020  0.00  0.00    +0.142 HD
ATOM     24  H   UNL     1      -1.193  -1.685   0.004  0.00  0.00    +0.142 HD
ENDBRANCH   6  22
TORSDOF 4
