REMARK  Name = ZINC13498528
REMARK  12 active torsions:
REMARK  status: ('A' for Active; 'I' for Inactive)
REMARK    1  A    between atoms: C_1  and  C_2
REMARK    2  A    between atoms: C_7  and  C_14
REMARK    3  A    between atoms: C_14  and  N_15
REMARK    4  A    between atoms: N_15  and  C_16
REMARK    5  A    between atoms: N_15  and  C_24
REMARK    6  A    between atoms: C_16  and  C_17
REMARK    7  A    between atoms: C_17  and  C_18
REMARK    8  A    between atoms: C_24  and  C_26
REMARK    9  A    between atoms: C_24  and  C_37
REMARK   10  A    between atoms: N_30  and  C_31
REMARK   11  A    between atoms: C_37  and  C_38
REMARK   12  A    between atoms: C_37  and  C_39
REMARK                            x       y       z     vdW  Elec       q    Type
REMARK                         _______ _______ _______ _____ _____    ______ ____
ROOT
ATOM      1  N   UNL     1       5.542  -1.891  -1.671  0.00  0.00    -0.288 NA
ENDROOT
BRANCH   1   2
ATOM      2  C   UNL     1       6.325  -0.898  -0.923  0.00  0.00    +0.125 C 
BRANCH   2   9
ATOM      3  C   UNL     1       6.338  -2.757   6.834  0.00  0.00    +0.044 C 
ATOM      4  C   UNL     1       6.530  -2.534   5.356  0.00  0.00    -0.048 A 
ATOM      5  C   UNL     1       7.616  -3.110   4.710  0.00  0.00    +0.004 A 
ATOM      6  C   UNL     1       7.809  -2.920   3.371  0.00  0.00    +0.010 A 
ATOM      7  C   UNL     1       6.904  -2.139   2.644  0.00  0.00    -0.001 A 
ATOM      8  C   UNL     1       7.081  -1.915   1.208  0.00  0.00    +0.020 A 
ATOM      9  C   UNL     1       6.172  -1.149   0.556  0.00  0.00    +0.031 A 
ATOM     10  C   UNL     1       5.088  -0.580   1.257  0.00  0.00    +0.254 A 
ATOM     11  O   UNL     1       4.285   0.110   0.652  0.00  0.00    -0.268 OA
ATOM     12  N   UNL     1       4.914  -0.785   2.575  0.00  0.00    -0.322 N 
ATOM     13  H   UNL     1       4.054  -0.335   3.092  0.00  0.00    +0.169 HD
ATOM     14  C   UNL     1       5.802  -1.554   3.295  0.00  0.00    +0.049 A 
ATOM     15  C   UNL     1       5.627  -1.761   4.660  0.00  0.00    +0.029 A 
ENDBRANCH   2   9
ENDBRANCH   1   2
BRANCH   1  16
ATOM     16  C   UNL     1       4.111  -1.562  -1.643  0.00  0.00    +0.090 C 
BRANCH  16  17
ATOM     17  C   UNL     1       3.295  -2.808  -1.994  0.00  0.00    +0.050 C 
BRANCH  17  18
ATOM     18  C   UNL     1       1.829  -2.459  -2.014  0.00  0.00    -0.046 A 
ATOM     19  C   UNL     1       1.254  -1.954  -3.165  0.00  0.00    +0.003 A 
ATOM     20  C   UNL     1      -0.091  -1.634  -3.183  0.00  0.00    +0.000 A 
ATOM     21  C   UNL     1      -0.861  -1.820  -2.050  0.00  0.00    +0.000 A 
ATOM     22  C   UNL     1      -0.286  -2.326  -0.899  0.00  0.00    +0.000 A 
ATOM     23  C   UNL     1       1.059  -2.645  -0.881  0.00  0.00    +0.003 A 
ENDBRANCH  17  18
ENDBRANCH  16  17
ENDBRANCH   1  16
BRANCH   1  24
ATOM     24  C   UNL     1       6.028  -2.012  -3.052  0.00  0.00    +0.129 C 
BRANCH  24  25
ATOM     25  C   UNL     1       6.040  -0.652  -3.701  0.00  0.00    +0.169 A 
ATOM     26  N   UNL     1       6.524   0.454  -3.191  0.00  0.00    -0.112 NA
ATOM     27  N   UNL     1       6.347   1.399  -4.050  0.00  0.00    -0.023 NA
ATOM     28  N   UNL     1       5.762   0.923  -5.094  0.00  0.00    -0.044 NA
ATOM     29  N   UNL     1       5.561  -0.339  -4.920  0.00  0.00    -0.225 N 
BRANCH  29  30
ATOM     30  C   UNL     1       4.927  -1.258  -5.868  0.00  0.00    +0.111 C 
ATOM     31  C   UNL     1       5.734  -1.286  -7.168  0.00  0.00    +0.027 C 
ATOM     32  C   UNL     1       5.072  -2.246  -8.158  0.00  0.00    +0.002 C 
ATOM     33  C   UNL     1       3.647  -1.773  -8.452  0.00  0.00    +0.000 C 
ATOM     34  C   UNL     1       2.841  -1.745  -7.153  0.00  0.00    +0.002 C 
ATOM     35  C   UNL     1       3.502  -0.785  -6.162  0.00  0.00    +0.027 C 
ENDBRANCH  29  30
ENDBRANCH  24  25
BRANCH  24  36
ATOM     36  C   UNL     1       7.446  -2.587  -3.045  0.00  0.00    +0.008 C 
ATOM     37  C   UNL     1       7.418  -4.008  -2.478  0.00  0.00    +0.009 C 
ATOM     38  C   UNL     1       7.990  -2.619  -4.475  0.00  0.00    +0.009 C 
ENDBRANCH  24  36
ENDBRANCH   1  24
TORSDOF 9
