REMARK  Name = ZINC17055151
REMARK  5 active torsions:
REMARK  status: ('A' for Active; 'I' for Inactive)
REMARK    1  A    between atoms: C_4  and  O_7
REMARK    2  A    between atoms: O_7  and  C_8
REMARK    3  A    between atoms: C_8  and  C_9
REMARK    4  A    between atoms: C_11  and  C_14
REMARK    5  A    between atoms: C_17  and  C_20
REMARK                            x       y       z     vdW  Elec       q    Type
REMARK                         _______ _______ _______ _____ _____    ______ ____
ROOT
ATOM      1  C   UNL     1       5.981  -0.737  -0.062  0.00  0.00    +0.265 A 
ATOM      2  N   UNL     1       6.591  -1.199  -1.124  0.00  0.00    -0.188 NA
ATOM      3  C   UNL     1       7.612  -1.953  -0.657  0.00  0.00    +0.202 A 
ATOM      4  N   UNL     1       7.557  -1.911   0.648  0.00  0.00    -0.056 NA
ATOM      5  O   UNL     1       6.628  -1.218   1.004  0.00  0.00    -0.334 OA
ENDROOT
BRANCH   3   6
ATOM      6  C   UNL     1       8.605  -2.694  -1.474  0.00  0.00    +0.022 A 
ATOM      7  C   UNL     1       8.537  -2.652  -2.865  0.00  0.00    +0.012 A 
ATOM      8  C   UNL     1       9.465  -3.341  -3.620  0.00  0.00    +0.013 A 
ATOM      9  C   UNL     1      10.457  -4.078  -2.998  0.00  0.00    +0.055 A 
ATOM     10  C   UNL     1      10.526  -4.127  -1.617  0.00  0.00    +0.013 A 
ATOM     11  C   UNL     1       9.605  -3.439  -0.853  0.00  0.00    +0.012 A 
BRANCH   9  12
ATOM     12  C   UNL     1      11.464  -4.831  -3.827  0.00  0.00    +0.417 C 
ATOM     13  F   UNL     1      10.987  -6.122  -4.082  0.00  0.00    -0.166 F 
ATOM     14  F   UNL     1      11.665  -4.161  -5.039  0.00  0.00    -0.166 F 
ATOM     15  F   UNL     1      12.675  -4.910  -3.131  0.00  0.00    -0.166 F 
ENDBRANCH   9  12
ENDBRANCH   3   6
BRANCH   1  16
ATOM     16  C   UNL     1       4.772   0.164  -0.044  0.00  0.00    +0.327 C 
BRANCH  16  17
ATOM     17  O   UNL     1       3.586  -0.632  -0.037  0.00  0.00    -0.483 OA
BRANCH  17  21
ATOM     18  C   UNL     1      -0.017   1.378   0.010  0.00  0.00    +0.000 A 
ATOM     19  C   UNL     1       1.170   2.088   0.002  0.00  0.00    +0.004 A 
ATOM     20  C   UNL     1       2.377   1.417  -0.013  0.00  0.00    +0.045 A 
ATOM     21  C   UNL     1       2.399   0.030  -0.021  0.00  0.00    +0.121 A 
ATOM     22  C   UNL     1       1.207  -0.680  -0.014  0.00  0.00    +0.045 A 
ATOM     23  C   UNL     1       0.002  -0.004   0.002  0.00  0.00    +0.004 A 
ENDBRANCH  17  21
ENDBRANCH  16  17
ENDBRANCH   1  16
TORSDOF 5
