REMARK  Name = ZINC38903035
REMARK  15 active torsions:
REMARK  status: ('A' for Active; 'I' for Inactive)
REMARK    1  A    between atoms: C_1  and  C_2
REMARK    2  A    between atoms: C_2  and  C_4
REMARK    3  A    between atoms: C_2  and  N_14
REMARK    4  A    between atoms: C_7  and  C_10
REMARK    5  A    between atoms: C_10  and  C_11
REMARK    6  A    between atoms: C_10  and  C_12
REMARK    7  A    between atoms: C_10  and  C_13
REMARK    8  A    between atoms: C_15  and  C_17
REMARK    9  A    between atoms: N_22  and  C_24
REMARK   10  A    between atoms: C_24  and  C_25
REMARK   11  A    between atoms: C_27  and  C_30
REMARK   12  A    between atoms: C_33  and  C_36
REMARK   13  A    between atoms: C_36  and  C_37
REMARK   14  A    between atoms: C_36  and  C_38
REMARK   15  A    between atoms: C_36  and  C_39
REMARK                            x       y       z     vdW  Elec       q    Type
REMARK                         _______ _______ _______ _____ _____    ______ ____
ROOT
ATOM      1  C   UNL     1       2.783  -1.099   2.395  0.00  0.00    +0.058 C 
ATOM      2  C   UNL     1       2.504  -0.164   3.575  0.00  0.00    +0.009 C 
ATOM      3  C   UNL     1       3.310  -0.635   4.788  0.00  0.00    -0.018 C 
ATOM      4  C   UNL     1       4.795  -0.679   4.421  0.00  0.00    -0.078 C 
ATOM      5  N   UNL     1       5.000  -1.609   3.305  0.00  0.00    +0.386 N 
ATOM      6  C   UNL     1       4.287  -1.127   2.116  0.00  0.00    -0.065 C 
ATOM      7  H   UNL     1       4.648  -2.520   3.559  0.00  0.00    -0.081 HD
ENDROOT
BRANCH   1   9
ATOM      8  N   UNL     1       0.711  -0.489   1.189  0.00  0.00    -0.309 N 
ATOM      9  C   UNL     1       2.054  -0.600   1.174  0.00  0.00    +0.215 C 
ATOM     10  O   UNL     1       2.676  -0.297   0.177  0.00  0.00    -0.276 OA
ATOM     11  H   UNL     1       0.213  -0.731   1.986  0.00  0.00    +0.149 HD
BRANCH   8  13
ATOM     12  C   UNL     1      -0.019   1.526   0.010  0.00  0.00    +0.033 C 
ATOM     13  C   UNL     1       0.002  -0.004   0.002  0.00  0.00    +0.100 C 
BRANCH  13  14
ATOM     14  C   UNL     1      -1.412  -0.526   0.013  0.00  0.00    -0.027 A 
ATOM     15  C   UNL     1      -2.123  -0.571   1.197  0.00  0.00    +0.006 A 
ATOM     16  C   UNL     1      -3.420  -1.049   1.207  0.00  0.00    +0.004 A 
ATOM     17  C   UNL     1      -4.006  -1.482   0.032  0.00  0.00    -0.042 A 
ATOM     18  C   UNL     1      -3.295  -1.436  -1.153  0.00  0.00    +0.004 A 
ATOM     19  C   UNL     1      -2.000  -0.954  -1.163  0.00  0.00    +0.006 A 
BRANCH  17  20
ATOM     20  C   UNL     1      -5.419  -2.005   0.043  0.00  0.00    -0.013 C 
ATOM     21  C   UNL     1      -6.363  -0.911   0.546  0.00  0.00    +0.015 C 
ATOM     22  C   UNL     1      -5.822  -2.414  -1.375  0.00  0.00    +0.015 C 
ATOM     23  C   UNL     1      -5.507  -3.220   0.969  0.00  0.00    +0.015 C 
ENDBRANCH  17  20
ENDBRANCH  13  14
ENDBRANCH   8  13
ENDBRANCH   1   9
BRANCH   5  24
ATOM     24  C   UNL     1       6.435  -1.707   3.007  0.00  0.00    +0.022 C 
BRANCH  24  25
ATOM     25  C   UNL     1       7.150  -2.327   4.180  0.00  0.00    +0.211 A 
ATOM     26  N   UNL     1       7.364  -3.600   4.355  0.00  0.00    -0.193 NA
ATOM     27  C   UNL     1       8.029  -3.801   5.506  0.00  0.00    +0.202 A 
ATOM     28  N   UNL     1       8.243  -2.641   6.075  0.00  0.00    -0.056 NA
ATOM     29  O   UNL     1       7.677  -1.662   5.216  0.00  0.00    -0.340 OA
BRANCH  27  30
ATOM     30  C   UNL     1       8.451  -5.119   6.044  0.00  0.00    +0.022 A 
ATOM     31  C   UNL     1       8.166  -6.286   5.337  0.00  0.00    +0.012 A 
ATOM     32  C   UNL     1       8.560  -7.509   5.842  0.00  0.00    +0.005 A 
ATOM     33  C   UNL     1       9.236  -7.577   7.046  0.00  0.00    -0.042 A 
ATOM     34  C   UNL     1       9.521  -6.422   7.752  0.00  0.00    +0.005 A 
ATOM     35  C   UNL     1       9.137  -5.194   7.254  0.00  0.00    +0.012 A 
BRANCH  33  36
ATOM     36  C   UNL     1       9.663  -8.915   7.593  0.00  0.00    -0.013 C 
ATOM     37  C   UNL     1      10.606  -9.595   6.598  0.00  0.00    +0.015 C 
ATOM     38  C   UNL     1      10.386  -8.715   8.926  0.00  0.00    +0.015 C 
ATOM     39  C   UNL     1       8.430  -9.795   7.808  0.00  0.00    +0.015 C 
ENDBRANCH  33  36
ENDBRANCH  27  30
ENDBRANCH  24  25
ENDBRANCH   5  24
TORSDOF 8
