REMARK  Name = ZINC10816924
REMARK  14 active torsions:
REMARK  status: ('A' for Active; 'I' for Inactive)
REMARK    1  A    between atoms: C_1  and  C_2
REMARK    2  A    between atoms: C_2  and  N_63
REMARK    3  A    between atoms: C_3  and  C_4
REMARK    4  A    between atoms: C_3  and  N_63
REMARK    5  A    between atoms: C_5  and  C_6
REMARK    6  A    between atoms: C_5  and  N_63
REMARK    7  A    between atoms: C_6  and  N_7
REMARK    8  A    between atoms: C_13  and  S_17
REMARK    9  A    between atoms: S_17  and  C_18
REMARK   10  A    between atoms: C_19  and  C_21
REMARK   11  A    between atoms: C_24  and  S_27
REMARK   12  A    between atoms: S_27  and  N_30
REMARK   13  A    between atoms: N_30  and  C_31
REMARK   14  A    between atoms: N_30  and  C_32
REMARK                            x       y       z     vdW  Elec       q    Type
REMARK                         _______ _______ _______ _____ _____    ______ ____
ROOT
ATOM      1  N   UNL     1       0.192   0.353  -0.506  0.00  0.00    -0.248 N 
ATOM      2  C   UNL     1      -0.809  -0.459   0.001  0.00  0.00    +0.168 A 
ATOM      3  N   UNL     1      -1.016  -1.737  -0.207  0.00  0.00    -0.224 NA
ATOM      4  C   UNL     1      -2.043  -2.409   0.359  0.00  0.00    +0.080 A 
ATOM      5  C   UNL     1      -2.375  -3.777   0.218  0.00  0.00    +0.030 A 
ATOM      6  C   UNL     1      -3.450  -4.306   0.860  0.00  0.00    +0.017 A 
ATOM      7  C   UNL     1      -4.266  -3.527   1.679  0.00  0.00    +0.009 A 
ATOM      8  C   UNL     1      -3.973  -2.179   1.843  0.00  0.00    +0.032 A 
ATOM      9  C   UNL     1      -2.887  -1.643   1.196  0.00  0.00    +0.042 A 
ATOM     10  S   UNL     1      -2.143  -0.032   1.112  0.00  0.00    -0.052 S 
ATOM     11  C   UNL     1       0.236   1.658  -0.171  0.00  0.00    +0.252 C 
ATOM     12  O   UNL     1      -0.629   2.133   0.539  0.00  0.00    -0.270 OA
ENDROOT
BRANCH  11  13
ATOM     13  C   UNL     1       1.333   2.513  -0.670  0.00  0.00    +0.037 A 
ATOM     14  C   UNL     1       2.580   1.955  -0.960  0.00  0.00    +0.015 A 
ATOM     15  C   UNL     1       3.599   2.757  -1.431  0.00  0.00    +0.029 A 
ATOM     16  C   UNL     1       3.390   4.114  -1.606  0.00  0.00    +0.105 A 
ATOM     17  C   UNL     1       2.159   4.674  -1.315  0.00  0.00    +0.029 A 
ATOM     18  C   UNL     1       1.130   3.882  -0.849  0.00  0.00    +0.015 A 
BRANCH  16  19
ATOM     19  S   UNL     1       4.698   5.133  -2.202  0.00  0.00    +0.060 S 
ATOM     20  O   UNL     1       5.583   4.281  -2.917  0.00  0.00    -0.153 OA
ATOM     21  O   UNL     1       4.088   6.270  -2.797  0.00  0.00    -0.153 OA
BRANCH  19  22
ATOM     22  N   UNL     1       5.533   5.681  -0.881  0.00  0.00    -0.183 NA
ATOM     23  C   UNL     1       6.663   4.910  -0.357  0.00  0.00    +0.131 C 
ATOM     24  C   UNL     1       5.141   6.936  -0.236  0.00  0.00    +0.131 C 
ENDBRANCH  19  22
ENDBRANCH  16  19
ENDBRANCH  11  13
BRANCH   7  25
ATOM     25  S   UNL     1      -5.653  -4.244   2.497  0.00  0.00    -0.129 S 
ATOM     26  C   UNL     1      -5.616  -5.983   1.980  0.00  0.00    +0.090 C 
ENDBRANCH   7  25
BRANCH   1  27
ATOM     27  C   UNL     1       1.202  -0.206  -1.408  0.00  0.00    +0.097 C 
BRANCH  27  28
ATOM     28  C   UNL     1       2.174  -1.075  -0.608  0.00  0.00    -0.059 C 
BRANCH  28  29
ATOM     29  N   UNL     1       3.233  -1.566  -1.514  0.00  0.00    +0.380 N 
ATOM     30  H   UNL     1       3.675  -0.763  -1.978  0.00  0.00    -0.082 HD
BRANCH  29  32
ATOM     31  C   UNL     1       5.447  -2.598  -1.660  0.00  0.00    -0.017 C 
ATOM     32  C   UNL     1       4.260  -2.298  -0.742  0.00  0.00    -0.082 C 
ENDBRANCH  29  32
BRANCH  29  33
ATOM     33  C   UNL     1       2.648  -2.452  -2.542  0.00  0.00    -0.082 C 
ATOM     34  C   UNL     1       1.846  -3.578  -1.887  0.00  0.00    -0.017 C 
ENDBRANCH  29  33
ENDBRANCH  28  29
ENDBRANCH  27  28
ENDBRANCH   1  27
TORSDOF 9
