REMARK  Name = ZINC03082547
REMARK  8 active torsions:
REMARK  status: ('A' for Active; 'I' for Inactive)
REMARK    1  A    between atoms: C_9  and  N_46
REMARK    2  A    between atoms: C_15  and  N_18
REMARK    3  A    between atoms: N_18  and  C_19
REMARK    4  A    between atoms: C_19  and  C_20
REMARK    5  A    between atoms: C_20  and  O_21
REMARK    6  A    between atoms: C_24  and  C_25
REMARK    7  A    between atoms: C_24  and  N_46
REMARK    8  A    between atoms: C_25  and  O_26
REMARK                            x       y       z     vdW  Elec       q    Type
REMARK                         _______ _______ _______ _____ _____    ______ ____
ROOT
ATOM      1  C   UNL     1       3.643  -4.790   1.488  0.00  0.00    +0.001 A 
ATOM      2  C   UNL     1       4.820  -4.064   1.589  0.00  0.00    +0.001 A 
ATOM      3  C   UNL     1       4.836  -2.715   1.308  0.00  0.00    +0.012 A 
ATOM      4  C   UNL     1       3.659  -2.071   0.919  0.00  0.00    +0.030 A 
ATOM      5  C   UNL     1       2.467  -2.811   0.810  0.00  0.00    -0.007 A 
ATOM      6  C   UNL     1       2.472  -4.173   1.100  0.00  0.00    +0.009 A 
ATOM      7  C   UNL     1       1.220  -2.139   0.389  0.00  0.00    -0.012 C 
ATOM      8  C   UNL     1       0.102  -2.841   0.146  0.00  0.00    -0.015 C 
ATOM      9  C   UNL     1      -1.145  -2.168  -0.364  0.00  0.00    +0.037 C 
ATOM     10  N   UNL     1      -1.175  -0.759   0.040  0.00  0.00    -0.354 N 
ATOM     11  C   UNL     1       0.006  -0.010  -0.003  0.00  0.00    +0.035 A 
ATOM     12  C   UNL     1       1.217  -0.672   0.215  0.00  0.00    +0.016 A 
ATOM     13  C   UNL     1       2.417   0.057   0.275  0.00  0.00    +0.053 A 
ATOM     14  C   UNL     1       2.393   1.436   0.015  0.00  0.00    +0.039 A 
ATOM     15  C   UNL     1       1.182   2.070  -0.233  0.00  0.00    +0.025 A 
ATOM     16  C   UNL     1      -0.004   1.356  -0.228  0.00  0.00    +0.025 A 
ATOM     17  C   UNL     1       3.669  -0.628   0.617  0.00  0.00    +0.196 C 
ATOM     18  O   UNL     1       4.715  -0.006   0.652  0.00  0.00    -0.287 OA
ATOM     19  H   UNL     1      -2.005  -0.350   0.332  0.00  0.00    +0.144 HD
ENDROOT
BRANCH   9  20
ATOM     20  N   UNL     1      -1.166  -2.250  -1.837  0.00  0.00    +0.395 N 
ATOM     21  H   UNL     1      -0.465  -2.932  -2.148  0.00  0.00    -0.083 HD
ATOM     22  H   UNL     1      -0.946  -1.328  -2.230  0.00  0.00    -0.083 HD
BRANCH  20  23
ATOM     23  C   UNL     1      -2.499  -2.674  -2.307  0.00  0.00    -0.051 C 
BRANCH  23  24
ATOM     24  C   UNL     1      -2.491  -2.750  -3.835  0.00  0.00    +0.137 C 
BRANCH  24  25
ATOM     25  O   UNL     1      -1.592  -3.778  -4.256  0.00  0.00    -0.397 OA
ATOM     26  H   UNL     1      -1.536  -3.883  -5.215  0.00  0.00    +0.209 HD
ENDBRANCH  24  25
ENDBRANCH  23  24
ENDBRANCH  20  23
ENDBRANCH   9  20
BRANCH  14  27
ATOM     27  N   UNL     1       3.578   2.166   0.004  0.00  0.00    -0.341 N 
ATOM     28  H   UNL     1       4.429   1.709   0.086  0.00  0.00    +0.146 HD
BRANCH  27  29
ATOM     29  C   UNL     1       3.539   3.624  -0.130  0.00  0.00    +0.129 C 
BRANCH  29  30
ATOM     30  C   UNL     1       4.966   4.176  -0.113  0.00  0.00    +0.174 C 
BRANCH  30  31
ATOM     31  O   UNL     1       5.671   3.709  -1.264  0.00  0.00    -0.393 OA
ATOM     32  H   UNL     1       6.585   4.021  -1.319  0.00  0.00    +0.209 HD
ENDBRANCH  30  31
ENDBRANCH  29  30
ENDBRANCH  27  29
ENDBRANCH  14  27
TORSDOF 8
