REMARK  Name = ZINC33617245
REMARK  7 active torsions:
REMARK  status: ('A' for Active; 'I' for Inactive)
REMARK    1  A    between atoms: C_1  and  C_2
REMARK    2  A    between atoms: C_2  and  C_4
REMARK    3  A    between atoms: C_7  and  N_10
REMARK    4  A    between atoms: C_15  and  C_28
REMARK    5  A    between atoms: C_18  and  C_23
REMARK    6  A    between atoms: C_18  and  C_25
REMARK    7  A    between atoms: C_23  and  O_24
REMARK                            x       y       z     vdW  Elec       q    Type
REMARK                         _______ _______ _______ _____ _____    ______ ____
ROOT
ATOM      1  N   UNL     1      -2.426   1.036   0.019  0.00  0.00    -0.210 N 
ATOM      2  C   UNL     1      -2.490  -0.336   0.006  0.00  0.00    +0.229 C 
ATOM      3  O   UNL     1      -1.582  -1.117   0.196  0.00  0.00    -0.275 OA
ATOM      4  C   UNL     1      -3.863  -0.649  -0.278  0.00  0.00    +0.077 C 
ATOM      5  C   UNL     1      -4.843  -1.741  -0.209  0.00  0.00    -0.027 C 
ATOM      6  N   UNL     1      -6.126  -1.057  -0.589  0.00  0.00    +0.397 N 
ATOM      7  C   UNL     1      -5.963   0.404  -0.321  0.00  0.00    +0.071 C 
ATOM      8  C   UNL     1      -4.632   0.547   0.395  0.00  0.00    +0.088 C 
ATOM      9  C   UNL     1      -3.660   1.623   0.028  0.00  0.00    +0.229 C 
ATOM     10  O   UNL     1      -3.915   2.783  -0.213  0.00  0.00    -0.275 OA
ATOM     11  H   UNL     1      -6.330  -1.227  -1.657  0.00  0.00    -0.083 HD
ATOM     12  H   UNL     1      -6.951  -1.465   0.012  0.00  0.00    -0.083 HD
ENDROOT
BRANCH   5  13
ATOM     13  C   UNL     1      -4.505  -2.830  -1.194  0.00  0.00    -0.061 A 
ATOM     14  C   UNL     1      -4.747  -2.642  -2.542  0.00  0.00    +0.003 A 
ATOM     15  C   UNL     1      -4.433  -3.639  -3.447  0.00  0.00    +0.015 A 
ATOM     16  C   UNL     1      -3.887  -4.829  -3.002  0.00  0.00    +0.018 A 
ATOM     17  C   UNL     1      -3.649  -5.019  -1.653  0.00  0.00    +0.015 A 
ATOM     18  C   UNL     1      -3.959  -4.020  -0.750  0.00  0.00    +0.003 A 
ATOM     19 BR   UNL     1      -3.464  -6.196  -4.239  0.00  0.00    -0.050 Br
ENDBRANCH   5  13
BRANCH   1  23
ATOM     20  C   UNL     1       1.150   3.179   0.008  0.00  0.00    +0.017 A 
ATOM     21  C   UNL     1       1.170   1.779   0.000  0.00  0.00    +0.013 A 
ATOM     22  C   UNL     1      -0.013   1.076   0.008  0.00  0.00    +0.024 A 
ATOM     23  C   UNL     1      -1.228   1.754   0.017  0.00  0.00    +0.044 A 
ATOM     24  C   UNL     1      -1.253   3.145   0.030  0.00  0.00    +0.024 A 
ATOM     25  C   UNL     1      -0.075   3.857   0.023  0.00  0.00    +0.013 A 
BRANCH  20  27
ATOM     26  C   UNL     1       2.385   5.441   0.007  0.00  0.00    +0.091 C 
ATOM     27  C   UNL     1       2.410   3.934  -0.001  0.00  0.00    +0.160 C 
ATOM     28  O   UNL     1       3.470   3.345  -0.014  0.00  0.00    -0.292 OA
ENDBRANCH  20  27
ENDBRANCH   1  23
BRANCH   7  29
ATOM     29  C   UNL     1      -7.082   0.898   0.558  0.00  0.00    +0.348 C 
ATOM     30  O   UNL     1      -6.857   1.713   1.422  0.00  0.00    -0.248 OA
ATOM     31  O   UNL     1      -8.329   0.434   0.382  0.00  0.00    -0.248 OA
ENDBRANCH   7  29
BRANCH   7  32
ATOM     32  C   UNL     1      -5.940   1.183  -1.637  0.00  0.00    +0.155 C 
BRANCH  32  33
ATOM     33  O   UNL     1      -7.199   1.037  -2.298  0.00  0.00    -0.396 OA
ATOM     34  H   UNL     1      -7.372   1.530  -3.266  0.00  0.00    +0.209 HD
ENDBRANCH  32  33
ENDBRANCH   7  32
TORSDOF 6
