REMARK  Name = ZINC41513674
REMARK  16 active torsions:
REMARK  status: ('A' for Active; 'I' for Inactive)
REMARK    1  A    between atoms: C_1  and  C_2
REMARK    2  A    between atoms: C_4  and  O_35
REMARK    3  A    between atoms: C_5  and  C_25
REMARK    4  A    between atoms: C_11  and  C_12
REMARK    5  A    between atoms: N_14  and  C_23
REMARK    6  A    between atoms: C_18  and  O_21
REMARK    7  A    between atoms: O_21  and  C_22
REMARK    8  A    between atoms: C_25  and  N_26
REMARK    9  A    between atoms: N_26  and  C_27
REMARK   10  A    between atoms: N_26  and  C_31
REMARK   11  A    between atoms: C_27  and  C_28
REMARK   12  A    between atoms: C_28  and  C_29
REMARK   13  A    between atoms: C_28  and  C_30
REMARK   14  A    between atoms: C_31  and  C_32
REMARK   15  A    between atoms: C_32  and  C_33
REMARK   16  A    between atoms: C_32  and  C_34
REMARK                            x       y       z     vdW  Elec       q    Type
REMARK                         _______ _______ _______ _____ _____    ______ ____
ROOT
ATOM      1  C   UNL     1      -3.522  -0.487   0.928  0.00  0.00    +0.045 C 
ATOM      2  C   UNL     1      -2.618  -1.689   1.032  0.00  0.00    -0.033 A 
ATOM      3  C   UNL     1      -2.302  -2.407  -0.087  0.00  0.00    +0.050 A 
ATOM      4  C   UNL     1      -1.468  -3.517   0.005  0.00  0.00    +0.122 A 
ATOM      5  C   UNL     1      -0.949  -3.909   1.229  0.00  0.00    +0.020 A 
ATOM      6  C   UNL     1      -1.260  -3.189   2.375  0.00  0.00    +0.145 A 
ATOM      7  C   UNL     1      -2.098  -2.067   2.269  0.00  0.00    +0.071 A 
ATOM      8  C   UNL     1      -2.229  -1.526   3.634  0.00  0.00    +0.232 C 
ATOM      9  O   UNL     1      -2.876  -0.553   3.986  0.00  0.00    -0.283 OA
ATOM     10  C   UNL     1      -1.442  -2.380   4.450  0.00  0.00    +0.176 C 
ATOM     11  C   UNL     1      -1.268  -2.257   5.796  0.00  0.00    +0.060 C 
ATOM     12  O   UNL     1      -0.902  -3.345   3.667  0.00  0.00    -0.451 OA
ENDROOT
BRANCH  11  13
ATOM     13  C   UNL     1      -1.783  -1.081   6.495  0.00  0.00    +0.004 A 
ATOM     14  C   UNL     1      -1.734   0.226   6.059  0.00  0.00    +0.094 A 
ATOM     15  N   UNL     1      -2.314   1.032   6.982  0.00  0.00    -0.349 N 
ATOM     16  C   UNL     1      -2.766   0.290   8.058  0.00  0.00    +0.050 A 
ATOM     17  C   UNL     1      -2.464  -1.057   7.804  0.00  0.00    +0.011 A 
ATOM     18  C   UNL     1      -2.814  -2.038   8.727  0.00  0.00    +0.056 A 
ATOM     19  C   UNL     1      -3.464  -1.680   9.893  0.00  0.00    +0.121 A 
ATOM     20  C   UNL     1      -3.767  -0.345  10.143  0.00  0.00    +0.047 A 
ATOM     21  C   UNL     1      -3.416   0.634   9.239  0.00  0.00    +0.030 A 
ATOM     22  C   UNL     1      -2.444   2.486   6.858  0.00  0.00    +0.149 C 
BRANCH  19  23
ATOM     23  O   UNL     1      -3.809  -2.634  10.798  0.00  0.00    -0.495 OA
ATOM     24  C   UNL     1      -4.478  -2.194  11.982  0.00  0.00    +0.277 C 
ENDBRANCH  19  23
ENDBRANCH  11  13
BRANCH   4  25
ATOM     25  O   UNL     1      -1.161  -4.223  -1.113  0.00  0.00    -0.506 OA
ATOM     26  H   UNL     1      -0.368  -3.911  -1.570  0.00  0.00    +0.292 HD
ENDBRANCH   4  25
BRANCH   5  27
ATOM     27  C   UNL     1      -0.048  -5.113   1.316  0.00  0.00    -0.036 C 
BRANCH  27  28
ATOM     28  N   UNL     1       1.255  -4.795   0.717  0.00  0.00    +0.383 N 
ATOM     29  H   UNL     1       1.117  -4.430  -0.214  0.00  0.00    -0.081 HD
BRANCH  28  30
ATOM     30  C   UNL     1       1.940  -3.789   1.540  0.00  0.00    -0.075 C 
BRANCH  30  31
ATOM     31  C   UNL     1       1.493  -2.389   1.112  0.00  0.00    -0.034 C 
ATOM     32  C   UNL     1       2.131  -1.347   2.032  0.00  0.00    +0.005 C 
ATOM     33  C   UNL     1       1.932  -2.133  -0.331  0.00  0.00    +0.005 C 
ENDBRANCH  30  31
ENDBRANCH  28  30
BRANCH  28  34
ATOM     34  C   UNL     1       2.074  -6.012   0.649  0.00  0.00    -0.075 C 
BRANCH  34  35
ATOM     35  C   UNL     1       1.439  -7.000  -0.332  0.00  0.00    -0.034 C 
ATOM     36  C   UNL     1       1.468  -6.407  -1.742  0.00  0.00    +0.005 C 
ATOM     37  C   UNL     1       2.225  -8.312  -0.314  0.00  0.00    +0.005 C 
ENDBRANCH  34  35
ENDBRANCH  28  34
ENDBRANCH  27  28
ENDBRANCH   5  27
TORSDOF 9
