REMARK  Name = ZINC06301727
REMARK  11 active torsions:
REMARK  status: ('A' for Active; 'I' for Inactive)
REMARK    1  A    between atoms: C_1  and  C_2
REMARK    2  A    between atoms: C_4  and  C_37
REMARK    3  A    between atoms: C_7  and  C_14
REMARK    4  A    between atoms: C_14  and  C_16
REMARK    5  A    between atoms: C_14  and  N_70
REMARK    6  A    between atoms: N_20  and  C_21
REMARK    7  A    between atoms: C_21  and  C_22
REMARK    8  A    between atoms: C_25  and  O_28
REMARK    9  A    between atoms: O_28  and  C_29
REMARK   10  A    between atoms: C_30  and  N_70
REMARK   11  A    between atoms: C_31  and  N_70
REMARK                            x       y       z     vdW  Elec       q    Type
REMARK                         _______ _______ _______ _____ _____    ______ ____
ROOT
ATOM      1  C   UNL     1       0.446   3.321  -0.908  0.00  0.00    +0.039 C 
ENDROOT
BRANCH   1   8
ATOM      2  C   UNL     1       3.504  -3.354  -4.025  0.00  0.00    +0.044 C 
ATOM      3  C   UNL     1       3.146  -2.044  -3.372  0.00  0.00    -0.048 A 
ATOM      4  C   UNL     1       4.140  -1.276  -2.782  0.00  0.00    +0.007 A 
ATOM      5  C   UNL     1       3.836  -0.086  -2.185  0.00  0.00    -0.041 A 
ATOM      6  C   UNL     1       2.512   0.363  -2.167  0.00  0.00    +0.002 A 
ATOM      7  C   UNL     1       2.151   1.634  -1.535  0.00  0.00    +0.018 A 
ATOM      8  C   UNL     1       0.851   2.018  -1.550  0.00  0.00    +0.011 A 
ATOM      9  C   UNL     1      -0.125   1.203  -2.162  0.00  0.00    +0.251 A 
ATOM     10  O   UNL     1      -1.287   1.569  -2.168  0.00  0.00    -0.268 OA
ATOM     11  N   UNL     1       0.197   0.034  -2.745  0.00  0.00    -0.322 N 
ATOM     12  H   UNL     1      -0.499  -0.502  -3.157  0.00  0.00    +0.169 HD
ATOM     13  C   UNL     1       1.501  -0.413  -2.764  0.00  0.00    +0.050 A 
ATOM     14  C   UNL     1       1.834  -1.622  -3.367  0.00  0.00    +0.029 A 
ATOM     15  C   UNL     1       4.924   0.741  -1.548  0.00  0.00    +0.044 C 
ENDBRANCH   1   8
BRANCH   1  16
ATOM     16  C   UNL     1      -0.113   4.245  -1.959  0.00  0.00    +0.143 A 
ATOM     17  N   UNL     1      -1.217   4.075  -2.645  0.00  0.00    -0.115 NA
ATOM     18  N   UNL     1      -1.351   5.079  -3.440  0.00  0.00    -0.023 NA
ATOM     19  N   UNL     1      -0.361   5.886  -3.280  0.00  0.00    -0.044 NA
ATOM     20  N   UNL     1       0.421   5.410  -2.372  0.00  0.00    -0.226 N 
BRANCH  20  21
ATOM     21  C   UNL     1       1.661   6.019  -1.883  0.00  0.00    +0.182 C 
BRANCH  21  22
ATOM     22  C   UNL     1       2.796   5.659  -2.807  0.00  0.00    -0.026 A 
ATOM     23  C   UNL     1       3.546   4.522  -2.568  0.00  0.00    +0.009 A 
ATOM     24  C   UNL     1       4.583   4.186  -3.416  0.00  0.00    +0.046 A 
ATOM     25  C   UNL     1       4.880   4.997  -4.502  0.00  0.00    +0.120 A 
ATOM     26  C   UNL     1       4.130   6.141  -4.736  0.00  0.00    +0.046 A 
ATOM     27  C   UNL     1       3.090   6.469  -3.888  0.00  0.00    +0.009 A 
BRANCH  25  28
ATOM     28  O   UNL     1       5.903   4.672  -5.335  0.00  0.00    -0.495 OA
ATOM     29  C   UNL     1       6.632   3.481  -5.032  0.00  0.00    +0.277 C 
ENDBRANCH  25  28
ENDBRANCH  21  22
ENDBRANCH  20  21
ENDBRANCH   1  16
BRANCH   1  31
ATOM     30  C   UNL     1      -0.128   2.040   1.065  0.00  0.00    -0.094 C 
ATOM     31  N   UNL     1      -0.601   3.055   0.101  0.00  0.00    +0.389 N 
ATOM     32  H   UNL     1      -1.440   2.700  -0.374  0.00  0.00    -0.080 HD
BRANCH  31  33
ATOM     33  C   UNL     1      -0.946   4.305   0.811  0.00  0.00    -0.068 C 
ATOM     34  C   UNL     1       0.209   4.745   1.713  0.00  0.00    -0.015 C 
ATOM     35  C   UNL     1      -0.174   6.036   2.439  0.00  0.00    -0.002 C 
ATOM     36  C   UNL     1      -1.421   5.791   3.291  0.00  0.00    -0.000 C 
ATOM     37  C   UNL     1      -2.576   5.351   2.389  0.00  0.00    -0.002 C 
ATOM     38  C   UNL     1      -2.193   4.060   1.663  0.00  0.00    -0.015 C 
ENDBRANCH  31  33
ENDBRANCH   1  31
TORSDOF 7
