REMARK  Name = ZINC04761188
REMARK  14 active torsions:
REMARK  status: ('A' for Active; 'I' for Inactive)
REMARK    1  A    between atoms: C_1  and  C_2
REMARK    2  A    between atoms: C_2  and  N_3
REMARK    3  A    between atoms: N_3  and  C_4
REMARK    4  A    between atoms: N_3  and  C_6
REMARK    5  A    between atoms: C_4  and  C_5
REMARK    6  A    between atoms: C_9  and  C_12
REMARK    7  A    between atoms: C_17  and  C_27
REMARK    8  A    between atoms: C_19  and  C_23
REMARK    9  A    between atoms: C_23  and  O_25
REMARK   10  A    between atoms: O_25  and  C_26
REMARK   11  A    between atoms: C_29  and  C_39
REMARK   12  A    between atoms: C_30  and  C_31
REMARK   13  A    between atoms: C_31  and  O_33
REMARK   14  A    between atoms: O_33  and  C_34
REMARK                            x       y       z     vdW  Elec       q    Type
REMARK                         _______ _______ _______ _____ _____    ______ ____
ROOT
ATOM      1  C   UNL     1       4.021   2.481  -0.241  0.00  0.00    +0.092 C 
ATOM      2  C   UNL     1       5.253   3.109   0.364  0.00  0.00    +0.025 C 
ATOM      3  C   UNL     1       6.079   2.387   1.150  0.00  0.00    +0.016 C 
ATOM      4  C   UNL     1       7.324   3.001   1.739  0.00  0.00    +0.055 C 
ATOM      5  C   UNL     1       7.094   4.493   1.988  0.00  0.00    +0.013 C 
ATOM      6  C   UNL     1       6.721   5.156   0.658  0.00  0.00    +0.171 C 
ATOM      7  C   UNL     1       5.516   4.462   0.085  0.00  0.00    +0.176 C 
ATOM      8  O   UNL     1       4.756   5.082  -0.633  0.00  0.00    -0.291 OA
ATOM      9  C   UNL     1       8.373   5.126   2.538  0.00  0.00    +0.009 C 
ATOM     10  N   UNL     1       5.803   1.075   1.428  0.00  0.00    -0.321 N 
ATOM     11  C   UNL     1       4.540   0.578   1.263  0.00  0.00    +0.016 C 
ATOM     12  C   UNL     1       3.653   1.218   0.481  0.00  0.00    +0.065 C 
ATOM     13  C   UNL     1       4.139  -0.695   1.962  0.00  0.00    +0.061 C 
ATOM     14  H   UNL     1       6.601   0.409   1.787  0.00  0.00    +0.152 HD
ENDROOT
BRANCH   1  18
ATOM     15  C   UNL     1       4.763   1.581  -4.353  0.00  0.00    +0.030 A 
ATOM     16  C   UNL     1       3.757   2.474  -4.006  0.00  0.00    +0.023 A 
ATOM     17  C   UNL     1       3.520   2.763  -2.677  0.00  0.00    +0.006 A 
ATOM     18  C   UNL     1       4.282   2.164  -1.691  0.00  0.00    -0.035 A 
ATOM     19  C   UNL     1       5.288   1.278  -2.032  0.00  0.00    +0.006 A 
ATOM     20  C   UNL     1       5.526   0.980  -3.360  0.00  0.00    +0.023 A 
BRANCH  15  21
ATOM     21  N   UNL     1       5.006   1.287  -5.696  0.00  0.00    -0.330 N 
BRANCH  21  23
ATOM     22  C   UNL     1       5.491  -1.073  -6.119  0.00  0.00    +0.024 C 
ATOM     23  C   UNL     1       6.066   0.344  -6.060  0.00  0.00    +0.102 C 
ENDBRANCH  21  23
BRANCH  21  24
ATOM     24  C   UNL     1       4.200   1.921  -6.742  0.00  0.00    +0.102 C 
ATOM     25  C   UNL     1       4.864   3.231  -7.174  0.00  0.00    +0.024 C 
ENDBRANCH  21  24
ENDBRANCH  15  21
ENDBRANCH   1  18
BRANCH   6  26
ATOM     26  C   UNL     1       6.403   6.611   0.890  0.00  0.00    +0.318 C 
ATOM     27  O   UNL     1       6.474   7.075   2.003  0.00  0.00    -0.250 OA
BRANCH  26  28
ATOM     28  O   UNL     1       6.041   7.391  -0.141  0.00  0.00    -0.467 OA
ATOM     29  C   UNL     1       5.749   8.782   0.156  0.00  0.00    +0.280 C 
ENDBRANCH  26  28
ENDBRANCH   6  26
BRANCH  12  30
ATOM     30  C   UNL     1       2.350   0.688   0.332  0.00  0.00    +0.338 C 
ATOM     31  O   UNL     1       1.409   1.218   0.893  0.00  0.00    -0.245 OA
BRANCH  30  32
ATOM     32  O   UNL     1       2.150  -0.406  -0.432  0.00  0.00    -0.458 OA
BRANCH  32  33
ATOM     33  C   UNL     1       0.809  -0.887  -0.538  0.00  0.00    +0.177 C 
ATOM     34  C   UNL     1       0.113  -0.284  -1.783  0.00  0.00    +0.044 C 
ATOM     35  C   UNL     1      -1.008  -1.317  -2.078  0.00  0.00    +0.004 C 
ATOM     36  C   UNL     1      -0.355  -2.681  -1.775  0.00  0.00    +0.004 C 
ATOM     37  C   UNL     1       0.799  -2.408  -0.795  0.00  0.00    +0.044 C 
ENDBRANCH  32  33
ENDBRANCH  30  32
ENDBRANCH  12  30
TORSDOF 9
