REMARK  Name = ZINC16434158
REMARK  15 active torsions:
REMARK  status: ('A' for Active; 'I' for Inactive)
REMARK    1  A    between atoms: C_1  and  C_2
REMARK    2  A    between atoms: C_2  and  C_3
REMARK    3  A    between atoms: C_2  and  C_4
REMARK    4  A    between atoms: C_4  and  N_5
REMARK    5  A    between atoms: N_5  and  C_6
REMARK    6  A    between atoms: C_6  and  C_7
REMARK    7  A    between atoms: N_9  and  C_10
REMARK    8  A    between atoms: C_12  and  C_23
REMARK    9  A    between atoms: N_14  and  C_15
REMARK   10  A    between atoms: C_18  and  O_21
REMARK   11  A    between atoms: O_21  and  C_22
REMARK   12  A    between atoms: C_23  and  C_24
REMARK   13  A    between atoms: C_23  and  C_25
REMARK   14  A    between atoms: C_23  and  C_26
REMARK   15  A    between atoms: C_27  and  C_29
REMARK                            x       y       z     vdW  Elec       q    Type
REMARK                         _______ _______ _______ _____ _____    ______ ____
ROOT
ATOM      1  C   UNL     1      -0.972   2.787   0.397  0.00  0.00    +0.236 C 
ATOM      2  O   UNL     1      -0.505   1.784   0.895  0.00  0.00    -0.274 OA
ATOM      3  N   UNL     1      -0.245   3.921   0.359  0.00  0.00    -0.269 N 
ATOM      4  H   UNL     1      -0.618   4.723  -0.039  0.00  0.00    +0.156 HD
ENDROOT
BRANCH   3   5
ATOM      5  C   UNL     1       1.044   3.942   0.892  0.00  0.00    +0.129 A 
ATOM      6  C   UNL     1       1.690   2.896   1.478  0.00  0.00    +0.069 A 
ATOM      7  C   UNL     1       2.955   3.341   1.873  0.00  0.00    +0.071 A 
ATOM      8  N   UNL     1       3.073   4.602   1.542  0.00  0.00    -0.169 NA
ATOM      9  N   UNL     1       1.888   5.009   0.917  0.00  0.00    -0.218 N 
BRANCH   9  10
ATOM     10  C   UNL     1       1.618   6.288   0.409  0.00  0.00    +0.068 A 
ATOM     11  C   UNL     1       0.851   6.432  -0.739  0.00  0.00    +0.031 A 
ATOM     12  C   UNL     1       0.581   7.692  -1.235  0.00  0.00    +0.048 A 
ATOM     13  C   UNL     1       1.085   8.814  -0.592  0.00  0.00    +0.120 A 
ATOM     14  C   UNL     1       1.856   8.670   0.552  0.00  0.00    +0.048 A 
ATOM     15  C   UNL     1       2.122   7.411   1.052  0.00  0.00    +0.031 A 
BRANCH  13  16
ATOM     16  O   UNL     1       0.823  10.054  -1.084  0.00  0.00    -0.495 OA
ATOM     17  C   UNL     1       0.022  10.127  -2.265  0.00  0.00    +0.277 C 
ENDBRANCH  13  16
ENDBRANCH   9  10
BRANCH   7  18
ATOM     18  C   UNL     1       4.005   2.509   2.562  0.00  0.00    +0.006 C 
ATOM     19  C   UNL     1       4.649   1.560   1.550  0.00  0.00    +0.017 C 
ATOM     20  C   UNL     1       5.076   3.427   3.154  0.00  0.00    +0.017 C 
ATOM     21  C   UNL     1       3.355   1.695   3.683  0.00  0.00    +0.017 C 
ENDBRANCH   7  18
ENDBRANCH   3   5
BRANCH   1  22
ATOM     22  C   UNL     1      -2.362   2.763  -0.184  0.00  0.00    +0.204 C 
BRANCH  22  23
ATOM     23  N   UNL     1      -2.935   1.424  -0.025  0.00  0.00    -0.288 N 
ATOM     24  C   UNL     1      -3.045   0.607  -1.092  0.00  0.00    +0.247 C 
ATOM     25  O   UNL     1      -3.574  -0.481  -0.973  0.00  0.00    -0.270 OA
BRANCH  24  26
ATOM     26  C   UNL     1      -2.522   1.034  -2.407  0.00  0.00    +0.038 A 
ATOM     27  C   UNL     1      -1.456   1.933  -2.478  0.00  0.00    +0.014 A 
ATOM     28  C   UNL     1      -0.969   2.325  -3.708  0.00  0.00    +0.022 A 
ATOM     29  C   UNL     1      -1.541   1.837  -4.870  0.00  0.00    +0.059 A 
ATOM     30  C   UNL     1      -2.603   0.948  -4.806  0.00  0.00    +0.060 A 
ATOM     31  C   UNL     1      -3.095   0.545  -3.581  0.00  0.00    +0.034 A 
ATOM     32 CL   UNL     1      -3.314   0.340  -6.269  0.00  0.00    -0.082 Cl
ATOM     33 CL   UNL     1      -0.926   2.339  -6.414  0.00  0.00    -0.082 Cl
ENDBRANCH  24  26
BRANCH  23  34
ATOM     34  C   UNL     1      -3.388   0.973   1.292  0.00  0.00    +0.111 C 
BRANCH  34  36
ATOM     35  C   UNL     1      -5.390   0.623   2.746  0.00  0.00    +0.009 C 
ATOM     36  C   UNL     1      -4.894   1.207   1.421  0.00  0.00    +0.000 C 
ATOM     37  C   UNL     1      -5.182   2.709   1.387  0.00  0.00    +0.009 C 
ENDBRANCH  34  36
ENDBRANCH  23  34
ENDBRANCH  22  23
ENDBRANCH   1  22
TORSDOF 9
