REMARK  Name = ZINC40806490
REMARK  5 active torsions:
REMARK  status: ('A' for Active; 'I' for Inactive)
REMARK    1  A    between atoms: C_1  and  C_2
REMARK    2  A    between atoms: C_5  and  C_8
REMARK    3  A    between atoms: C_8  and  N_9
REMARK    4  A    between atoms: C_16  and  C_17
REMARK    5  A    between atoms: C_21  and  C_26
REMARK                            x       y       z     vdW  Elec       q    Type
REMARK                         _______ _______ _______ _____ _____    ______ ____
ROOT
ATOM      1  N   UNL     1       1.502  -4.541   0.111  0.00  0.00    -0.329 N 
ATOM      2  C   UNL     1       2.366  -4.725  -0.938  0.00  0.00    +0.088 A 
ATOM      3  C   UNL     1       2.555  -4.582  -2.332  0.00  0.00    +0.067 A 
ATOM      4  C   UNL     1       3.789  -5.038  -2.614  0.00  0.00    +0.198 A 
ATOM      5  O   UNL     1       4.381  -5.456  -1.482  0.00  0.00    -0.461 OA
ATOM      6  C   UNL     1       3.540  -5.280  -0.439  0.00  0.00    +0.153 A 
ATOM      7  C   UNL     1       3.378  -5.432   0.942  0.00  0.00    +0.079 A 
ATOM      8  C   UNL     1       2.122  -4.969   1.269  0.00  0.00    +0.109 A 
ENDROOT
BRANCH   8   9
ATOM      9  C   UNL     1       1.541  -4.939   2.614  0.00  0.00    +0.266 C 
ATOM     10  O   UNL     1       2.233  -5.197   3.581  0.00  0.00    -0.268 OA
ATOM     11  N   UNL     1       0.241  -4.625   2.780  0.00  0.00    -0.265 N 
ATOM     12  C   UNL     1      -0.320  -4.632   4.054  0.00  0.00    +0.128 A 
ATOM     13  C   UNL     1      -1.663  -4.312   4.218  0.00  0.00    -0.010 A 
ATOM     14  C   UNL     1      -2.208  -4.323   5.490  0.00  0.00    +0.008 A 
ATOM     15  C   UNL     1      -1.386  -4.655   6.559  0.00  0.00    +0.020 A 
ATOM     16  C   UNL     1      -0.061  -4.961   6.324  0.00  0.00    +0.113 A 
ATOM     17  N   UNL     1       0.430  -4.947   5.099  0.00  0.00    -0.240 NA
ATOM     18  C   UNL     1      -2.515  -3.959   3.026  0.00  0.00    +0.047 C 
ATOM     19  H   UNL     1      -0.304  -4.394   2.011  0.00  0.00    +0.157 HD
ENDBRANCH   8   9
BRANCH   1  20
ATOM     20  C   UNL     1       0.152  -3.979   0.019  0.00  0.00    +0.157 C 
BRANCH  20  25
ATOM     21  C   UNL     1      -3.620  -8.199  -1.143  0.00  0.00    +0.044 C 
ATOM     22  C   UNL     1      -2.636  -7.099  -0.840  0.00  0.00    -0.050 A 
ATOM     23  C   UNL     1      -2.220  -6.883   0.460  0.00  0.00    +0.004 A 
ATOM     24  C   UNL     1      -1.317  -5.873   0.738  0.00  0.00    +0.005 A 
ATOM     25  C   UNL     1      -0.831  -5.080  -0.284  0.00  0.00    -0.028 A 
ATOM     26  C   UNL     1      -1.246  -5.297  -1.584  0.00  0.00    +0.005 A 
ATOM     27  C   UNL     1      -2.146  -6.309  -1.863  0.00  0.00    +0.004 A 
ENDBRANCH  20  25
ENDBRANCH   1  20
TORSDOF 3
