REMARK  Name = ZINC34774027
REMARK  6 active torsions:
REMARK  status: ('A' for Active; 'I' for Inactive)
REMARK    1  A    between atoms: C_1  and  C_2
REMARK    2  A    between atoms: C_2  and  C_4
REMARK    3  A    between atoms: C_4  and  N_5
REMARK    4  A    between atoms: C_13  and  C_27
REMARK    5  A    between atoms: C_18  and  C_20
REMARK    6  A    between atoms: C_20  and  C_21
REMARK                            x       y       z     vdW  Elec       q    Type
REMARK                         _______ _______ _______ _____ _____    ______ ____
ROOT
ATOM      1  N   UNL     1      -3.587  -1.012  -0.690  0.00  0.00    +0.384 N 
ATOM      2  C   UNL     1      -4.808  -1.548  -1.304  0.00  0.00    -0.059 C 
ATOM      3  C   UNL     1      -4.547  -1.843  -2.785  0.00  0.00    +0.088 C 
ATOM      4  N   UNL     1      -4.034  -0.619  -3.421  0.00  0.00    -0.318 N 
ATOM      5  C   UNL     1      -2.910   0.077  -2.777  0.00  0.00    +0.088 C 
ATOM      6  C   UNL     1      -3.248   0.281  -1.296  0.00  0.00    -0.059 C 
ATOM      7  C   UNL     1      -4.593  -0.138  -4.591  0.00  0.00    +0.134 A 
ATOM      8  C   UNL     1      -4.336  -0.784  -5.829  0.00  0.00    +0.055 A 
ATOM      9  C   UNL     1      -3.522  -1.961  -6.114  0.00  0.00    +0.002 A 
ATOM     10  C   UNL     1      -3.429  -2.395  -7.393  0.00  0.00    +0.056 A 
ATOM     11  S   UNL     1      -4.437  -1.238  -8.299  0.00  0.00    -0.076 S 
ATOM     12  C   UNL     1      -4.958  -0.206  -6.955  0.00  0.00    +0.114 A 
ATOM     13  N   UNL     1      -5.723   0.863  -6.844  0.00  0.00    -0.224 NA
ATOM     14  C   UNL     1      -5.925   1.421  -5.666  0.00  0.00    +0.137 A 
ATOM     15  N   UNL     1      -5.379   0.927  -4.569  0.00  0.00    -0.216 NA
ATOM     16  H   UNL     1      -2.827  -1.660  -0.837  0.00  0.00    -0.081 HD
ENDROOT
BRANCH   9  17
ATOM     17  C   UNL     1      -2.811  -2.668  -5.023  0.00  0.00    -0.017 A 
ATOM     18  C   UNL     1      -1.856  -1.998  -4.260  0.00  0.00    +0.008 A 
ATOM     19  C   UNL     1      -1.196  -2.662  -3.246  0.00  0.00    +0.001 A 
ATOM     20  C   UNL     1      -1.481  -3.990  -2.985  0.00  0.00    +0.000 A 
ATOM     21  C   UNL     1      -2.428  -4.661  -3.739  0.00  0.00    +0.001 A 
ATOM     22  C   UNL     1      -3.098  -4.006  -4.752  0.00  0.00    +0.008 A 
ENDBRANCH   9  17
BRANCH   1  23
ATOM     23  C   UNL     1      -3.804  -0.833   0.752  0.00  0.00    -0.048 C 
BRANCH  23  25
ATOM     24  C   UNL     1      -2.824  -3.023   1.780  0.00  0.00    +0.036 C 
ATOM     25  C   UNL     1      -4.012  -2.178   1.399  0.00  0.00    -0.096 C 
ATOM     26  C   UNL     1      -5.226  -2.612   1.631  0.00  0.00    +0.005 C 
ENDBRANCH  23  25
ENDBRANCH   1  23
BRANCH  14  27
ATOM     27  C   UNL     1      -6.803   2.641  -5.568  0.00  0.00    +0.111 C 
BRANCH  27  28
ATOM     28  C   UNL     1      -8.230   2.216  -5.335  0.00  0.00    -0.040 A 
ATOM     29  C   UNL     1      -9.065   1.980  -6.412  0.00  0.00    +0.004 A 
ATOM     30  C   UNL     1     -10.373   1.590  -6.199  0.00  0.00    +0.000 A 
ATOM     31  C   UNL     1     -10.848   1.436  -4.910  0.00  0.00    +0.000 A 
ATOM     32  C   UNL     1     -10.013   1.671  -3.833  0.00  0.00    +0.000 A 
ATOM     33  C   UNL     1      -8.703   2.057  -4.046  0.00  0.00    +0.004 A 
ENDBRANCH  27  28
ENDBRANCH  14  27
TORSDOF 5
