REMARK  Name = ZINC66235401
REMARK  8 active torsions:
REMARK  status: ('A' for Active; 'I' for Inactive)
REMARK    1  A    between atoms: C_1  and  C_2
REMARK    2  A    between atoms: C_3  and  C_12
REMARK    3  A    between atoms: C_12  and  C_13
REMARK    4  A    between atoms: C_13  and  N_14
REMARK    5  A    between atoms: N_17  and  C_18
REMARK    6  A    between atoms: C_18  and  C_19
REMARK    7  A    between atoms: C_19  and  C_20
REMARK    8  A    between atoms: C_24  and  O_26
REMARK                            x       y       z     vdW  Elec       q    Type
REMARK                         _______ _______ _______ _____ _____    ______ ____
ROOT
ATOM      1  N   UNL     1       1.418   0.372  -4.405  0.00  0.00    -0.299 N 
ATOM      2  C   UNL     1       2.579   0.605  -5.049  0.00  0.00    +0.300 C 
ATOM      3  O   UNL     1       3.637   0.423  -4.479  0.00  0.00    -0.253 OA
ATOM      4  N   UNL     1       2.566   1.038  -6.325  0.00  0.00    -0.299 N 
ATOM      5  H   UNL     1       0.573   0.516  -4.860  0.00  0.00    +0.150 HD
ATOM      6  H   UNL     1       1.722   1.183  -6.780  0.00  0.00    +0.150 HD
ENDROOT
BRANCH   1   7
ATOM      7  C   UNL     1       1.431  -0.100  -3.018  0.00  0.00    +0.110 C 
BRANCH   7   8
ATOM      8  C   UNL     1      -0.006  -0.284  -2.528  0.00  0.00    +0.056 C 
BRANCH   8  11
ATOM      9  C   UNL     1      -0.018   1.503   0.010  0.00  0.00    +0.063 C 
ATOM     10  C   UNL     1       0.002  -0.004   0.002  0.00  0.00    +0.017 A 
ATOM     11  C   UNL     1       0.007  -0.769  -1.101  0.00  0.00    -0.018 A 
ATOM     12  C   UNL     1       0.029  -2.164  -0.655  0.00  0.00    +0.003 A 
ATOM     13  C   UNL     1       0.043  -3.394  -1.316  0.00  0.00    +0.010 A 
ATOM     14  C   UNL     1       0.063  -4.552  -0.593  0.00  0.00    +0.001 A 
ATOM     15  C   UNL     1       0.070  -4.517   0.795  0.00  0.00    +0.002 A 
ATOM     16  C   UNL     1       0.056  -3.315   1.468  0.00  0.00    +0.026 A 
ATOM     17  C   UNL     1       0.036  -2.122   0.751  0.00  0.00    +0.047 A 
ATOM     18  N   UNL     1       0.024  -0.795   1.118  0.00  0.00    -0.358 N 
ATOM     19  H   UNL     1       0.029  -0.470   2.032  0.00  0.00    +0.166 HD
ENDBRANCH   8  11
ENDBRANCH   7   8
ENDBRANCH   1   7
BRANCH   4  20
ATOM     20  C   UNL     1       3.828   1.291  -7.025  0.00  0.00    +0.110 C 
BRANCH  20  21
ATOM     21  C   UNL     1       3.534   1.772  -8.448  0.00  0.00    +0.054 C 
BRANCH  21  22
ATOM     22  C   UNL     1       4.832   2.032  -9.168  0.00  0.00    -0.042 A 
ATOM     23  C   UNL     1       5.417   3.284  -9.108  0.00  0.00    +0.004 A 
ATOM     24  C   UNL     1       6.607   3.526  -9.767  0.00  0.00    +0.004 A 
ATOM     25  C   UNL     1       7.216   2.517 -10.489  0.00  0.00    +0.045 A 
ATOM     26  C   UNL     1       6.632   1.261 -10.551  0.00  0.00    +0.117 A 
ATOM     27  C   UNL     1       5.440   1.018  -9.883  0.00  0.00    +0.049 A 
BRANCH  26  28
ATOM     28  O   UNL     1       7.229   0.267 -11.259  0.00  0.00    -0.507 OA
ATOM     29  H   UNL     1       7.851  -0.265 -10.744  0.00  0.00    +0.292 HD
ENDBRANCH  26  28
ENDBRANCH  21  22
ENDBRANCH  20  21
ENDBRANCH   4  20
TORSDOF 7
