REMARK  Name = ZINC53112154
REMARK  6 active torsions:
REMARK  status: ('A' for Active; 'I' for Inactive)
REMARK    1  A    between atoms: C_1  and  C_2
REMARK    2  A    between atoms: C_7  and  C_9
REMARK    3  A    between atoms: C_7  and  N_11
REMARK    4  A    between atoms: C_9  and  O_10
REMARK    5  A    between atoms: C_12  and  C_14
REMARK    6  A    between atoms: C_16  and  N_21
REMARK                            x       y       z     vdW  Elec       q    Type
REMARK                         _______ _______ _______ _____ _____    ______ ____
ROOT
ATOM      1  N   UNL     1       2.056   1.413   1.204  0.00  0.00    -0.304 N 
ATOM      2  C   UNL     1       1.558   1.851   2.377  0.00  0.00    +0.246 C 
ATOM      3  O   UNL     1       1.225   1.053   3.231  0.00  0.00    -0.270 OA
ATOM      4  H   UNL     1       2.250   2.045   0.493  0.00  0.00    +0.150 HD
ENDROOT
BRANCH   1  10
ATOM      5  C   UNL     1      -0.218   1.232   0.183  0.00  0.00    +0.007 C 
ATOM      6  C   UNL     1       0.040  -0.261  -0.029  0.00  0.00    -0.012 C 
ATOM      7  C   UNL     1       0.686  -0.477  -1.399  0.00  0.00    +0.003 C 
ATOM      8  C   UNL     1       2.012   0.283  -1.463  0.00  0.00    +0.002 C 
ATOM      9  C   UNL     1       2.949  -0.233  -0.369  0.00  0.00    +0.028 C 
ATOM     10  C   UNL     1       2.303  -0.016   1.000  0.00  0.00    +0.058 C 
ATOM     11  C   UNL     1       0.977  -0.777   1.064  0.00  0.00    +0.031 C 
BRANCH  10  12
ATOM     12  C   UNL     1       3.240  -0.532   2.094  0.00  0.00    +0.181 C 
BRANCH  12  13
ATOM     13  O   UNL     1       4.487   0.161   2.018  0.00  0.00    -0.393 OA
ATOM     14  H   UNL     1       5.132  -0.116   2.684  0.00  0.00    +0.209 HD
ENDBRANCH  12  13
ENDBRANCH  10  12
ENDBRANCH   1  10
BRANCH   2  15
ATOM     15  C   UNL     1       1.419   3.301   2.626  0.00  0.00    +0.057 A 
ATOM     16  C   UNL     1       1.796   4.219   1.645  0.00  0.00    +0.037 A 
ATOM     17  C   UNL     1       1.661   5.578   1.885  0.00  0.00    +0.025 A 
ATOM     18  C   UNL     1       1.152   6.022   3.100  0.00  0.00    +0.024 A 
ATOM     19  C   UNL     1       0.779   5.115   4.072  0.00  0.00    +0.022 A 
ATOM     20  C   UNL     1       0.903   3.758   3.841  0.00  0.00    +0.053 A 
ATOM     21 CL   UNL     1       0.426   2.622   5.064  0.00  0.00    -0.083 Cl
BRANCH  17  22
ATOM     22  N   UNL     1       2.038   6.501   0.905  0.00  0.00    -0.358 N 
ATOM     23  H   UNL     1       2.393   6.191   0.057  0.00  0.00    +0.142 HD
ATOM     24  H   UNL     1       1.944   7.452   1.073  0.00  0.00    +0.142 HD
ENDBRANCH  17  22
ENDBRANCH   2  15
TORSDOF 5
