REMARK  Name = ZINC24141017
REMARK  6 active torsions:
REMARK  status: ('A' for Active; 'I' for Inactive)
REMARK    1  A    between atoms: C_6  and  S_14
REMARK    2  A    between atoms: C_9  and  C_10
REMARK    3  A    between atoms: S_14  and  C_15
REMARK    4  A    between atoms: C_15  and  C_16
REMARK    5  A    between atoms: N_18  and  C_19
REMARK    6  A    between atoms: C_20  and  C_28
REMARK                            x       y       z     vdW  Elec       q    Type
REMARK                         _______ _______ _______ _____ _____    ______ ____
ROOT
ATOM      1  C   UNL     1      -0.742   1.585  -1.213  0.00  0.00    +0.228 C 
ATOM      2  O   UNL     1      -1.736   2.268  -1.088  0.00  0.00    -0.275 OA
ATOM      3  N   UNL     1      -0.288   1.272  -2.443  0.00  0.00    -0.279 N 
ATOM      4  H   UNL     1       0.614   0.653  -2.556  0.00  0.00    +0.155 HD
ENDROOT
BRANCH   3   5
ATOM      5  C   UNL     1      -0.959   1.732  -3.566  0.00  0.00    +0.084 A 
ATOM      6  C   UNL     1      -0.647   1.523  -4.902  0.00  0.00    +0.068 A 
ATOM      7  C   UNL     1      -1.523   2.118  -5.897  0.00  0.00    -0.023 A 
ATOM      8  C   UNL     1      -2.558   2.829  -5.401  0.00  0.00    -0.004 A 
ATOM      9  S   UNL     1      -2.386   2.712  -3.643  0.00  0.00    -0.077 S 
ATOM     10  C   UNL     1      -3.612   3.554  -6.180  0.00  0.00    +0.043 C 
ATOM     11  C   UNL     1      -3.135   3.685  -7.634  0.00  0.00    +0.005 C 
ATOM     12  C   UNL     1      -2.628   2.321  -8.111  0.00  0.00    +0.005 C 
ATOM     13  C   UNL     1      -1.318   1.975  -7.401  0.00  0.00    +0.037 C 
BRANCH   6  14
ATOM     14  C   UNL     1       0.521   0.728  -5.295  0.00  0.00    +0.244 C 
ATOM     15  O   UNL     1       0.412  -0.473  -5.461  0.00  0.00    -0.270 OA
ATOM     16  N   UNL     1       1.715   1.327  -5.473  0.00  0.00    -0.325 N 
ATOM     17  H   UNL     1       2.591   0.731  -5.767  0.00  0.00    +0.145 HD
ATOM     18  H   UNL     1       1.813   2.412  -5.323  0.00  0.00    +0.145 HD
ENDBRANCH   6  14
ENDBRANCH   3   5
BRANCH   1  19
ATOM     19  C   UNL     1      -0.013   1.086   0.008  0.00  0.00    +0.173 C 
BRANCH  19  20
ATOM     20  S   UNL     1      -0.862   1.671   1.500  0.00  0.00    -0.076 S 
BRANCH  20  26
ATOM     21  C   UNL     1      -0.069   1.132   6.908  0.00  0.00    +0.017 A 
ATOM     22  C   UNL     1       0.894   0.470   6.214  0.00  0.00    +0.049 A 
ATOM     23  C   UNL     1       0.863   0.489   4.805  0.00  0.00    +0.162 A 
ATOM     24  N   UNL     1       1.631  -0.040   3.871  0.00  0.00    -0.129 NA
ATOM     25  N   UNL     1       1.174   0.267   2.708  0.00  0.00    -0.122 NA
ATOM     26  C   UNL     1       0.099   1.013   2.823  0.00  0.00    +0.196 A 
ATOM     27  N   UNL     1      -0.140   1.178   4.155  0.00  0.00    -0.277 N 
ATOM     28  C   UNL     1      -1.100   1.839   4.870  0.00  0.00    +0.107 A 
ATOM     29  C   UNL     1      -1.079   1.826   6.218  0.00  0.00    +0.071 A 
BRANCH  29  30
ATOM     30  C   UNL     1      -2.145   2.560   6.990  0.00  0.00    +0.419 C 
ATOM     31  F   UNL     1      -1.918   2.405   8.361  0.00  0.00    -0.166 F 
ATOM     32  F   UNL     1      -2.107   3.919   6.661  0.00  0.00    -0.166 F 
ATOM     33  F   UNL     1      -3.401   2.037   6.663  0.00  0.00    -0.166 F 
ENDBRANCH  29  30
ENDBRANCH  20  26
ENDBRANCH  19  20
ENDBRANCH   1  19
TORSDOF 6
