REMARK  Name = ZINC40132964
REMARK  9 active torsions:
REMARK  status: ('A' for Active; 'I' for Inactive)
REMARK    1  A    between atoms: C_1  and  C_2
REMARK    2  A    between atoms: C_2  and  C_3
REMARK    3  A    between atoms: C_3  and  S_4
REMARK    4  A    between atoms: S_4  and  N_7
REMARK    5  A    between atoms: C_11  and  C_14
REMARK    6  A    between atoms: N_16  and  C_17
REMARK    7  A    between atoms: C_17  and  C_19
REMARK    8  A    between atoms: C_17  and  C_20
REMARK    9  A    between atoms: C_23  and  C_26
REMARK                            x       y       z     vdW  Elec       q    Type
REMARK                         _______ _______ _______ _____ _____    ______ ____
ROOT
ATOM      1  C   UNL     1       0.614  -4.527   5.780  0.00  0.00    +0.218 C 
ATOM      2  O   UNL     1      -0.063  -3.643   6.262  0.00  0.00    -0.275 OA
ATOM      3  N   UNL     1       0.808  -5.674   6.460  0.00  0.00    -0.308 N 
ATOM      4  H   UNL     1       1.349  -6.381   6.075  0.00  0.00    +0.149 HD
ENDROOT
BRANCH   1   9
ATOM      5  N   UNL     1       1.586  -2.747   2.607  0.00  0.00    -0.180 NA
ATOM      6  C   UNL     1       3.045  -2.913   2.588  0.00  0.00    +0.109 C 
ATOM      7  C   UNL     1       3.392  -4.295   3.153  0.00  0.00    +0.018 C 
ATOM      8  C   UNL     1       2.759  -4.449   4.538  0.00  0.00    +0.015 C 
ATOM      9  C   UNL     1       1.237  -4.342   4.420  0.00  0.00    +0.091 C 
ATOM     10  C   UNL     1       0.867  -2.956   3.872  0.00  0.00    +0.121 C 
BRANCH   5  11
ATOM     11  S   UNL     1       0.767  -2.325   1.232  0.00  0.00    +0.032 S 
ATOM     12  O   UNL     1      -0.547  -2.833   1.421  0.00  0.00    -0.158 OA
ATOM     13  O   UNL     1       1.580  -2.797   0.166  0.00  0.00    -0.158 OA
BRANCH  11  14
ATOM     14  C   UNL     1       0.742  -0.511   1.242  0.00  0.00    +0.185 C 
BRANCH  14  16
ATOM     15  C   UNL     1      -0.019   1.526   0.010  0.00  0.00    +0.005 C 
ATOM     16  C   UNL     1       0.002  -0.004   0.002  0.00  0.00    +0.021 C 
ENDBRANCH  14  16
ENDBRANCH  11  14
ENDBRANCH   5  11
ENDBRANCH   1   9
BRANCH   3  17
ATOM     17  C   UNL     1       0.202  -5.854   7.782  0.00  0.00    +0.100 C 
ATOM     18  C   UNL     1      -1.231  -6.364   7.621  0.00  0.00    +0.033 C 
BRANCH  17  19
ATOM     19  C   UNL     1       1.006  -6.855   8.571  0.00  0.00    -0.027 A 
ATOM     20  C   UNL     1       1.517  -7.977   7.943  0.00  0.00    +0.007 A 
ATOM     21  C   UNL     1       2.253  -8.897   8.660  0.00  0.00    +0.019 A 
ATOM     22  C   UNL     1       2.483  -8.694  10.022  0.00  0.00    +0.052 A 
ATOM     23  C   UNL     1       1.965  -7.559  10.649  0.00  0.00    +0.019 A 
ATOM     24  C   UNL     1       1.234  -6.645   9.920  0.00  0.00    +0.007 A 
BRANCH  22  25
ATOM     25  C   UNL     1       3.246  -9.646  10.772  0.00  0.00    +0.099 C 
ATOM     26  N   UNL     1       3.852 -10.400  11.367  0.00  0.00    -0.191 NA
ENDBRANCH  22  25
ENDBRANCH  17  19
ENDBRANCH   3  17
TORSDOF 7
