REMARK  Name = ZINC49521294
REMARK  5 active torsions:
REMARK  status: ('A' for Active; 'I' for Inactive)
REMARK    1  A    between atoms: C_3  and  C_6
REMARK    2  A    between atoms: C_6  and  C_12
REMARK    3  A    between atoms: C_12  and  N_13
REMARK    4  A    between atoms: C_14  and  C_16
REMARK    5  A    between atoms: N_18  and  C_19
REMARK                            x       y       z     vdW  Elec       q    Type
REMARK                         _______ _______ _______ _____ _____    ______ ____
ROOT
ATOM      1  C   UNL     1       2.001   5.955   1.967  0.00  0.00    +0.303 C 
ATOM      2  O   UNL     1       1.129   5.936   1.122  0.00  0.00    -0.265 OA
ATOM      3  N   UNL     1       2.051   6.963   2.861  0.00  0.00    -0.278 N 
ATOM      4  H   UNL     1       2.707   6.945   3.575  0.00  0.00    +0.155 HD
ENDROOT
BRANCH   3   5
ATOM      5  C   UNL     1       1.157   8.034   2.758  0.00  0.00    +0.034 A 
ATOM      6  C   UNL     1       1.597   9.312   3.097  0.00  0.00    +0.028 A 
ATOM      7  C   UNL     1       0.751  10.389   3.011  0.00  0.00    -0.024 A 
ATOM      8  C   UNL     1      -0.550  10.136   2.573  0.00  0.00    +0.043 A 
ATOM      9  C   UNL     1      -0.995   8.867   2.231  0.00  0.00    -0.015 A 
ATOM     10  C   UNL     1      -0.146   7.785   2.312  0.00  0.00    +0.029 A 
ATOM     11  C   UNL     1      -2.424   9.044   1.820  0.00  0.00    +0.133 C 
ATOM     12  C   UNL     1      -2.681  10.537   1.983  0.00  0.00    +0.224 C 
ATOM     13  O   UNL     1      -3.724  11.113   1.754  0.00  0.00    -0.275 OA
ATOM     14  N   UNL     1      -1.547  11.099   2.426  0.00  0.00    -0.271 N 
ATOM     15  C   UNL     1      -1.269  12.510   2.748  0.00  0.00    +0.114 C 
ATOM     16  C   UNL     1      -0.159  12.555   3.805  0.00  0.00    +0.024 C 
ATOM     17  C   UNL     1       1.098  11.811   3.342  0.00  0.00    +0.038 C 
ENDBRANCH   3   5
BRANCH   1  19
ATOM     18  N   UNL     1       2.969   3.856   1.121  0.00  0.00    -0.307 N 
ATOM     19  C   UNL     1       3.018   4.863   2.015  0.00  0.00    +0.299 C 
ATOM     20  O   UNL     1       3.890   4.883   2.860  0.00  0.00    -0.265 OA
ATOM     21  H   UNL     1       2.272   3.840   0.446  0.00  0.00    +0.149 HD
BRANCH  18  22
ATOM     22  C   UNL     1       3.966   2.784   1.169  0.00  0.00    +0.116 C 
BRANCH  22  23
ATOM     23  C   UNL     1       3.761   1.843  -0.020  0.00  0.00    +0.017 C 
ATOM     24  C   UNL     1       4.036   2.598  -1.322  0.00  0.00    +0.013 C 
ATOM     25  C   UNL     1       5.478   3.110  -1.320  0.00  0.00    +0.001 C 
ATOM     26  C   UNL     1       6.439   1.926  -1.205  0.00  0.00    +0.000 C 
ATOM     27  C   UNL     1       6.165   1.171   0.097  0.00  0.00    +0.001 C 
ATOM     28  C   UNL     1       4.723   0.659   0.095  0.00  0.00    +0.013 C 
BRANCH  23  31
ATOM     29  C   UNL     1       0.391   0.210   0.676  0.00  0.00    +0.008 A 
ATOM     30  C   UNL     1       1.714   0.550   0.885  0.00  0.00    +0.012 A 
ATOM     31  C   UNL     1       2.341   1.339  -0.022  0.00  0.00    -0.003 A 
ATOM     32  S   UNL     1       1.048   1.625  -1.219  0.00  0.00    -0.101 S 
ATOM     33  C   UNL     1      -0.241   0.674  -0.429  0.00  0.00    +0.045 A 
ENDBRANCH  23  31
ENDBRANCH  22  23
ENDBRANCH  18  22
ENDBRANCH   1  19
TORSDOF 5
