REMARK  Name = ZINC38596301
REMARK  13 active torsions:
REMARK  status: ('A' for Active; 'I' for Inactive)
REMARK    1  A    between atoms: C_1  and  C_2
REMARK    2  A    between atoms: C_2  and  C_3
REMARK    3  A    between atoms: C_3  and  O_4
REMARK    4  A    between atoms: O_4  and  C_5
REMARK    5  A    between atoms: C_8  and  S_11
REMARK    6  A    between atoms: S_11  and  N_14
REMARK    7  A    between atoms: N_14  and  C_15
REMARK    8  A    between atoms: C_15  and  C_17
REMARK    9  A    between atoms: C_15  and  C_18
REMARK   10  A    between atoms: C_18  and  C_20
REMARK   11  A    between atoms: C_18  and  N_25
REMARK   12  A    between atoms: N_28  and  C_31
REMARK   13  A    between atoms: C_31  and  C_32
REMARK                            x       y       z     vdW  Elec       q    Type
REMARK                         _______ _______ _______ _____ _____    ______ ____
ROOT
ATOM      1  C   UNL     1       6.748  -6.137  -4.524  0.00  0.00    +0.112 C 
ENDROOT
BRANCH   1   2
ATOM      2  N   UNL     1       7.061  -7.123  -3.482  0.00  0.00    -0.297 NA
ATOM      3  C   UNL     1       6.737  -6.599  -2.147  0.00  0.00    +0.066 C 
ATOM      4  C   UNL     1       7.021  -7.676  -1.097  0.00  0.00    -0.063 C 
ATOM      5  N   UNL     1       8.437  -8.061  -1.161  0.00  0.00    +0.384 N 
ATOM      6  C   UNL     1       8.739  -8.605  -2.492  0.00  0.00    -0.063 C 
ATOM      7  C   UNL     1       8.469  -7.536  -3.553  0.00  0.00    +0.066 C 
ATOM      8  H   UNL     1       9.014  -7.251  -0.991  0.00  0.00    -0.081 HD
BRANCH   5   9
ATOM      9  C   UNL     1       8.713  -9.082  -0.141  0.00  0.00    -0.043 C 
BRANCH   9  10
ATOM     10  C   UNL     1      10.188  -9.388  -0.123  0.00  0.00    -0.064 A 
ATOM     11  C   UNL     1      10.697 -10.385  -0.935  0.00  0.00    +0.002 A 
ATOM     12  C   UNL     1      12.050 -10.666  -0.918  0.00  0.00    +0.000 A 
ATOM     13  C   UNL     1      12.895  -9.950  -0.091  0.00  0.00    +0.000 A 
ATOM     14  C   UNL     1      12.386  -8.952   0.719  0.00  0.00    +0.000 A 
ATOM     15  C   UNL     1      11.034  -8.668   0.700  0.00  0.00    +0.002 A 
ENDBRANCH   9  10
ENDBRANCH   5   9
ENDBRANCH   1   2
BRANCH   1  16
ATOM     16  C   UNL     1       7.112  -6.700  -5.874  0.00  0.00    +0.008 A 
ATOM     17  C   UNL     1       7.694  -6.079  -6.929  0.00  0.00    +0.013 A 
ATOM     18  C   UNL     1       7.937  -6.803  -8.082  0.00  0.00    +0.008 A 
ATOM     19  C   UNL     1       7.586  -8.111  -8.123  0.00  0.00    +0.045 A 
ATOM     20  S   UNL     1       6.895  -8.359  -6.495  0.00  0.00    -0.100 S 
ENDBRANCH   1  16
BRANCH   1  21
ATOM     21  C   UNL     1       5.252  -5.817  -4.492  0.00  0.00    +0.095 C 
ATOM     22  C   UNL     1       4.924  -4.799  -5.586  0.00  0.00    +0.027 C 
BRANCH  21  23
ATOM     23  N   UNL     1       4.485  -7.044  -4.720  0.00  0.00    -0.185 NA
ATOM     24  H   UNL     1       4.825  -7.723  -5.324  0.00  0.00    +0.148 HD
BRANCH  23  25
ATOM     25  S   UNL     1       3.038  -7.272  -3.947  0.00  0.00    +0.059 S 
ATOM     26  O   UNL     1       3.261  -6.983  -2.574  0.00  0.00    -0.153 OA
ATOM     27  O   UNL     1       2.534  -8.525  -4.390  0.00  0.00    -0.153 OA
BRANCH  25  31
ATOM     28  C   UNL     1       0.185  -4.111  -5.489  0.00  0.00    +0.121 A 
ATOM     29  C   UNL     1       0.272  -5.340  -6.128  0.00  0.00    +0.047 A 
ATOM     30  C   UNL     1       1.144  -6.302  -5.656  0.00  0.00    +0.032 A 
ATOM     31  C   UNL     1       1.928  -6.042  -4.547  0.00  0.00    +0.105 A 
ATOM     32  C   UNL     1       1.842  -4.819  -3.908  0.00  0.00    +0.032 A 
ATOM     33  C   UNL     1       0.977  -3.851  -4.380  0.00  0.00    +0.047 A 
BRANCH  28  34
ATOM     34  O   UNL     1      -0.672  -3.163  -5.951  0.00  0.00    -0.492 OA
BRANCH  34  35
ATOM     35  C   UNL     1      -1.456  -3.500  -7.097  0.00  0.00    +0.229 C 
BRANCH  35  37
ATOM     36  C   UNL     1      -3.193  -2.679  -8.694  0.00  0.00    +0.007 C 
ATOM     37  C   UNL     1      -2.353  -2.317  -7.468  0.00  0.00    +0.038 C 
ENDBRANCH  35  37
ENDBRANCH  34  35
ENDBRANCH  28  34
ENDBRANCH  25  31
ENDBRANCH  23  25
ENDBRANCH  21  23
ENDBRANCH   1  21
TORSDOF 11
