REMARK  Name = ZINC41223107
REMARK  10 active torsions:
REMARK  status: ('A' for Active; 'I' for Inactive)
REMARK    1  A    between atoms: C_1  and  C_2
REMARK    2  A    between atoms: C_2  and  C_4
REMARK    3  A    between atoms: C_2  and  N_13
REMARK    4  A    between atoms: C_4  and  C_5
REMARK    5  A    between atoms: C_5  and  C_6
REMARK    6  A    between atoms: C_9  and  O_12
REMARK    7  A    between atoms: C_14  and  C_16
REMARK    8  A    between atoms: N_18  and  C_19
REMARK    9  A    between atoms: C_24  and  C_25
REMARK   10  A    between atoms: C_25  and  N_26
REMARK                            x       y       z     vdW  Elec       q    Type
REMARK                         _______ _______ _______ _____ _____    ______ ____
ROOT
ATOM      1  C   UNL     1      -3.454  -1.155  -1.133  0.00  0.00    +0.303 C 
ATOM      2  O   UNL     1      -3.981  -1.460  -0.083  0.00  0.00    -0.265 OA
ATOM      3  N   UNL     1      -4.130  -1.291  -2.291  0.00  0.00    -0.278 N 
ATOM      4  H   UNL     1      -3.735  -0.986  -3.123  0.00  0.00    +0.155 HD
ENDROOT
BRANCH   3   5
ATOM      5  C   UNL     1      -5.401  -1.872  -2.294  0.00  0.00    +0.035 A 
ATOM      6  C   UNL     1      -6.263  -1.665  -1.224  0.00  0.00    +0.023 A 
ATOM      7  C   UNL     1      -7.519  -2.240  -1.229  0.00  0.00    +0.002 A 
ATOM      8  C   UNL     1      -7.918  -3.022  -2.298  0.00  0.00    +0.000 A 
ATOM      9  C   UNL     1      -7.063  -3.230  -3.365  0.00  0.00    +0.003 A 
ATOM     10  C   UNL     1      -5.808  -2.652  -3.368  0.00  0.00    -0.043 A 
BRANCH  10  11
ATOM     11  C   UNL     1      -4.879  -2.874  -4.534  0.00  0.00    -0.041 C 
BRANCH  11  12
ATOM     12  N   UNL     1      -3.905  -3.918  -4.192  0.00  0.00    +0.382 N 
ATOM     13  C   UNL     1      -4.583  -5.235  -4.083  0.00  0.00    -0.078 C 
ATOM     14  C   UNL     1      -3.428  -6.247  -4.291  0.00  0.00    -0.020 C 
ATOM     15  C   UNL     1      -2.555  -5.560  -5.366  0.00  0.00    -0.020 C 
ATOM     16  C   UNL     1      -2.912  -4.064  -5.278  0.00  0.00    -0.078 C 
ATOM     17  H   UNL     1      -3.441  -3.692  -3.325  0.00  0.00    -0.081 HD
ENDBRANCH  11  12
ENDBRANCH  10  11
ENDBRANCH   3   5
BRANCH   1  19
ATOM     18  N   UNL     1      -1.381  -0.491   0.015  0.00  0.00    -0.305 N 
ATOM     19  C   UNL     1      -2.057  -0.628  -1.142  0.00  0.00    +0.300 C 
ATOM     20  O   UNL     1      -1.530  -0.322  -2.192  0.00  0.00    -0.265 OA
ATOM     21  H   UNL     1      -1.801  -0.736   0.855  0.00  0.00    +0.149 HD
BRANCH  18  23
ATOM     22  C   UNL     1      -0.042   1.555   0.015  0.00  0.00    +0.028 C 
ATOM     23  C   UNL     1      -0.010   0.026   0.006  0.00  0.00    +0.071 C 
BRANCH  23  24
ATOM     24  C   UNL     1       0.733  -0.476   1.247  0.00  0.00    +0.026 C 
BRANCH  24  25
ATOM     25  C   UNL     1       0.874  -1.998   1.176  0.00  0.00    +0.037 C 
BRANCH  25  26
ATOM     26  C   UNL     1       1.605  -2.492   2.398  0.00  0.00    -0.047 A 
ATOM     27  C   UNL     1       2.984  -2.589   2.384  0.00  0.00    +0.007 A 
ATOM     28  C   UNL     1       3.657  -3.042   3.502  0.00  0.00    +0.045 A 
ATOM     29  C   UNL     1       2.947  -3.399   4.640  0.00  0.00    +0.117 A 
ATOM     30  C   UNL     1       1.563  -3.300   4.651  0.00  0.00    +0.045 A 
ATOM     31  C   UNL     1       0.896  -2.841   3.532  0.00  0.00    +0.007 A 
BRANCH  29  32
ATOM     32  O   UNL     1       3.607  -3.845   5.741  0.00  0.00    -0.507 OA
ATOM     33  H   UNL     1       3.859  -3.146   6.359  0.00  0.00    +0.292 HD
ENDBRANCH  29  32
ENDBRANCH  25  26
ENDBRANCH  24  25
ENDBRANCH  23  24
ENDBRANCH  18  23
ENDBRANCH   1  19
TORSDOF 9
