REMARK  Name = ZINC17021453
REMARK  6 active torsions:
REMARK  status: ('A' for Active; 'I' for Inactive)
REMARK    1  A    between atoms: C_1  and  C_2
REMARK    2  A    between atoms: N_11  and  C1*_12
REMARK    3  A    between atoms: C2*_14  and  O2*_24
REMARK    4  A    between atoms: C3*_16  and  O3*_23
REMARK    5  A    between atoms: C4*_18  and  C5*_21
REMARK    6  A    between atoms: C5*_21  and  O5*_22
REMARK                            x       y       z     vdW  Elec       q    Type
REMARK                         _______ _______ _______ _____ _____    ______ ____
ROOT
ATOM      1  C   UNL     1       2.469   5.643   1.042  0.00  0.00    +0.045 C 
ATOM      2  C   UNL     1       2.308   4.145   0.993  0.00  0.00    -0.031 A 
ATOM      3  C   UNL     1       3.071   3.355   1.763  0.00  0.00    +0.051 A 
ATOM      4  S   UNL     1       2.507   1.714   1.353  0.00  0.00    -0.078 S 
ATOM      5  C   UNL     1       1.253   2.142   0.176  0.00  0.00    +0.097 A 
ATOM      6  C   UNL     1       1.308   3.540   0.128  0.00  0.00    +0.049 A 
ATOM      7  C   UNL     1       0.375   4.167  -0.758  0.00  0.00    +0.132 A 
ATOM      8  N   UNL     1      -0.462   3.432  -1.468  0.00  0.00    -0.178 NA
ATOM      9  C   UNL     1      -0.481   2.103  -1.399  0.00  0.00    +0.353 A 
ATOM     10  O   UNL     1      -1.276   1.475  -2.078  0.00  0.00    -0.244 OA
ATOM     11  N   UNL     1       0.370   1.441  -0.585  0.00  0.00    -0.257 N 
ATOM     12  N   UNL     1       0.349   5.537  -0.870  0.00  0.00    -0.342 N 
ATOM     13  H   UNL     1      -0.368   6.019  -1.551  0.00  0.00    +0.144 HD
ATOM     14  H   UNL     1       1.045   6.150  -0.280  0.00  0.00    +0.144 HD
ENDROOT
BRANCH  11  15
ATOM     15  C1* UNL     1       0.339  -0.022  -0.519  0.00  0.00    +0.256 C 
ATOM     16  C2* UNL     1       0.681  -0.630  -1.897  0.00  0.00    +0.195 C 
ATOM     17  C3* UNL     1       2.199  -0.909  -1.817  0.00  0.00    +0.178 C 
ATOM     18  C4* UNL     1       2.594  -0.436  -0.400  0.00  0.00    +0.177 C 
ATOM     19  O4* UNL     1       1.371  -0.507   0.366  0.00  0.00    -0.346 OA
BRANCH  17  20
ATOM     20  O3* UNL     1       2.461  -2.305  -1.973  0.00  0.00    -0.386 OA
ATOM     21  H3* UNL     1       3.495  -2.678  -1.941  0.00  0.00    +0.210 HD
ENDBRANCH  17  20
BRANCH  16  22
ATOM     22  O2* UNL     1       0.398   0.304  -2.941  0.00  0.00    -0.385 OA
ATOM     23  H2* UNL     1       0.586   0.030  -3.990  0.00  0.00    +0.210 HD
ENDBRANCH  16  22
BRANCH  18  24
ATOM     24  C5* UNL     1       3.651  -1.366   0.197  0.00  0.00    +0.190 C 
BRANCH  24  25
ATOM     25  O5* UNL     1       4.086  -0.848   1.455  0.00  0.00    -0.392 OA
ATOM     26  H5* UNL     1       4.850  -1.385   2.037  0.00  0.00    +0.210 HD
ENDBRANCH  24  25
ENDBRANCH  18  24
ENDBRANCH  11  15
TORSDOF 5
