REMARK  Name = ZINC22384405
REMARK  14 active torsions:
REMARK  status: ('A' for Active; 'I' for Inactive)
REMARK    1  A    between atoms: C_1  and  C_2
REMARK    2  A    between atoms: C_5  and  S_8
REMARK    3  A    between atoms: S_8  and  C_9
REMARK    4  A    between atoms: C_9  and  C_10
REMARK    5  A    between atoms: C_10  and  N_11
REMARK    6  A    between atoms: C_12  and  C_14
REMARK    7  A    between atoms: C_14  and  N_15
REMARK    8  A    between atoms: N_15  and  C_16
REMARK    9  A    between atoms: N_15  and  S_23
REMARK   10  A    between atoms: S_23  and  C_26
REMARK   11  A    between atoms: C_29  and  O_34
REMARK   12  A    between atoms: C_30  and  O_32
REMARK   13  A    between atoms: O_32  and  C_33
REMARK   14  A    between atoms: O_34  and  C_35
REMARK                            x       y       z     vdW  Elec       q    Type
REMARK                         _______ _______ _______ _____ _____    ______ ____
ROOT
ATOM      1  N   UNL     1       2.400   1.380  -0.013  0.00  0.00    -0.191 N 
ENDROOT
BRANCH   1   2
ATOM      2  C   UNL     1       1.178   2.060   0.002  0.00  0.00    +0.087 A 
ATOM      3  C   UNL     1       1.154   3.448   0.009  0.00  0.00    +0.027 A 
ATOM      4  C   UNL     1      -0.055   4.117   0.024  0.00  0.00    +0.002 A 
ATOM      5  C   UNL     1      -1.241   3.406   0.031  0.00  0.00    +0.003 A 
ATOM      6  C   UNL     1      -1.222   2.023   0.019  0.00  0.00    +0.040 A 
ATOM      7  C   UNL     1      -0.016   1.347   0.009  0.00  0.00    +0.146 A 
ATOM      8  F   UNL     1       0.002  -0.004   0.002  0.00  0.00    -0.203 F 
ENDBRANCH   1   2
BRANCH   1   9
ATOM      9  S   UNL     1       3.049   0.876  -1.451  0.00  0.00    +0.075 S 
ATOM     10  O   UNL     1       3.917  -0.208  -1.147  0.00  0.00    -0.150 OA
ATOM     11  O   UNL     1       1.967   0.753  -2.364  0.00  0.00    -0.150 OA
BRANCH   9  12
ATOM     12  C   UNL     1       4.067   2.183  -2.050  0.00  0.00    +0.112 A 
ATOM     13  C   UNL     1       3.529   3.154  -2.874  0.00  0.00    +0.032 A 
ATOM     14  C   UNL     1       4.322   4.185  -3.342  0.00  0.00    +0.051 A 
ATOM     15  C   UNL     1       5.662   4.241  -2.994  0.00  0.00    +0.162 A 
ATOM     16  C   UNL     1       6.205   3.261  -2.169  0.00  0.00    +0.163 A 
ATOM     17  C   UNL     1       5.403   2.233  -1.699  0.00  0.00    +0.078 A 
BRANCH  16  18
ATOM     18  O   UNL     1       7.520   3.312  -1.825  0.00  0.00    -0.491 OA
ATOM     19  C   UNL     1       8.008   2.272  -0.974  0.00  0.00    +0.277 C 
ENDBRANCH  16  18
BRANCH  15  20
ATOM     20  O   UNL     1       6.445   5.251  -3.459  0.00  0.00    -0.491 OA
ATOM     21  C   UNL     1       5.820   6.222  -4.301  0.00  0.00    +0.277 C 
ENDBRANCH  15  20
ENDBRANCH   9  12
ENDBRANCH   1   9
BRANCH   1  22
ATOM     22  C   UNL     1       3.106   1.114   1.242  0.00  0.00    +0.227 C 
BRANCH  22  24
ATOM     23  N   UNL     1       3.077  -0.599   3.027  0.00  0.00    -0.313 N 
ATOM     24  C   UNL     1       2.573  -0.154   1.859  0.00  0.00    +0.232 C 
ATOM     25  O   UNL     1       1.691  -0.774   1.304  0.00  0.00    -0.274 OA
ATOM     26  H   UNL     1       3.878  -0.036   3.531  0.00  0.00    +0.149 HD
BRANCH  23  27
ATOM     27  C   UNL     1       2.559  -1.831   3.627  0.00  0.00    +0.115 C 
BRANCH  27  28
ATOM     28  C   UNL     1       3.297  -2.109   4.938  0.00  0.00    +0.093 C 
BRANCH  28  29
ATOM     29  S   UNL     1       2.655  -3.635   5.681  0.00  0.00    -0.124 S 
BRANCH  29  34
ATOM     30  C   UNL     1       5.865  -4.250  10.756  0.00  0.00    +0.044 C 
ATOM     31  C   UNL     1       5.064  -4.097   9.489  0.00  0.00    -0.050 A 
ATOM     32  C   UNL     1       4.101  -5.035   9.163  0.00  0.00    +0.004 A 
ATOM     33  C   UNL     1       3.365  -4.897   8.003  0.00  0.00    +0.015 A 
ATOM     34  C   UNL     1       3.592  -3.814   7.162  0.00  0.00    +0.008 A 
ATOM     35  C   UNL     1       4.564  -2.877   7.490  0.00  0.00    +0.015 A 
ATOM     36  C   UNL     1       5.292  -3.017   8.655  0.00  0.00    +0.004 A 
ENDBRANCH  29  34
ENDBRANCH  28  29
ENDBRANCH  27  28
ENDBRANCH  23  27
ENDBRANCH  22  24
ENDBRANCH   1  22
TORSDOF 11
