REMARK  Name = ZINC08920490
REMARK  16 active torsions:
REMARK  status: ('A' for Active; 'I' for Inactive)
REMARK    1  A    between atoms: C_1  and  C_2
REMARK    2  A    between atoms: C_2  and  N_74
REMARK    3  A    between atoms: C_8  and  N_14
REMARK    4  A    between atoms: C_9  and  C_10
REMARK    5  A    between atoms: N_12  and  C_13
REMARK    6  A    between atoms: C_15  and  C_17
REMARK    7  A    between atoms: C_20  and  S_23
REMARK    8  A    between atoms: S_23  and  N_26
REMARK    9  A    between atoms: N_26  and  C_27
REMARK   10  A    between atoms: N_26  and  C_31
REMARK   11  A    between atoms: C_27  and  C_28
REMARK   12  A    between atoms: C_28  and  C_29
REMARK   13  A    between atoms: C_28  and  C_30
REMARK   14  A    between atoms: C_31  and  C_32
REMARK   15  A    between atoms: C_32  and  C_33
REMARK   16  A    between atoms: C_32  and  C_34
REMARK                            x       y       z     vdW  Elec       q    Type
REMARK                         _______ _______ _______ _____ _____    ______ ____
ROOT
ATOM      1  N   UNL     1       0.005   0.526  -2.825  0.00  0.00    -0.275 N 
ATOM      2  C   UNL     1      -1.088   1.255  -2.525  0.00  0.00    +0.249 C 
ATOM      3  O   UNL     1      -1.081   2.459  -2.694  0.00  0.00    -0.270 OA
ATOM      4  H   UNL     1      -0.001  -0.434  -2.690  0.00  0.00    +0.156 HD
ENDROOT
BRANCH   1  10
ATOM      5  C   UNL     1       5.370   2.112  -5.519  0.00  0.00    -0.074 C 
ATOM      6  C   UNL     1       4.758   0.999  -4.663  0.00  0.00    +0.018 C 
ATOM      7  C   UNL     1       3.377   1.455  -4.209  0.00  0.00    -0.027 A 
ATOM      8  C   UNL     1       3.042   2.764  -4.265  0.00  0.00    -0.021 A 
ATOM      9  S   UNL     1       1.380   2.831  -3.663  0.00  0.00    -0.079 S 
ATOM     10  C   UNL     1       1.135   1.148  -3.331  0.00  0.00    +0.085 A 
ATOM     11  C   UNL     1       2.344   0.572  -3.701  0.00  0.00    +0.068 A 
ATOM     12  C   UNL     1       3.912   3.884  -4.743  0.00  0.00    -0.035 C 
ATOM     13  N   UNL     1       5.310   3.389  -4.779  0.00  0.00    +0.383 N 
ATOM     14  H   UNL     1       5.634   3.233  -3.817  0.00  0.00    -0.081 HD
BRANCH  11  15
ATOM     15  C   UNL     1       2.567  -0.872  -3.584  0.00  0.00    +0.246 C 
ATOM     16  O   UNL     1       2.295  -1.608  -4.514  0.00  0.00    -0.270 OA
ATOM     17  N   UNL     1       3.074  -1.385  -2.445  0.00  0.00    -0.314 N 
ATOM     18  C   UNL     1       3.297  -2.828  -2.328  0.00  0.00    +0.128 C 
ATOM     19  H   UNL     1       3.291  -0.799  -1.703  0.00  0.00    +0.149 HD
ENDBRANCH  11  15
BRANCH  13  21
ATOM     20  C   UNL     1       5.905   5.768  -4.819  0.00  0.00    -0.017 C 
ATOM     21  C   UNL     1       6.185   4.391  -5.425  0.00  0.00    -0.082 C 
ENDBRANCH  13  21
ENDBRANCH   1  10
BRANCH   2  22
ATOM     22  C   UNL     1      -2.296   0.591  -1.991  0.00  0.00    +0.037 A 
ATOM     23  C   UNL     1      -2.309  -0.792  -1.801  0.00  0.00    +0.015 A 
ATOM     24  C   UNL     1      -3.437  -1.405  -1.296  0.00  0.00    +0.029 A 
ATOM     25  C   UNL     1      -4.558  -0.653  -0.990  0.00  0.00    +0.106 A 
ATOM     26  C   UNL     1      -4.553   0.717  -1.181  0.00  0.00    +0.029 A 
ATOM     27  C   UNL     1      -3.429   1.343  -1.679  0.00  0.00    +0.015 A 
BRANCH  25  28
ATOM     28  S   UNL     1      -5.997  -1.445  -0.352  0.00  0.00    +0.061 S 
ATOM     29  O   UNL     1      -5.562  -2.657   0.247  0.00  0.00    -0.153 OA
ATOM     30  O   UNL     1      -6.720  -0.455   0.367  0.00  0.00    -0.153 OA
BRANCH  28  31
ATOM     31  N   UNL     1      -6.937  -1.869  -1.648  0.00  0.00    -0.176 NA
BRANCH  31  32
ATOM     32  C   UNL     1      -6.763  -3.178  -2.283  0.00  0.00    +0.112 C 
BRANCH  32  33
ATOM     33  C   UNL     1      -7.920  -4.096  -1.884  0.00  0.00    -0.001 C 
ATOM     34  C   UNL     1      -7.806  -5.419  -2.643  0.00  0.00    +0.008 C 
ATOM     35  C   UNL     1      -7.863  -4.364  -0.379  0.00  0.00    +0.008 C 
ENDBRANCH  32  33
ENDBRANCH  31  32
BRANCH  31  36
ATOM     36  C   UNL     1      -7.943  -0.934  -2.161  0.00  0.00    +0.112 C 
BRANCH  36  37
ATOM     37  C   UNL     1      -7.332  -0.092  -3.282  0.00  0.00    -0.001 C 
ATOM     38  C   UNL     1      -6.925  -1.004  -4.441  0.00  0.00    +0.008 C 
ATOM     39  C   UNL     1      -8.361   0.928  -3.773  0.00  0.00    +0.008 C 
ENDBRANCH  36  37
ENDBRANCH  31  36
ENDBRANCH  28  31
ENDBRANCH  25  28
ENDBRANCH   2  22
TORSDOF 10
