REMARK  Name = ZINC02645494
REMARK  9 active torsions:
REMARK  status: ('A' for Active; 'I' for Inactive)
REMARK    1  A    between atoms: C_1  and  C_2
REMARK    2  A    between atoms: C_6  and  C_9
REMARK    3  A    between atoms: C_10  and  N_11
REMARK    4  A    between atoms: C_10  and  N_60
REMARK    5  A    between atoms: N_14  and  C_25
REMARK    6  A    between atoms: C_15  and  C_17
REMARK    7  A    between atoms: C_30  and  C_31
REMARK    8  A    between atoms: C_31  and  C_32
REMARK    9  A    between atoms: C_31  and  C_33
REMARK                            x       y       z     vdW  Elec       q    Type
REMARK                         _______ _______ _______ _____ _____    ______ ____
ROOT
ATOM      1  N   UNL     1      -1.121   2.489   0.020  0.00  0.00    -0.257 N 
ATOM      2  C   UNL     1      -0.021   1.708   0.011  0.00  0.00    +0.181 A 
ATOM      3  S   UNL     1       0.002  -0.004   0.002  0.00  0.00    -0.011 S 
ATOM      4  N   UNL     1       1.056   2.518   0.005  0.00  0.00    -0.271 N 
ATOM      5  C   UNL     1       0.613   3.828   0.017  0.00  0.00    +0.169 A 
ATOM      6  N   UNL     1      -0.691   3.823   0.029  0.00  0.00    -0.152 NA
ENDROOT
BRANCH   5   7
ATOM      7  C   UNL     1       1.473   5.031   0.015  0.00  0.00    +0.038 A 
ATOM      8  C   UNL     1       2.862   4.899   0.006  0.00  0.00    +0.014 A 
ATOM      9  C   UNL     1       3.659   6.025  -0.001  0.00  0.00    +0.021 A 
ATOM     10  C   UNL     1       3.084   7.285   0.011  0.00  0.00    +0.042 A 
ATOM     11  C   UNL     1       1.706   7.423   0.025  0.00  0.00    +0.040 A 
ATOM     12  C   UNL     1       0.898   6.303   0.027  0.00  0.00    +0.053 A 
ATOM     13 CL   UNL     1      -0.829   6.478   0.045  0.00  0.00    -0.083 Cl
ATOM     14 CL   UNL     1       4.094   8.697   0.009  0.00  0.00    -0.083 Cl
ENDBRANCH   5   7
BRANCH   4  15
ATOM     15  C   UNL     1       2.394   2.104  -0.010  0.00  0.00    +0.054 A 
ATOM     16  C   UNL     1       3.046   1.900  -1.219  0.00  0.00    +0.026 A 
ATOM     17  C   UNL     1       4.367   1.498  -1.231  0.00  0.00    +0.002 A 
ATOM     18  C   UNL     1       5.038   1.288  -0.040  0.00  0.00    +0.000 A 
ATOM     19  C   UNL     1       4.391   1.485   1.165  0.00  0.00    +0.006 A 
ATOM     20  C   UNL     1       3.071   1.893   1.184  0.00  0.00    -0.021 A 
BRANCH  20  21
ATOM     21  C   UNL     1       2.366   2.108   2.498  0.00  0.00    +0.015 C 
ATOM     22  C   UNL     1       2.360   0.801   3.294  0.00  0.00    +0.012 C 
ATOM     23  C   UNL     1       3.098   3.188   3.298  0.00  0.00    +0.012 C 
ENDBRANCH  20  21
ENDBRANCH   4  15
BRANCH   1  24
ATOM     24  C   UNL     1      -2.511   2.027   0.023  0.00  0.00    +0.072 C 
BRANCH  24  32
ATOM     25  C   UNL     1      -4.600   2.858   3.631  0.00  0.00    +0.036 C 
ATOM     26  C   UNL     1      -4.866   1.529   2.920  0.00  0.00    +0.099 C 
ATOM     27  C   UNL     1      -4.421   1.633   1.459  0.00  0.00    -0.044 C 
ATOM     28  C   UNL     1      -2.246   0.775   2.080  0.00  0.00    -0.044 C 
ATOM     29  C   UNL     1      -2.712   0.680   3.535  0.00  0.00    +0.099 C 
ATOM     30  O   UNL     1      -4.129   0.487   3.564  0.00  0.00    -0.378 OA
ATOM     31  C   UNL     1      -2.020  -0.502   4.217  0.00  0.00    +0.036 C 
ATOM     32  N   UNL     1      -2.966   1.887   1.423  0.00  0.00    +0.396 N 
ATOM     33  H   UNL     1      -2.766   2.759   1.928  0.00  0.00    -0.079 HD
ENDBRANCH  24  32
ENDBRANCH   1  24
TORSDOF 5
