REMARK  Name = ZINC63654945
REMARK  7 active torsions:
REMARK  status: ('A' for Active; 'I' for Inactive)
REMARK    1  A    between atoms: C_6  and  C_28
REMARK    2  A    between atoms: C_8  and  S_11
REMARK    3  A    between atoms: S_11  and  C_12
REMARK    4  A    between atoms: C_12  and  C_13
REMARK    5  A    between atoms: C_13  and  N_14
REMARK    6  A    between atoms: C_15  and  C_17
REMARK    7  A    between atoms: C_18  and  C_19
REMARK                            x       y       z     vdW  Elec       q    Type
REMARK                         _______ _______ _______ _____ _____    ______ ____
ROOT
ATOM      1  S   UNL     1       0.509  -3.324  -0.022  0.00  0.00    -0.125 S 
ENDROOT
BRANCH   1   8
ATOM      2  C   UNL     1      -0.011   1.354   0.046  0.00  0.00    +0.001 A 
ATOM      3  C   UNL     1       1.169   2.099   0.057  0.00  0.00    +0.002 A 
ATOM      4  C   UNL     1       2.389   1.507   0.048  0.00  0.00    +0.026 A 
ATOM      5  C   UNL     1       2.487   0.093   0.028  0.00  0.00    +0.044 A 
ATOM      6  N   UNL     1       3.535  -0.710   0.016  0.00  0.00    -0.373 N 
ATOM      7  C   UNL     1       3.075  -2.102  -0.004  0.00  0.00    +0.147 C 
ATOM      8  C   UNL     1       1.563  -2.042  -0.003  0.00  0.00    +0.021 C 
ATOM      9  C   UNL     1       1.241  -0.689   0.017  0.00  0.00    +0.010 A 
ATOM     10  C   UNL     1       0.006  -0.004   0.027  0.00  0.00    +0.011 A 
ATOM     11  H   UNL     1       4.462  -0.425   0.020  0.00  0.00    +0.161 HD
BRANCH   7  12
ATOM     12  C   UNL     1       3.568  -2.830   1.220  0.00  0.00    -0.020 A 
ATOM     13  C   UNL     1       3.596  -2.185   2.443  0.00  0.00    +0.007 A 
ATOM     14  C   UNL     1       4.048  -2.851   3.566  0.00  0.00    +0.020 A 
ATOM     15  C   UNL     1       4.472  -4.164   3.467  0.00  0.00    +0.041 A 
ATOM     16  C   UNL     1       4.444  -4.809   2.243  0.00  0.00    +0.020 A 
ATOM     17  C   UNL     1       3.986  -4.144   1.122  0.00  0.00    +0.007 A 
ATOM     18 CL   UNL     1       5.040  -5.002   4.877  0.00  0.00    -0.084 Cl
ENDBRANCH   7  12
ENDBRANCH   1   8
BRANCH   1  19
ATOM     19  C   UNL     1      -1.123  -2.552   0.152  0.00  0.00    +0.093 C 
BRANCH  19  20
ATOM     20  C   UNL     1      -2.190  -3.640   0.294  0.00  0.00    +0.115 C 
BRANCH  20  21
ATOM     21  N   UNL     1      -3.508  -3.016   0.434  0.00  0.00    -0.311 N 
ATOM     22  C   UNL     1      -4.606  -3.785   0.574  0.00  0.00    +0.237 C 
ATOM     23  O   UNL     1      -4.502  -4.998   0.584  0.00  0.00    -0.271 OA
ATOM     24  H   UNL     1      -3.591  -2.050   0.427  0.00  0.00    +0.149 HD
BRANCH  22  25
ATOM     25  C   UNL     1      -5.922  -3.163   0.715  0.00  0.00    +0.068 C 
ATOM     26  C   UNL     1      -7.021  -3.933   0.855  0.00  0.00    +0.013 C 
BRANCH  26  27
ATOM     27  C   UNL     1      -8.344  -3.308   0.996  0.00  0.00    -0.021 A 
ATOM     28  C   UNL     1      -8.467  -1.914   0.979  0.00  0.00    +0.012 A 
ATOM     29  C   UNL     1      -9.707  -1.331   1.111  0.00  0.00    +0.050 A 
ATOM     30  C   UNL     1     -10.840  -2.121   1.260  0.00  0.00    +0.166 A 
ATOM     31  C   UNL     1     -10.725  -3.512   1.277  0.00  0.00    +0.167 A 
ATOM     32  C   UNL     1      -9.486  -4.104   1.141  0.00  0.00    +0.057 A 
ATOM     33  O   UNL     1     -11.971  -4.049   1.434  0.00  0.00    -0.453 OA
ATOM     34  C   UNL     1     -12.794  -2.973   1.922  0.00  0.00    +0.466 C 
ATOM     35  O   UNL     1     -12.155  -1.791   1.405  0.00  0.00    -0.453 OA
ENDBRANCH  26  27
ENDBRANCH  22  25
ENDBRANCH  20  21
ENDBRANCH  19  20
ENDBRANCH   1  19
TORSDOF 7
