REMARK  Name = ZINC09082912
REMARK  9 active torsions:
REMARK  status: ('A' for Active; 'I' for Inactive)
REMARK    1  A    between atoms: C_1  and  C_2
REMARK    2  A    between atoms: N_4  and  C_5
REMARK    3  A    between atoms: C_8  and  N_11
REMARK    4  A    between atoms: C_12  and  C_14
REMARK    5  A    between atoms: C_14  and  S_15
REMARK    6  A    between atoms: S_15  and  C_16
REMARK    7  A    between atoms: C_19  and  S_25
REMARK    8  A    between atoms: C_21  and  N_22
REMARK    9  A    between atoms: S_25  and  C_27
REMARK                            x       y       z     vdW  Elec       q    Type
REMARK                         _______ _______ _______ _____ _____    ______ ____
ROOT
ATOM      1  C   UNL     1      -5.793   5.812   0.888  0.00  0.00    +0.170 C 
ENDROOT
BRANCH   1   3
ATOM      2  N   UNL     1      -4.420   3.760   0.737  0.00  0.00    -0.285 N 
ATOM      3  C   UNL     1      -4.465   5.106   0.787  0.00  0.00    +0.227 C 
ATOM      4  O   UNL     1      -3.438   5.750   0.750  0.00  0.00    -0.275 OA
ATOM      5  H   UNL     1      -5.235   3.244   0.834  0.00  0.00    +0.155 HD
BRANCH   2   9
ATOM      6  C   UNL     1      -0.775   1.817   0.166  0.00  0.00    +0.033 A 
ATOM      7  C   UNL     1      -0.829   2.986   0.915  0.00  0.00    +0.025 A 
ATOM      8  C   UNL     1      -2.035   3.632   1.099  0.00  0.00    +0.025 A 
ATOM      9  C   UNL     1      -3.196   3.107   0.545  0.00  0.00    +0.034 A 
ATOM     10  C   UNL     1      -3.143   1.936  -0.198  0.00  0.00    +0.025 A 
ATOM     11  C   UNL     1      -1.936   1.293  -0.387  0.00  0.00    +0.025 A 
BRANCH   6  15
ATOM     12  C   UNL     1       2.055  -0.083  -1.434  0.00  0.00    +0.109 C 
ATOM     13  C   UNL     1       0.703   0.535  -1.190  0.00  0.00    +0.214 C 
ATOM     14  O   UNL     1      -0.158   0.467  -2.042  0.00  0.00    -0.276 OA
ATOM     15  N   UNL     1       0.449   1.164  -0.025  0.00  0.00    -0.286 N 
ATOM     16  H   UNL     1       1.113   1.161   0.682  0.00  0.00    +0.155 HD
ENDBRANCH   6  15
ENDBRANCH   2   9
ENDBRANCH   1   3
BRANCH   1  17
ATOM     17  S   UNL     1      -5.522   7.605   0.935  0.00  0.00    -0.114 S 
BRANCH  17  18
ATOM     18  C   UNL     1      -7.146   8.279   1.053  0.00  0.00    +0.039 A 
ATOM     19  C   UNL     1      -8.250   7.434   1.087  0.00  0.00    +0.018 A 
ATOM     20  C   UNL     1      -9.521   7.965   1.179  0.00  0.00    +0.018 A 
ATOM     21  C   UNL     1      -9.697   9.336   1.237  0.00  0.00    +0.050 A 
ATOM     22  C   UNL     1      -8.602  10.179   1.203  0.00  0.00    +0.051 A 
ATOM     23  C   UNL     1      -7.327   9.655   1.117  0.00  0.00    +0.141 A 
BRANCH  23  24
ATOM     24  N   UNL     1      -6.155  10.558   1.087  0.00  0.00    +0.058 N 
ATOM     25  O   UNL     1      -6.314  11.764   1.144  0.00  0.00    -0.126 OA
ATOM     26  O   UNL     1      -5.031  10.095   1.006  0.00  0.00    -0.126 OA
ENDBRANCH  23  24
BRANCH  21  27
ATOM     27  S   UNL     1     -11.321  10.009   1.355  0.00  0.00    +0.157 S 
ATOM     28  O   UNL     1     -11.190  11.318   0.817  0.00  0.00    -0.244 OA
BRANCH  27  29
ATOM     29  C   UNL     1     -11.624  10.116   3.140  0.00  0.00    +0.477 C 
ATOM     30  F   UNL     1     -10.664  10.948   3.727  0.00  0.00    -0.158 F 
ATOM     31  F   UNL     1     -12.900  10.644   3.366  0.00  0.00    -0.158 F 
ATOM     32  F   UNL     1     -11.541   8.839   3.704  0.00  0.00    -0.158 F 
ENDBRANCH  27  29
ENDBRANCH  21  27
ENDBRANCH  17  18
ENDBRANCH   1  17
TORSDOF 8
