REMARK  Name = ZINC36490867
REMARK  14 active torsions:
REMARK  status: ('A' for Active; 'I' for Inactive)
REMARK    1  A    between atoms: C_1  and  C_2
REMARK    2  A    between atoms: C_2  and  C_3
REMARK    3  A    between atoms: C_2  and  C_4
REMARK    4  A    between atoms: C_2  and  C_5
REMARK    5  A    between atoms: C_5  and  C_6
REMARK    6  A    between atoms: C_6  and  C_7
REMARK    7  A    between atoms: C_6  and  C_8
REMARK    8  A    between atoms: C_6  and  N_9
REMARK    9  A    between atoms: C_10  and  C_12
REMARK   10  A    between atoms: C_12  and  C_14
REMARK   11  A    between atoms: C_12  and  N_23
REMARK   12  A    between atoms: C_17  and  N_20
REMARK   13  A    between atoms: N_23  and  C_24
REMARK   14  A    between atoms: C_30  and  C_32
REMARK                            x       y       z     vdW  Elec       q    Type
REMARK                         _______ _______ _______ _____ _____    ______ ____
ROOT
ATOM      1  C   UNL     1       5.398  -0.548  -4.338  0.00  0.00    +0.192 C 
ENDROOT
BRANCH   1   2
ATOM      2  C   UNL     1       5.412  -2.027  -4.625  0.00  0.00    -0.018 A 
ATOM      3  C   UNL     1       5.631  -2.479  -5.913  0.00  0.00    +0.008 A 
ATOM      4  C   UNL     1       5.643  -3.836  -6.176  0.00  0.00    +0.033 A 
ATOM      5  C   UNL     1       5.437  -4.741  -5.152  0.00  0.00    +0.126 A 
ATOM      6  C   UNL     1       5.218  -4.289  -3.864  0.00  0.00    +0.033 A 
ATOM      7  C   UNL     1       5.210  -2.932  -3.600  0.00  0.00    +0.008 A 
BRANCH   5   8
ATOM      8  N   UNL     1       5.449  -6.194  -5.434  0.00  0.00    +0.056 N 
ATOM      9  O   UNL     1       5.639  -6.590  -6.560  0.00  0.00    -0.126 OA
ATOM     10  O   UNL     1       5.268  -6.985  -4.537  0.00  0.00    -0.126 OA
ENDBRANCH   5   8
ENDBRANCH   1   2
BRANCH   1  12
ATOM     11  N   UNL     1       3.262  -0.628  -3.094  0.00  0.00    -0.308 N 
ATOM     12  C   UNL     1       4.564  -0.281  -3.112  0.00  0.00    +0.239 C 
ATOM     13  O   UNL     1       5.065   0.245  -2.140  0.00  0.00    -0.273 OA
ATOM     14  H   UNL     1       2.861  -1.049  -3.871  0.00  0.00    +0.149 HD
BRANCH  11  15
ATOM     15  C   UNL     1       2.451  -0.369  -1.902  0.00  0.00    +0.030 C 
ATOM     16  C   UNL     1       2.564   1.107  -1.518  0.00  0.00    +0.031 C 
ATOM     17  C   UNL     1       2.953  -1.236  -0.745  0.00  0.00    +0.031 C 
BRANCH  15  18
ATOM     18  C   UNL     1       0.989  -0.709  -2.196  0.00  0.00    +0.031 C 
BRANCH  18  20
ATOM     19  C   UNL     1       1.085  -1.132  -4.656  0.00  0.00    +0.010 C 
ATOM     20  C   UNL     1       0.605  -0.164  -3.573  0.00  0.00    -0.036 C 
ATOM     21  C   UNL     1       1.263   1.202  -3.782  0.00  0.00    +0.010 C 
ATOM     22  C   UNL     1      -0.915  -0.016  -3.658  0.00  0.00    +0.010 C 
ENDBRANCH  18  20
ENDBRANCH  15  18
ENDBRANCH  11  15
ENDBRANCH   1  12
BRANCH   1  23
ATOM     23  N   UNL     1       6.768  -0.083  -4.108  0.00  0.00    -0.281 N 
ATOM     24  C   UNL     1       7.256   0.954  -4.817  0.00  0.00    +0.237 C 
ATOM     25  O   UNL     1       8.418   1.280  -4.693  0.00  0.00    -0.274 OA
BRANCH  24  26
ATOM     26  C   UNL     1       6.359   1.707  -5.766  0.00  0.00    +0.159 C 
ATOM     27  C   UNL     1       6.348   1.021  -7.150  0.00  0.00    +0.041 C 
ATOM     28  C   UNL     1       7.457   1.799  -7.896  0.00  0.00    +0.098 C 
ATOM     29  C   UNL     1       7.514   3.135  -7.188  0.00  0.00    +0.214 C 
ATOM     30  O   UNL     1       8.047   4.131  -7.627  0.00  0.00    -0.276 OA
ATOM     31  N   UNL     1       6.886   3.057  -6.000  0.00  0.00    -0.304 N 
ATOM     32  H   UNL     1       6.793   3.796  -5.378  0.00  0.00    +0.149 HD
ENDBRANCH  24  26
BRANCH  23  33
ATOM     33  C   UNL     1       7.607  -0.744  -3.105  0.00  0.00    +0.077 C 
ATOM     34  C   UNL     1       8.022   0.271  -2.038  0.00  0.00    +0.022 C 
ATOM     35  C   UNL     1       8.899  -0.420  -0.991  0.00  0.00    +0.002 C 
ATOM     36  C   UNL     1      10.148  -0.989  -1.667  0.00  0.00    +0.000 C 
ATOM     37  C   UNL     1       9.733  -2.004  -2.735  0.00  0.00    +0.002 C 
ATOM     38  C   UNL     1       8.857  -1.313  -3.781  0.00  0.00    +0.022 C 
ENDBRANCH  23  33
ENDBRANCH   1  23
TORSDOF 9
