REMARK  Name = ZINC38995145
REMARK  6 active torsions:
REMARK  status: ('A' for Active; 'I' for Inactive)
REMARK    1  A    between atoms: C_6  and  C_7
REMARK    2  A    between atoms: C_7  and  S_8
REMARK    3  A    between atoms: S_8  and  C_9
REMARK    4  A    between atoms: C_13  and  C_17
REMARK    5  A    between atoms: N_15  and  N_16
REMARK    6  A    between atoms: C_20  and  C_23
REMARK                            x       y       z     vdW  Elec       q    Type
REMARK                         _______ _______ _______ _____ _____    ______ ____
ROOT
ATOM      1  C   UNL     1      -3.378  -2.000  -1.514  0.00  0.00    +0.214 C 
ATOM      2  N   UNL     1      -3.142  -3.239  -0.738  0.00  0.00    -0.228 NA
ATOM      3  N   UNL     1      -4.350  -3.391   0.089  0.00  0.00    -0.234 NA
ATOM      4  C   UNL     1      -4.676  -1.991   0.468  0.00  0.00    +0.185 C 
ATOM      5  N   UNL     1      -4.357  -1.202  -0.746  0.00  0.00    -0.197 NA
ATOM      6  H   UNL     1      -3.021  -4.031  -1.350  0.00  0.00    +0.143 HD
ATOM      7  H   UNL     1      -5.101  -3.807  -0.442  0.00  0.00    +0.143 HD
ENDROOT
BRANCH   4   8
ATOM      8  C   UNL     1      -6.160  -1.863   0.817  0.00  0.00    +0.187 C 
ATOM      9  C   UNL     1      -6.495  -2.692   2.045  0.00  0.00    +0.034 C 
ATOM     10  C   UNL     1      -7.396  -3.586   1.595  0.00  0.00    +0.091 C 
ATOM     11  N   UNL     1      -7.634  -3.394   0.272  0.00  0.00    -0.154 NA
ATOM     12  N   UNL     1      -6.996  -2.464  -0.235  0.00  0.00    -0.176 NA
BRANCH  10  13
ATOM     13  C   UNL     1      -8.037  -4.633   2.428  0.00  0.00    +0.002 A 
ATOM     14  C   UNL     1      -7.723  -4.739   3.782  0.00  0.00    +0.013 A 
ATOM     15  C   UNL     1      -8.323  -5.714   4.553  0.00  0.00    +0.039 A 
ATOM     16  C   UNL     1      -9.235  -6.588   3.982  0.00  0.00    +0.123 A 
ATOM     17  C   UNL     1      -9.549  -6.486   2.637  0.00  0.00    +0.039 A 
ATOM     18  C   UNL     1      -8.959  -5.510   1.860  0.00  0.00    +0.013 A 
ATOM     19  F   UNL     1      -9.819  -7.541   4.740  0.00  0.00    -0.205 F 
ENDBRANCH  10  13
ENDBRANCH   4   8
BRANCH   5  20
ATOM     20  N   UNL     1      -5.553  -0.947  -1.532  0.00  0.00    -0.264 NA
ATOM     21  H   UNL     1      -5.330  -0.440  -2.375  0.00  0.00    +0.137 HD
ATOM     22  H   UNL     1      -6.036  -1.807  -1.744  0.00  0.00    +0.137 HD
ENDBRANCH   5  20
BRANCH   1  23
ATOM     23  S   UNL     1      -1.829  -1.075  -1.697  0.00  0.00    -0.119 S 
BRANCH  23  24
ATOM     24  C   UNL     1      -1.293  -0.775   0.010  0.00  0.00    +0.107 C 
BRANCH  24  30
ATOM     25  C   UNL     1      -0.017   1.378   0.010  0.00  0.00    +0.005 A 
ATOM     26  C   UNL     1       1.171   2.086   0.002  0.00  0.00    +0.015 A 
ATOM     27  C   UNL     1       2.378   1.411  -0.013  0.00  0.00    +0.018 A 
ATOM     28  C   UNL     1       2.396   0.027  -0.021  0.00  0.00    +0.015 A 
ATOM     29  C   UNL     1       1.208  -0.679  -0.013  0.00  0.00    +0.005 A 
ATOM     30  C   UNL     1       0.002  -0.004   0.002  0.00  0.00    -0.037 A 
ATOM     31 BR   UNL     1       4.003   2.378  -0.024  0.00  0.00    -0.050 Br
ENDBRANCH  24  30
ENDBRANCH  23  24
ENDBRANCH   1  23
TORSDOF 6
