REMARK  Name = ZINC39024500
REMARK  9 active torsions:
REMARK  status: ('A' for Active; 'I' for Inactive)
REMARK    1  A    between atoms: C_1  and  O_2
REMARK    2  A    between atoms: O_2  and  C_3
REMARK    3  A    between atoms: C_7  and  C_11
REMARK    4  A    between atoms: C_8  and  O_9
REMARK    5  A    between atoms: O_9  and  C_10
REMARK    6  A    between atoms: C_13  and  C_25
REMARK    7  A    between atoms: N_27  and  C_28
REMARK    8  A    between atoms: C_28  and  C_29
REMARK    9  A    between atoms: C_29  and  C_30
REMARK                            x       y       z     vdW  Elec       q    Type
REMARK                         _______ _______ _______ _____ _____    ______ ____
ROOT
ATOM      1  C   UNL     1       1.341  -4.072  -2.318  0.00  0.00    +0.080 C 
ATOM      2  N   UNL     1       0.894  -4.819  -1.333  0.00  0.00    -0.244 NA
ATOM      3  C   UNL     1       1.036  -6.151  -1.270  0.00  0.00    +0.126 C 
ATOM      4  C   UNL     1       1.928  -6.826  -2.106  0.00  0.00    +0.039 C 
ATOM      5  C   UNL     1       2.492  -6.075  -3.127  0.00  0.00    -0.008 C 
ATOM      6  C   UNL     1       3.594  -6.221  -3.928  0.00  0.00    +0.004 A 
ATOM      7  C   UNL     1       4.433  -7.328  -4.192  0.00  0.00    +0.010 A 
ATOM      8  C   UNL     1       5.495  -7.113  -5.021  0.00  0.00    +0.001 A 
ATOM      9  C   UNL     1       5.777  -5.876  -5.601  0.00  0.00    +0.002 A 
ATOM     10  C   UNL     1       5.009  -4.767  -5.416  0.00  0.00    +0.026 A 
ATOM     11  C   UNL     1       3.865  -4.910  -4.581  0.00  0.00    +0.044 A 
ATOM     12  N   UNL     1       2.930  -4.041  -4.282  0.00  0.00    -0.372 N 
ATOM     13  C   UNL     1       1.903  -4.729  -3.528  0.00  0.00    +0.160 C 
ATOM     14  H   UNL     1       2.925  -3.102  -4.526  0.00  0.00    +0.161 HD
ENDROOT
BRANCH   1  19
ATOM     15  C   UNL     1       2.396  -0.471  -2.078  0.00  0.00    +0.162 A 
ATOM     16  C   UNL     1       1.163   0.160  -2.053  0.00  0.00    +0.049 A 
ATOM     17  C   UNL     1      -0.006  -0.582  -2.115  0.00  0.00    +0.004 A 
ATOM     18  C   UNL     1       0.043  -1.955  -2.201  0.00  0.00    +0.013 A 
ATOM     19  C   UNL     1       1.282  -2.610  -2.227  0.00  0.00    +0.044 A 
ATOM     20  C   UNL     1       2.467  -1.857  -2.170  0.00  0.00    +0.170 A 
BRANCH  15  22
ATOM     21  C   UNL     1       3.391   1.683  -1.924  0.00  0.00    +0.277 C 
ATOM     22  O   UNL     1       3.538   0.265  -2.018  0.00  0.00    -0.491 OA
ENDBRANCH  15  22
BRANCH  20  23
ATOM     23  O   UNL     1       3.673  -2.478  -2.200  0.00  0.00    -0.491 OA
ATOM     24  C   UNL     1       4.237  -2.861  -0.944  0.00  0.00    +0.277 C 
ENDBRANCH  20  23
ENDBRANCH   1  19
BRANCH   3  25
ATOM     25  C   UNL     1       0.232  -6.921  -0.294  0.00  0.00    +0.262 C 
ATOM     26  O   UNL     1       0.352  -8.129  -0.227  0.00  0.00    -0.269 OA
ATOM     27  N   UNL     1      -0.632  -6.283   0.520  0.00  0.00    -0.310 N 
ATOM     28  H   UNL     1      -0.727  -5.319   0.466  0.00  0.00    +0.149 HD
BRANCH  27  29
ATOM     29  C   UNL     1      -1.428  -7.045   1.486  0.00  0.00    +0.109 C 
BRANCH  29  30
ATOM     30  C   UNL     1      -2.320  -6.088   2.279  0.00  0.00    +0.054 C 
BRANCH  30  31
ATOM     31  C   UNL     1      -3.139  -6.872   3.272  0.00  0.00    -0.046 A 
ATOM     32  C   UNL     1      -4.377  -7.367   2.909  0.00  0.00    +0.005 A 
ATOM     33  C   UNL     1      -5.128  -8.086   3.820  0.00  0.00    +0.020 A 
ATOM     34  C   UNL     1      -4.640  -8.310   5.095  0.00  0.00    +0.041 A 
ATOM     35  C   UNL     1      -3.401  -7.814   5.458  0.00  0.00    +0.020 A 
ATOM     36  C   UNL     1      -2.648  -7.100   4.544  0.00  0.00    +0.005 A 
ATOM     37 CL   UNL     1      -5.583  -9.213   6.240  0.00  0.00    -0.084 Cl
ENDBRANCH  30  31
ENDBRANCH  29  30
ENDBRANCH  27  29
ENDBRANCH   3  25
TORSDOF 7
