REMARK  Name = ZINC35876553
REMARK  4 active torsions:
REMARK  status: ('A' for Active; 'I' for Inactive)
REMARK    1  A    between atoms: C_1  and  C_2
REMARK    2  A    between atoms: C_2  and  C_3
REMARK    3  A    between atoms: C_23  and  C_31
REMARK    4  A    between atoms: C_31  and  C_33
REMARK                            x       y       z     vdW  Elec       q    Type
REMARK                         _______ _______ _______ _____ _____    ______ ____
ROOT
ATOM      1  C   UNL     1      -1.472  -0.541   0.046  0.00  0.00    -0.047 A 
ATOM      2  C   UNL     1      -2.120  -0.823   1.234  0.00  0.00    +0.005 A 
ATOM      3  C   UNL     1      -3.400  -1.337   1.225  0.00  0.00    +0.024 A 
ATOM      4  C   UNL     1      -4.050  -1.577   0.017  0.00  0.00    +0.036 A 
ATOM      5  C   UNL     1      -3.388  -1.289  -1.172  0.00  0.00    -0.026 A 
ATOM      6  C   UNL     1      -2.112  -0.770  -1.159  0.00  0.00    +0.008 A 
ATOM      7  C   UNL     1      -4.341  -1.654  -2.280  0.00  0.00    +0.060 C 
ATOM      8  C   UNL     1      -5.572  -2.163  -1.571  0.00  0.00    +0.212 C 
ATOM      9  O   UNL     1      -6.591  -2.564  -2.091  0.00  0.00    -0.277 OA
ATOM     10  N   UNL     1      -5.322  -2.086  -0.251  0.00  0.00    -0.286 N 
ATOM     11  C   UNL     1      -4.665  -0.449  -3.152  0.00  0.00    +0.085 C 
ATOM     12  C   UNL     1      -6.139  -0.321  -3.414  0.00  0.00    -0.011 A 
ATOM     13  C   UNL     1      -7.076  -1.154  -3.983  0.00  0.00    +0.006 A 
ATOM     14  C   UNL     1      -8.394  -0.744  -4.089  0.00  0.00    +0.000 A 
ATOM     15  C   UNL     1      -8.767   0.503  -3.622  0.00  0.00    +0.002 A 
ATOM     16  C   UNL     1      -7.832   1.340  -3.050  0.00  0.00    +0.023 A 
ATOM     17  C   UNL     1      -6.503   0.936  -2.939  0.00  0.00    +0.038 A 
ATOM     18  N   UNL     1      -5.391   1.591  -2.407  0.00  0.00    -0.285 N 
ATOM     19  C   UNL     1      -4.272   0.846  -2.493  0.00  0.00    +0.228 C 
ATOM     20  O   UNL     1      -3.164   1.158  -2.113  0.00  0.00    -0.275 OA
ATOM     21  C   UNL     1      -3.884  -0.668  -4.456  0.00  0.00    +0.066 C 
ATOM     22  C   UNL     1      -3.732  -2.198  -4.530  0.00  0.00    -0.055 C 
ATOM     23  N   UNL     1      -3.764  -2.700  -3.138  0.00  0.00    +0.395 N 
ATOM     24  C   UNL     1      -2.346  -2.899  -2.737  0.00  0.00    -0.076 C 
ATOM     25  C   UNL     1      -1.655  -3.387  -4.033  0.00  0.00    -0.020 C 
ATOM     26  C   UNL     1      -2.378  -2.570  -5.150  0.00  0.00    -0.016 C 
ATOM     27  H   UNL     1      -5.953  -2.352   0.436  0.00  0.00    +0.155 HD
ATOM     28  H   UNL     1      -5.421   2.480  -2.020  0.00  0.00    +0.155 HD
ATOM     29  H   UNL     1      -4.296  -3.555  -3.074  0.00  0.00    -0.079 HD
ENDROOT
BRANCH   1  31
ATOM     30  C   UNL     1      -0.138   1.549   0.100  0.00  0.00    +0.009 C 
ATOM     31  C   UNL     1      -0.073   0.021   0.063  0.00  0.00    +0.032 C 
ENDBRANCH   1  31
BRANCH  21  32
ATOM     32  C   UNL     1      -4.665  -0.151  -5.636  0.00  0.00    +0.172 C 
ATOM     33  O   UNL     1      -5.393  -0.899  -6.257  0.00  0.00    -0.291 OA
BRANCH  32  34
ATOM     34  C   UNL     1      -4.551   1.203  -6.020  0.00  0.00    +0.055 A 
ATOM     35  C   UNL     1      -5.181   1.876  -7.063  0.00  0.00    +0.019 A 
ATOM     36  C   UNL     1      -4.867   3.205  -7.189  0.00  0.00    +0.008 A 
ATOM     37  C   UNL     1      -3.988   3.762  -6.316  0.00  0.00    +0.046 A 
ATOM     38  S   UNL     1      -3.567   2.499  -5.292  0.00  0.00    -0.094 S 
ENDBRANCH  32  34
ENDBRANCH  21  32
TORSDOF 3
