REMARK  Name = ZINC35201010
REMARK  10 active torsions:
REMARK  status: ('A' for Active; 'I' for Inactive)
REMARK    1  A    between atoms: C_1  and  C_2
REMARK    2  A    between atoms: C_2  and  C_4
REMARK    3  A    between atoms: C_2  and  N_27
REMARK    4  A    between atoms: C_7  and  S_18
REMARK    5  A    between atoms: N_8  and  C_9
REMARK    6  A    between atoms: C_12  and  N_15
REMARK    7  A    between atoms: S_18  and  C_19
REMARK    8  A    between atoms: C_19  and  C_20
REMARK    9  A    between atoms: N_30  and  C_31
REMARK   10  A    between atoms: C_31  and  C_32
REMARK                            x       y       z     vdW  Elec       q    Type
REMARK                         _______ _______ _______ _____ _____    ______ ____
ROOT
ATOM      1  C   UNL     1      -1.412  -0.526   0.013  0.00  0.00    +0.159 A 
ATOM      2  N   UNL     1      -2.238  -0.538  -0.995  0.00  0.00    -0.131 NA
ATOM      3  N   UNL     1      -3.361  -1.052  -0.640  0.00  0.00    -0.122 NA
ATOM      4  C   UNL     1      -3.314  -1.400   0.625  0.00  0.00    +0.196 A 
ATOM      5  N   UNL     1      -2.064  -1.080   1.082  0.00  0.00    -0.273 N 
ENDROOT
BRANCH   5   6
ATOM      6  C   UNL     1      -1.559  -1.276   2.375  0.00  0.00    +0.050 A 
ATOM      7  C   UNL     1      -0.500  -2.150   2.583  0.00  0.00    +0.028 A 
ATOM      8  C   UNL     1      -0.004  -2.341   3.858  0.00  0.00    +0.035 A 
ATOM      9  C   UNL     1      -0.561  -1.663   4.926  0.00  0.00    +0.126 A 
ATOM     10  C   UNL     1      -1.615  -0.792   4.722  0.00  0.00    +0.035 A 
ATOM     11  C   UNL     1      -2.112  -0.593   3.449  0.00  0.00    +0.028 A 
BRANCH   9  12
ATOM     12  N   UNL     1      -0.027  -1.870   6.291  0.00  0.00    +0.056 N 
ATOM     13  O   UNL     1       0.894  -2.632   6.471  0.00  0.00    -0.126 OA
ATOM     14  O   UNL     1      -0.513  -1.278   7.227  0.00  0.00    -0.126 OA
ENDBRANCH   9  12
ENDBRANCH   5   6
BRANCH   1  16
ATOM     15  C   UNL     1      -0.019   1.526   0.010  0.00  0.00    +0.036 C 
ATOM     16  C   UNL     1       0.002  -0.004   0.002  0.00  0.00    +0.140 C 
BRANCH  16  17
ATOM     17  N   UNL     1       0.688  -0.476  -1.203  0.00  0.00    -0.290 N 
ATOM     18  C   UNL     1       2.031  -0.587  -1.215  0.00  0.00    +0.300 C 
ATOM     19  O   UNL     1       2.674  -0.294  -0.225  0.00  0.00    -0.253 OA
ATOM     20  N   UNL     1       2.662  -1.022  -2.324  0.00  0.00    -0.295 N 
ATOM     21  H   UNL     1       0.175  -0.710  -1.993  0.00  0.00    +0.151 HD
ATOM     22  H   UNL     1       2.149  -1.255  -3.114  0.00  0.00    +0.151 HD
BRANCH  20  23
ATOM     23  C   UNL     1       4.122  -1.142  -2.336  0.00  0.00    +0.141 C 
BRANCH  23  24
ATOM     24  C   UNL     1       4.573  -1.645  -3.683  0.00  0.00    -0.030 A 
ATOM     25  C   UNL     1       4.685  -3.003  -3.912  0.00  0.00    +0.005 A 
ATOM     26  C   UNL     1       5.099  -3.465  -5.147  0.00  0.00    +0.000 A 
ATOM     27  C   UNL     1       5.400  -2.568  -6.155  0.00  0.00    +0.000 A 
ATOM     28  C   UNL     1       5.287  -1.209  -5.927  0.00  0.00    +0.000 A 
ATOM     29  C   UNL     1       4.869  -0.748  -4.693  0.00  0.00    +0.005 A 
ENDBRANCH  23  24
ENDBRANCH  20  23
ENDBRANCH  16  17
ENDBRANCH   1  16
BRANCH   4  30
ATOM     30  S   UNL     1      -4.611  -2.145   1.557  0.00  0.00    -0.081 S 
BRANCH  30  31
ATOM     31  C   UNL     1      -5.971  -2.301   0.367  0.00  0.00    +0.112 C 
BRANCH  31  32
ATOM     32  C   UNL     1      -7.161  -2.933   1.044  0.00  0.00    -0.037 A 
ATOM     33  C   UNL     1      -7.304  -4.308   1.046  0.00  0.00    +0.007 A 
ATOM     34  C   UNL     1      -8.394  -4.888   1.667  0.00  0.00    +0.038 A 
ATOM     35  C   UNL     1      -9.342  -4.092   2.287  0.00  0.00    +0.123 A 
ATOM     36  C   UNL     1      -9.197  -2.715   2.284  0.00  0.00    +0.038 A 
ATOM     37  C   UNL     1      -8.104  -2.137   1.667  0.00  0.00    +0.007 A 
ATOM     38  F   UNL     1     -10.408  -4.658   2.894  0.00  0.00    -0.205 F 
ENDBRANCH  31  32
ENDBRANCH  30  31
ENDBRANCH   4  30
TORSDOF 9
