REMARK  Name = ZINC33126312
REMARK  12 active torsions:
REMARK  status: ('A' for Active; 'I' for Inactive)
REMARK    1  A    between atoms: C_1  and  C_2
REMARK    2  A    between atoms: C_2  and  O_3
REMARK    3  A    between atoms: O_3  and  C_4
REMARK    4  A    between atoms: C_7  and  C_10
REMARK    5  A    between atoms: C_10  and  N_11
REMARK    6  A    between atoms: N_11  and  C_12
REMARK    7  A    between atoms: N_11  and  C_16
REMARK    8  A    between atoms: C_12  and  C_13
REMARK    9  A    between atoms: C_13  and  O_14
REMARK   10  A    between atoms: O_14  and  C_15
REMARK   11  A    between atoms: C_16  and  C_17
REMARK   12  A    between atoms: C_25  and  C_28
REMARK                            x       y       z     vdW  Elec       q    Type
REMARK                         _______ _______ _______ _____ _____    ______ ____
ROOT
ATOM      1  C   UNL     1      -0.958   2.029  -1.213  0.00  0.00    +0.032 A 
ATOM      2  C   UNL     1      -0.423   3.048  -1.950  0.00  0.00    +0.093 A 
ATOM      3  C   UNL     1      -1.205   3.647  -2.954  0.00  0.00    +0.273 A 
ATOM      4  O   UNL     1      -0.755   4.556  -3.632  0.00  0.00    -0.266 OA
ATOM      5  N   UNL     1      -2.464   3.203  -3.147  0.00  0.00    -0.201 N 
ATOM      6  C   UNL     1      -2.954   2.181  -2.375  0.00  0.00    +0.158 A 
ATOM      7  N   UNL     1      -2.202   1.621  -1.436  0.00  0.00    -0.234 NA
ATOM      8  C   UNL     1      -4.277   1.929  -2.795  0.00  0.00    +0.075 A 
ATOM      9  C   UNL     1      -4.574   2.792  -3.806  0.00  0.00    +0.066 A 
ATOM     10  N   UNL     1      -3.472   3.586  -4.040  0.00  0.00    -0.288 N 
ATOM     11  H   UNL     1      -3.290   4.398  -4.759  0.00  0.00    +0.187 HD
ENDROOT
BRANCH   9  12
ATOM     12  C   UNL     1      -5.859   2.865  -4.530  0.00  0.00    -0.000 A 
ATOM     13  C   UNL     1      -6.038   3.804  -5.549  0.00  0.00    +0.011 A 
ATOM     14  C   UNL     1      -7.238   3.863  -6.224  0.00  0.00    +0.020 A 
ATOM     15  C   UNL     1      -8.270   3.002  -5.886  0.00  0.00    +0.041 A 
ATOM     16  C   UNL     1      -8.100   2.073  -4.874  0.00  0.00    +0.020 A 
ATOM     17  C   UNL     1      -6.902   1.999  -4.194  0.00  0.00    +0.011 A 
ATOM     18 CL   UNL     1      -9.781   3.089  -6.736  0.00  0.00    -0.084 Cl
ENDBRANCH   9  12
BRANCH   1  19
ATOM     19  C   UNL     1      -0.134   1.369  -0.137  0.00  0.00    -0.022 C 
BRANCH  19  20
ATOM     20  N   UNL     1      -0.739   1.636   1.175  0.00  0.00    +0.388 N 
ATOM     21  H   UNL     1      -0.891   2.722   1.263  0.00  0.00    -0.081 HD
BRANCH  20  22
ATOM     22  C   UNL     1       0.155   1.215   2.262  0.00  0.00    -0.042 C 
BRANCH  22  26
ATOM     23  C   UNL     1       3.322   4.054   2.680  0.00  0.00    +0.121 A 
ATOM     24  C   UNL     1       2.105   4.272   3.310  0.00  0.00    +0.046 A 
ATOM     25  C   UNL     1       1.083   3.353   3.174  0.00  0.00    +0.005 A 
ATOM     26  C   UNL     1       1.272   2.216   2.409  0.00  0.00    -0.064 A 
ATOM     27  C   UNL     1       2.486   1.994   1.785  0.00  0.00    +0.005 A 
ATOM     28  C   UNL     1       3.509   2.913   1.915  0.00  0.00    +0.046 A 
BRANCH  23  29
ATOM     29  O   UNL     1       4.329   4.957   2.813  0.00  0.00    -0.492 OA
BRANCH  29  31
ATOM     30  C   UNL     1       6.560   5.789   2.401  0.00  0.00    +0.048 C 
ATOM     31  C   UNL     1       5.553   4.667   2.137  0.00  0.00    +0.225 C 
ENDBRANCH  29  31
ENDBRANCH  23  29
ENDBRANCH  22  26
ENDBRANCH  20  22
BRANCH  20  32
ATOM     32  C   UNL     1      -2.051   0.986   1.292  0.00  0.00    -0.049 C 
BRANCH  32  33
ATOM     33  C   UNL     1      -2.812   1.582   2.477  0.00  0.00    +0.141 C 
BRANCH  33  34
ATOM     34  O   UNL     1      -3.079   2.963   2.226  0.00  0.00    -0.385 OA
ATOM     35  C   UNL     1      -3.790   3.619   3.278  0.00  0.00    +0.193 C 
ENDBRANCH  33  34
ENDBRANCH  32  33
ENDBRANCH  20  32
ENDBRANCH  19  20
ENDBRANCH   1  19
TORSDOF 10
