REMARK  Name = ZINC13247720
REMARK  11 active torsions:
REMARK  status: ('A' for Active; 'I' for Inactive)
REMARK    1  A    between atoms: C_1  and  C_2
REMARK    2  A    between atoms: C_4  and  C_26
REMARK    3  A    between atoms: C_6  and  S_9
REMARK    4  A    between atoms: C_7  and  C_8
REMARK    5  A    between atoms: S_9  and  N_12
REMARK    6  A    between atoms: N_12  and  C_13
REMARK    7  A    between atoms: C_13  and  C_15
REMARK    8  A    between atoms: C_13  and  C_16
REMARK    9  A    between atoms: C_16  and  C_18
REMARK   10  A    between atoms: C_16  and  O_25
REMARK   11  A    between atoms: C_21  and  O_24
REMARK                            x       y       z     vdW  Elec       q    Type
REMARK                         _______ _______ _______ _____ _____    ______ ____
ROOT
ATOM      1  N   UNL     1      -0.740   0.828  -1.417  0.00  0.00    -0.184 NA
ATOM      2  H   UNL     1      -0.619   1.677  -1.870  0.00  0.00    +0.148 HD
ENDROOT
BRANCH   1   3
ATOM      3  S   UNL     1      -1.714  -0.335  -2.082  0.00  0.00    +0.059 S 
ATOM      4  O   UNL     1      -2.245   0.216  -3.279  0.00  0.00    -0.153 OA
ATOM      5  O   UNL     1      -0.972  -1.546  -2.063  0.00  0.00    -0.153 OA
BRANCH   3  11
ATOM      6  C   UNL     1      -6.022   1.429   0.296  0.00  0.00    +0.044 C 
ATOM      7  C   UNL     1      -5.047   0.300   0.078  0.00  0.00    -0.045 A 
ATOM      8  C   UNL     1      -5.225  -0.899   0.736  0.00  0.00    +0.018 A 
ATOM      9  C   UNL     1      -4.321  -1.944   0.533  0.00  0.00    +0.065 A 
ATOM     10  C   UNL     1      -3.241  -1.766  -0.335  0.00  0.00    +0.044 A 
ATOM     11  C   UNL     1      -3.075  -0.561  -0.986  0.00  0.00    +0.109 A 
ATOM     12  C   UNL     1      -3.973   0.471  -0.776  0.00  0.00    -0.021 A 
ATOM     13  C   UNL     1      -3.781   1.787  -1.486  0.00  0.00    +0.046 C 
BRANCH   9  14
ATOM     14  C   UNL     1      -4.504  -3.231   1.235  0.00  0.00    +0.387 C 
ATOM     15  O   UNL     1      -3.716  -4.137   1.057  0.00  0.00    -0.241 OA
ATOM     16  O   UNL     1      -5.547  -3.399   2.072  0.00  0.00    -0.241 OA
ENDBRANCH   9  14
ENDBRANCH   3  11
ENDBRANCH   1   3
BRANCH   1  17
ATOM     17  C   UNL     1      -0.059   0.573  -0.145  0.00  0.00    +0.106 C 
ATOM     18  C   UNL     1      -0.878   1.172   1.000  0.00  0.00    +0.028 C 
BRANCH  17  19
ATOM     19  C   UNL     1       1.329   1.218  -0.172  0.00  0.00    +0.163 C 
BRANCH  19  20
ATOM     20  C   UNL     1       2.076   0.853   1.086  0.00  0.00    -0.017 A 
ATOM     21  C   UNL     1       1.824   1.537   2.261  0.00  0.00    +0.010 A 
ATOM     22  C   UNL     1       2.503   1.201   3.416  0.00  0.00    +0.046 A 
ATOM     23  C   UNL     1       3.447   0.185   3.393  0.00  0.00    +0.117 A 
ATOM     24  C   UNL     1       3.702  -0.496   2.212  0.00  0.00    +0.046 A 
ATOM     25  C   UNL     1       3.016  -0.160   1.061  0.00  0.00    +0.010 A 
BRANCH  23  26
ATOM     26  O   UNL     1       4.121  -0.143   4.527  0.00  0.00    -0.507 OA
ATOM     27  H   UNL     1       4.944   0.350   4.652  0.00  0.00    +0.292 HD
ENDBRANCH  23  26
ENDBRANCH  19  20
BRANCH  19  28
ATOM     28  O   UNL     1       1.193   2.638  -0.250  0.00  0.00    -0.386 OA
ATOM     29  H   UNL     1       0.711   3.029   0.491  0.00  0.00    +0.210 HD
ENDBRANCH  19  28
ENDBRANCH  17  19
ENDBRANCH   1  17
TORSDOF 8
