REMARK  Name = ZINC39024673
REMARK  6 active torsions:
REMARK  status: ('A' for Active; 'I' for Inactive)
REMARK    1  A    between atoms: C_1  and  C_2
REMARK    2  A    between atoms: C_2  and  C_4
REMARK    3  A    between atoms: C_2  and  N_10
REMARK    4  A    between atoms: C_11  and  O_35
REMARK    5  A    between atoms: C_14  and  O_34
REMARK    6  A    between atoms: C_15  and  C_19
REMARK                            x       y       z     vdW  Elec       q    Type
REMARK                         _______ _______ _______ _____ _____    ______ ____
ROOT
ATOM      1  N   UNL     1       0.386  -0.827   1.151  0.00  0.00    -0.250 N 
ATOM      2  C   UNL     1       1.785  -0.860   1.552  0.00  0.00    +0.335 C 
ATOM      3  N   UNL     1       1.951  -1.302   2.926  0.00  0.00    -0.204 NA
ATOM      4  C   UNL     1       1.076  -1.965   3.578  0.00  0.00    +0.200 C 
ATOM      5  C   UNL     1      -0.245  -2.367   2.991  0.00  0.00    +0.183 C 
ATOM      6  C   UNL     1      -0.566  -1.516   1.796  0.00  0.00    +0.233 C 
ATOM      7  O   UNL     1      -1.711  -1.453   1.403  0.00  0.00    -0.275 OA
ENDROOT
BRANCH   5   8
ATOM      8  C   UNL     1      -0.184  -3.836   2.566  0.00  0.00    +0.122 C 
ATOM      9  C   UNL     1       0.005  -4.709   3.783  0.00  0.00    +0.039 A 
ATOM     10  H   UNL     1      -1.304  -3.932   5.206  0.00  0.00    +0.166 HD
ATOM     11  C   UNL     1       0.871  -5.747   3.818  0.00  0.00    -0.016 A 
ATOM     12  C   UNL     1       0.777  -6.338   5.135  0.00  0.00    +0.003 A 
ATOM     13  C   UNL     1       1.424  -7.420   5.739  0.00  0.00    +0.010 A 
ATOM     14  C   UNL     1       1.077  -7.705   7.037  0.00  0.00    +0.001 A 
ATOM     15  C   UNL     1       0.134  -6.962   7.726  0.00  0.00    +0.002 A 
ATOM     16  C   UNL     1      -0.523  -5.887   7.153  0.00  0.00    +0.026 A 
ATOM     17  C   UNL     1      -0.192  -5.574   5.837  0.00  0.00    +0.047 A 
ATOM     18  N   UNL     1      -0.635  -4.600   4.988  0.00  0.00    -0.356 N 
ATOM     19  C   UNL     1       1.738  -6.148   2.651  0.00  0.00    +0.052 C 
ATOM     20  C   UNL     1       1.179  -5.470   1.392  0.00  0.00    +0.086 C 
ATOM     21  N   UNL     1       0.956  -4.041   1.658  0.00  0.00    -0.307 NA
ATOM     22  H   UNL     1       0.833  -3.525   0.800  0.00  0.00    +0.123 HD
ENDBRANCH   5   8
BRANCH   1  24
ATOM     23  C   UNL     1       0.461   1.437   0.231  0.00  0.00    +0.033 C 
ATOM     24  C   UNL     1       0.002  -0.004   0.002  0.00  0.00    +0.107 C 
BRANCH  24  25
ATOM     25  C   UNL     1       0.653  -0.547  -1.244  0.00  0.00    -0.027 A 
ATOM     26  C   UNL     1       2.028  -0.672  -1.307  0.00  0.00    +0.005 A 
ATOM     27  C   UNL     1       2.626  -1.169  -2.450  0.00  0.00    +0.000 A 
ATOM     28  C   UNL     1       1.847  -1.542  -3.530  0.00  0.00    +0.000 A 
ATOM     29  C   UNL     1       0.472  -1.418  -3.467  0.00  0.00    +0.000 A 
ATOM     30  C   UNL     1      -0.125  -0.924  -2.322  0.00  0.00    +0.005 A 
ENDBRANCH  24  25
ENDBRANCH   1  24
BRANCH   4  31
ATOM     31  O   UNL     1       1.352  -2.321   4.850  0.00  0.00    -0.495 OA
ATOM     32  H   UNL     1       2.220  -2.028   5.160  0.00  0.00    +0.293 HD
ENDBRANCH   4  31
BRANCH   2  33
ATOM     33  O   UNL     1       2.337   0.451   1.417  0.00  0.00    -0.356 OA
ATOM     34  H   UNL     1       3.269   0.513   1.665  0.00  0.00    +0.214 HD
ENDBRANCH   2  33
TORSDOF 5
