REMARK  Name = ZINC36504868
REMARK  11 active torsions:
REMARK  status: ('A' for Active; 'I' for Inactive)
REMARK    1  A    between atoms: C_1  and  C_2
REMARK    2  A    between atoms: C_2  and  C_3
REMARK    3  A    between atoms: C_3  and  C_4
REMARK    4  A    between atoms: C_4  and  N_5
REMARK    5  A    between atoms: C_6  and  C_8
REMARK    6  A    between atoms: C_8  and  C_10
REMARK    7  A    between atoms: C_8  and  N_18
REMARK    8  A    between atoms: N_18  and  C_19
REMARK    9  A    between atoms: C_19  and  C_20
REMARK   10  A    between atoms: C_25  and  C_27
REMARK   11  A    between atoms: C_31  and  N_33
REMARK                            x       y       z     vdW  Elec       q    Type
REMARK                         _______ _______ _______ _____ _____    ______ ____
ROOT
ATOM      1  N   UNL     1      -4.284  -5.572   0.057  0.00  0.00    -0.275 N 
ATOM      2  C   UNL     1      -3.833  -6.197  -1.049  0.00  0.00    +0.248 C 
ATOM      3  O   UNL     1      -3.792  -7.412  -1.087  0.00  0.00    -0.270 OA
ENDROOT
BRANCH   2   4
ATOM      4  C   UNL     1      -3.389  -5.406  -2.216  0.00  0.00    +0.039 A 
ATOM      5  C   UNL     1      -3.482  -4.013  -2.196  0.00  0.00    +0.013 A 
ATOM      6  C   UNL     1      -3.065  -3.281  -3.288  0.00  0.00    +0.003 A 
ATOM      7  C   UNL     1      -2.556  -3.924  -4.403  0.00  0.00    +0.033 A 
ATOM      8  C   UNL     1      -2.461  -5.304  -4.430  0.00  0.00    +0.127 A 
ATOM      9  C   UNL     1      -2.869  -6.048  -3.341  0.00  0.00    +0.045 A 
BRANCH   8  10
ATOM     10  N   UNL     1      -1.916  -5.984  -5.626  0.00  0.00    +0.056 N 
ATOM     11  O   UNL     1      -1.553  -5.333  -6.578  0.00  0.00    -0.126 OA
ATOM     12  O   UNL     1      -1.832  -7.189  -5.651  0.00  0.00    -0.126 OA
ENDBRANCH   8  10
ENDBRANCH   2   4
BRANCH   1  13
ATOM     13  C   UNL     1      -4.017  -4.145   0.251  0.00  0.00    +0.196 C 
BRANCH  13  14
ATOM     14  C   UNL     1      -4.169  -3.800   1.710  0.00  0.00    +0.018 A 
ATOM     15  C   UNL     1      -3.683  -4.659   2.679  0.00  0.00    +0.048 A 
ATOM     16  C   UNL     1      -3.823  -4.342   4.018  0.00  0.00    +0.020 A 
ATOM     17  C   UNL     1      -4.450  -3.167   4.388  0.00  0.00    +0.003 A 
ATOM     18  C   UNL     1      -4.936  -2.308   3.421  0.00  0.00    +0.020 A 
ATOM     19  C   UNL     1      -4.791  -2.621   2.081  0.00  0.00    +0.048 A 
ATOM     20 CL   UNL     1      -5.394  -1.538   0.866  0.00  0.00    -0.083 Cl
ATOM     21 CL   UNL     1      -2.897  -6.136   2.214  0.00  0.00    -0.083 Cl
ENDBRANCH  13  14
BRANCH  13  23
ATOM     22  N   UNL     1      -2.143  -2.571  -0.108  0.00  0.00    -0.313 N 
ATOM     23  C   UNL     1      -2.612  -3.831  -0.195  0.00  0.00    +0.238 C 
ATOM     24  O   UNL     1      -1.903  -4.713  -0.632  0.00  0.00    -0.273 OA
ATOM     25  H   UNL     1      -2.709  -1.866   0.242  0.00  0.00    +0.149 HD
BRANCH  22  26
ATOM     26  C   UNL     1      -0.777  -2.266  -0.541  0.00  0.00    +0.104 C 
BRANCH  26  27
ATOM     27  C   UNL     1      -0.498  -0.776  -0.338  0.00  0.00    +0.018 C 
BRANCH  27  29
ATOM     28  C   UNL     1       1.207   1.033  -0.588  0.00  0.00    +0.004 C 
ATOM     29  C   UNL     1       0.928  -0.457  -0.791  0.00  0.00    -0.002 C 
ENDBRANCH  27  29
ENDBRANCH  26  27
ENDBRANCH  22  26
ENDBRANCH  13  23
ENDBRANCH   1  13
BRANCH   1  30
ATOM     30  C   UNL     1      -5.041  -6.320   1.064  0.00  0.00    +0.183 C 
BRANCH  30  31
ATOM     31  C   UNL     1      -6.228  -6.981   0.412  0.00  0.00    +0.122 A 
ATOM     32  C   UNL     1      -6.289  -8.261   0.004  0.00  0.00    +0.046 A 
ATOM     33  C   UNL     1      -7.577  -8.454  -0.546  0.00  0.00    +0.041 A 
ATOM     34  C   UNL     1      -8.226  -7.280  -0.442  0.00  0.00    +0.195 A 
ATOM     35  O   UNL     1      -7.405  -6.393   0.145  0.00  0.00    -0.466 OA
ENDBRANCH  30  31
ENDBRANCH   1  30
TORSDOF 10
