REMARK  Name = ZINC48644977
REMARK  3 active torsions:
REMARK  status: ('A' for Active; 'I' for Inactive)
REMARK    1  A    between atoms: C_6  and  C_7
REMARK    2  A    between atoms: N_9  and  N_10
REMARK    3  A    between atoms: N_13  and  C_14
REMARK                            x       y       z     vdW  Elec       q    Type
REMARK                         _______ _______ _______ _____ _____    ______ ____
ROOT
ATOM      1  N   UNL     1      -2.124  -3.068   0.006  0.00  0.00    -0.218 N 
ATOM      2  C   UNL     1      -1.959  -4.405  -0.003  0.00  0.00    +0.316 C 
ATOM      3  O   UNL     1      -2.930  -5.137   0.002  0.00  0.00    -0.251 OA
ATOM      4  N   UNL     1      -0.719  -4.932  -0.018  0.00  0.00    -0.295 N 
ATOM      5  H   UNL     1      -3.017  -2.689   0.016  0.00  0.00    +0.174 HD
ATOM      6  H   UNL     1       0.056  -4.348  -0.022  0.00  0.00    +0.151 HD
ENDROOT
BRANCH   4   7
ATOM      7  C   UNL     1      -0.540  -6.386  -0.027  0.00  0.00    +0.074 C 
ATOM      8  C   UNL     1      -0.589  -6.915   1.408  0.00  0.00    +0.022 C 
ATOM      9  C   UNL     1      -0.403  -8.434   1.398  0.00  0.00    +0.002 C 
ATOM     10  C   UNL     1       0.951  -8.777   0.773  0.00  0.00    +0.000 C 
ATOM     11  C   UNL     1       1.000  -8.248  -0.661  0.00  0.00    +0.002 C 
ATOM     12  C   UNL     1       0.814  -6.729  -0.651  0.00  0.00    +0.022 C 
ENDBRANCH   4   7
BRANCH   1  15
ATOM     13  C   UNL     1      -1.169  -0.887   0.009  0.00  0.00    +0.276 C 
ATOM     14  O   UNL     1      -2.289  -0.411   0.022  0.00  0.00    -0.267 OA
ATOM     15  N   UNL     1      -1.005  -2.224  -0.000  0.00  0.00    -0.228 N 
ATOM     16  H   UNL     1      -0.112  -2.603  -0.011  0.00  0.00    +0.173 HD
BRANCH  13  22
ATOM     17  C   UNL     1      -0.017   1.375   0.010  0.00  0.00    +0.047 A 
ATOM     18  C   UNL     1       1.315   1.804  -0.001  0.00  0.00    +0.036 A 
ATOM     19  C   UNL     1       2.106   0.704  -0.014  0.00  0.00    +0.098 A 
ATOM     20  N   UNL     1       1.320  -0.401  -0.013  0.00  0.00    -0.356 N 
ATOM     21  H   UNL     1       1.634  -1.319  -0.020  0.00  0.00    +0.166 HD
ATOM     22  C   UNL     1       0.002  -0.004   0.002  0.00  0.00    +0.104 A 
ATOM     23 BR   UNL     1       1.905   3.600   0.003  0.00  0.00    -0.049 Br
ENDBRANCH  13  22
ENDBRANCH   1  15
TORSDOF 3
