REMARK  Name = ZINC38596277
REMARK  13 active torsions:
REMARK  status: ('A' for Active; 'I' for Inactive)
REMARK    1  A    between atoms: C_1  and  C_2
REMARK    2  A    between atoms: C_2  and  O_3
REMARK    3  A    between atoms: O_3  and  C_4
REMARK    4  A    between atoms: C_7  and  C_37
REMARK    5  A    between atoms: C_9  and  S_10
REMARK    6  A    between atoms: S_10  and  N_13
REMARK    7  A    between atoms: N_13  and  C_14
REMARK    8  A    between atoms: C_14  and  C_16
REMARK    9  A    between atoms: C_14  and  C_17
REMARK   10  A    between atoms: C_17  and  C_19
REMARK   11  A    between atoms: C_17  and  N_24
REMARK   12  A    between atoms: N_27  and  C_30
REMARK   13  A    between atoms: C_30  and  C_31
REMARK                            x       y       z     vdW  Elec       q    Type
REMARK                         _______ _______ _______ _____ _____    ______ ____
ROOT
ATOM      1  C   UNL     1      -1.610   0.251  -3.812  0.00  0.00    +0.112 C 
ENDROOT
BRANCH   1   2
ATOM      2  N   UNL     1      -2.572   1.304  -3.462  0.00  0.00    -0.297 NA
ATOM      3  C   UNL     1      -2.643   1.491  -2.006  0.00  0.00    +0.066 C 
ATOM      4  C   UNL     1      -3.609   2.635  -1.688  0.00  0.00    -0.063 C 
ATOM      5  N   UNL     1      -4.939   2.315  -2.223  0.00  0.00    +0.384 N 
ATOM      6  C   UNL     1      -4.857   2.155  -3.681  0.00  0.00    -0.063 C 
ATOM      7  C   UNL     1      -3.901   1.008  -4.016  0.00  0.00    +0.066 C 
ATOM      8  H   UNL     1      -5.270   1.456  -1.809  0.00  0.00    -0.081 HD
BRANCH   5   9
ATOM      9  C   UNL     1      -5.870   3.404  -1.901  0.00  0.00    -0.043 C 
BRANCH   9  10
ATOM     10  C   UNL     1      -7.260   3.023  -2.341  0.00  0.00    -0.064 A 
ATOM     11  C   UNL     1      -7.692   3.334  -3.617  0.00  0.00    +0.002 A 
ATOM     12  C   UNL     1      -8.967   2.984  -4.020  0.00  0.00    +0.000 A 
ATOM     13  C   UNL     1      -9.810   2.323  -3.148  0.00  0.00    +0.000 A 
ATOM     14  C   UNL     1      -9.379   2.011  -1.872  0.00  0.00    +0.000 A 
ATOM     15  C   UNL     1      -8.102   2.357  -1.470  0.00  0.00    +0.002 A 
ENDBRANCH   9  10
ENDBRANCH   5   9
ENDBRANCH   1   2
BRANCH   1  16
ATOM     16  C   UNL     1      -2.140  -1.085  -3.358  0.00  0.00    +0.008 A 
ATOM     17  C   UNL     1      -2.250  -2.242  -4.056  0.00  0.00    +0.013 A 
ATOM     18  C   UNL     1      -2.772  -3.357  -3.428  0.00  0.00    +0.008 A 
ATOM     19  C   UNL     1      -3.159  -3.261  -2.133  0.00  0.00    +0.045 A 
ATOM     20  S   UNL     1      -2.780  -1.556  -1.760  0.00  0.00    -0.100 S 
ENDBRANCH   1  16
BRANCH   1  21
ATOM     21  C   UNL     1      -0.274   0.530  -3.120  0.00  0.00    +0.095 C 
ATOM     22  C   UNL     1       0.243   1.906  -3.547  0.00  0.00    +0.027 C 
BRANCH  21  23
ATOM     23  N   UNL     1       0.698  -0.496  -3.503  0.00  0.00    -0.185 NA
ATOM     24  H   UNL     1       0.672  -0.882  -4.393  0.00  0.00    +0.148 HD
BRANCH  23  25
ATOM     25  S   UNL     1       1.842  -1.000  -2.416  0.00  0.00    +0.062 S 
ATOM     26  O   UNL     1       2.616  -1.994  -3.072  0.00  0.00    -0.153 OA
ATOM     27  O   UNL     1       1.159  -1.249  -1.194  0.00  0.00    -0.153 OA
BRANCH  25  33
ATOM     28  C   UNL     1       3.713   0.854  -3.148  0.00  0.00    +0.147 A 
ATOM     29  C   UNL     1       4.555   1.932  -2.915  0.00  0.00    +0.048 A 
ATOM     30  C   UNL     1       4.604   2.511  -1.662  0.00  0.00    +0.007 A 
ATOM     31  C   UNL     1       3.813   2.018  -0.640  0.00  0.00    -0.048 A 
ATOM     32  C   UNL     1       2.974   0.944  -0.869  0.00  0.00    +0.035 A 
ATOM     33  C   UNL     1       2.918   0.364  -2.122  0.00  0.00    +0.147 A 
ATOM     34  C   UNL     1       3.868   2.652   0.726  0.00  0.00    +0.044 C 
BRANCH  28  35
ATOM     35  O   UNL     1       3.663   0.283  -4.380  0.00  0.00    -0.490 OA
BRANCH  35  37
ATOM     36  C   UNL     1       4.346   0.049  -6.686  0.00  0.00    +0.048 C 
ATOM     37  C   UNL     1       4.583   0.771  -5.359  0.00  0.00    +0.226 C 
ENDBRANCH  35  37
ENDBRANCH  28  35
ENDBRANCH  25  33
ENDBRANCH  23  25
ENDBRANCH  21  23
ENDBRANCH   1  21
TORSDOF 10
