REMARK  Name = ZINC20682461
REMARK  6 active torsions:
REMARK  status: ('A' for Active; 'I' for Inactive)
REMARK    1  A    between atoms: C_1  and  C_2
REMARK    2  A    between atoms: C_2  and  C_3
REMARK    3  A    between atoms: N_5  and  C_6
REMARK    4  A    between atoms: C_19  and  C_22
REMARK    5  A    between atoms: C_25  and  O_29
REMARK    6  A    between atoms: C_27  and  O_28
REMARK                            x       y       z     vdW  Elec       q    Type
REMARK                         _______ _______ _______ _____ _____    ______ ____
ROOT
ATOM      1  C   UNL     1      -0.545   4.265  -0.087  0.00  0.00    +0.034 A 
ATOM      2  C   UNL     1      -1.075   2.982  -0.070  0.00  0.00    +0.025 A 
ATOM      3  C   UNL     1      -0.231   1.895   0.029  0.00  0.00    +0.025 A 
ATOM      4  C   UNL     1       1.143   2.084   0.101  0.00  0.00    +0.031 A 
ATOM      5  C   UNL     1       1.681   3.361   0.076  0.00  0.00    -0.018 A 
ATOM      6  C   UNL     1       0.827   4.451  -0.017  0.00  0.00    +0.029 A 
ATOM      7  C   UNL     1       3.155   3.610   0.143  0.00  0.00    +0.049 C 
ATOM      8  C   UNL     1       3.570   4.114   1.504  0.00  0.00    -0.023 C 
ATOM      9  C   UNL     1       4.744   3.630   1.828  0.00  0.00    -0.030 C 
ATOM     10  C   UNL     1       5.275   2.740   0.721  0.00  0.00    +0.033 C 
ATOM     11  C   UNL     1       3.991   2.332  -0.060  0.00  0.00    +0.029 C 
ATOM     12  C   UNL     1       3.351   1.165   0.697  0.00  0.00    +0.108 C 
ATOM     13  N   UNL     1       1.985   0.968   0.201  0.00  0.00    -0.336 N 
ATOM     14  H   UNL     1       1.642  -0.038  -0.082  0.00  0.00    +0.147 HD
ENDROOT
BRANCH  12  15
ATOM     15  C   UNL     1       3.312   1.479   2.170  0.00  0.00    +0.015 A 
ATOM     16  C   UNL     1       2.290   2.253   2.684  0.00  0.00    +0.012 A 
ATOM     17  C   UNL     1       2.251   2.543   4.035  0.00  0.00    +0.046 A 
ATOM     18  C   UNL     1       3.241   2.057   4.878  0.00  0.00    +0.120 A 
ATOM     19  C   UNL     1       4.268   1.280   4.365  0.00  0.00    +0.091 A 
ATOM     20  C   UNL     1       4.301   0.986   3.010  0.00  0.00    +0.125 A 
BRANCH  20  21
ATOM     21  O   UNL     1       5.303   0.221   2.505  0.00  0.00    -0.506 OA
ATOM     22  H   UNL     1       6.087  -0.170   3.171  0.00  0.00    +0.292 HD
ENDBRANCH  20  21
BRANCH  18  23
ATOM     23  O   UNL     1       3.203   2.342   6.206  0.00  0.00    -0.507 OA
ATOM     24  H   UNL     1       3.987   1.957   6.874  0.00  0.00    +0.292 HD
ENDBRANCH  18  23
ENDBRANCH  12  15
BRANCH   1  27
ATOM     25  C   UNL     1      -2.660   5.294   0.285  0.00  0.00    +0.217 C 
ATOM     26  O   UNL     1      -3.034   4.291   0.855  0.00  0.00    -0.275 OA
ATOM     27  N   UNL     1      -1.397   5.374  -0.179  0.00  0.00    -0.285 N 
ATOM     28  H   UNL     1      -1.035   6.310  -0.630  0.00  0.00    +0.155 HD
BRANCH  25  30
ATOM     29  C   UNL     1      -4.965   6.103   0.709  0.00  0.00    +0.013 C 
ATOM     30  C   UNL     1      -3.607   6.450   0.095  0.00  0.00    +0.093 C 
ENDBRANCH  25  30
ENDBRANCH   1  27
TORSDOF 5
