REMARK  Name = ZINC11814378
REMARK  3 active torsions:
REMARK  status: ('A' for Active; 'I' for Inactive)
REMARK    1  A    between atoms: C_4  and  C_7
REMARK    2  A    between atoms: C_11  and  N_13
REMARK    3  A    between atoms: C_17  and  C_20
REMARK                            x       y       z     vdW  Elec       q    Type
REMARK                         _______ _______ _______ _____ _____    ______ ____
ROOT
ATOM      1  C   UNL     1      -0.224   5.468   1.719  0.00  0.00    +0.162 A 
ATOM      2  N   UNL     1       0.919   6.134   1.798  0.00  0.00    -0.232 NA
ATOM      3  C   UNL     1       0.985   7.418   1.478  0.00  0.00    +0.050 A 
ATOM      4  C   UNL     1      -0.160   8.065   1.056  0.00  0.00    +0.014 A 
ATOM      5  C   UNL     1      -1.351   7.339   0.983  0.00  0.00    +0.129 A 
ATOM      6  N   UNL     1      -1.343   6.053   1.313  0.00  0.00    -0.212 NA
ATOM      7  C   UNL     1       0.149   9.511   0.748  0.00  0.00    +0.041 C 
ATOM      8  C   UNL     1       1.504   9.790   1.436  0.00  0.00    +0.011 C 
ATOM      9  C   UNL     1       2.146   8.386   1.482  0.00  0.00    +0.056 C 
ENDROOT
BRANCH   1  13
ATOM     10  C   UNL     1      -0.303   1.351   2.775  0.00  0.00    +0.000 A 
ATOM     11  C   UNL     1      -1.462   1.975   2.351  0.00  0.00    +0.001 A 
ATOM     12  C   UNL     1      -1.443   3.313   2.011  0.00  0.00    +0.011 A 
ATOM     13  C   UNL     1      -0.251   4.032   2.087  0.00  0.00    +0.019 A 
ATOM     14  C   UNL     1       0.914   3.396   2.510  0.00  0.00    +0.011 A 
ATOM     15  C   UNL     1       0.883   2.059   2.852  0.00  0.00    +0.001 A 
ENDBRANCH   1  13
BRANCH   5  16
ATOM     16  N   UNL     1      -2.522   7.950   0.564  0.00  0.00    -0.314 N 
ATOM     17  C   UNL     1      -2.351   8.567  -0.757  0.00  0.00    +0.106 C 
ATOM     18  C   UNL     1      -3.612   9.354  -1.123  0.00  0.00    +0.020 C 
ATOM     19  C   UNL     1      -4.814   8.405  -1.134  0.00  0.00    +0.016 C 
ATOM     20  C   UNL     1      -4.941   7.739   0.239  0.00  0.00    +0.092 C 
ATOM     21  C   UNL     1      -3.641   7.000   0.565  0.00  0.00    +0.119 C 
BRANCH  20  22
ATOM     22  C   UNL     1      -6.086   6.760   0.219  0.00  0.00    +0.220 C 
ATOM     23  O   UNL     1      -5.876   5.586  -0.004  0.00  0.00    -0.275 OA
ATOM     24  N   UNL     1      -7.343   7.188   0.448  0.00  0.00    -0.301 N 
ATOM     25  C   UNL     1      -8.455   6.231   0.538  0.00  0.00    +0.108 C 
ATOM     26  C   UNL     1      -9.197   6.467   1.863  0.00  0.00    +0.019 C 
ATOM     27  C   UNL     1      -9.622   7.935   1.948  0.00  0.00    +0.003 C 
ATOM     28  C   UNL     1      -8.381   8.830   1.925  0.00  0.00    +0.019 C 
ATOM     29  C   UNL     1      -7.629   8.620   0.607  0.00  0.00    +0.108 C 
ENDBRANCH  20  22
ENDBRANCH   5  16
TORSDOF 3
