REMARK  Name = ZINC18324804
REMARK  10 active torsions:
REMARK  status: ('A' for Active; 'I' for Inactive)
REMARK    1  A    between atoms: C_1  and  C_2
REMARK    2  A    between atoms: C_2  and  C_4
REMARK    3  A    between atoms: C_2  and  S_20
REMARK    4  A    between atoms: C_10  and  C_15
REMARK    5  A    between atoms: S_20  and  C_21
REMARK    6  A    between atoms: C_24  and  C_29
REMARK    7  A    between atoms: N_25  and  C_26
REMARK    8  A    between atoms: C_26  and  C_27
REMARK    9  A    between atoms: C_34  and  O_35
REMARK   10  A    between atoms: O_35  and  C_36
REMARK                            x       y       z     vdW  Elec       q    Type
REMARK                         _______ _______ _______ _____ _____    ______ ____
ROOT
ATOM      1  C   UNL     1       1.750  -6.964  -1.055  0.00  0.00    +0.027 C 
ATOM      2  C   UNL     1       1.133  -6.953   0.344  0.00  0.00    +0.117 C 
ENDROOT
BRANCH   2   3
ATOM      3  C   UNL     1       0.601  -8.325   0.670  0.00  0.00    +0.124 A 
ATOM      4  N   UNL     1      -0.710  -8.602   0.449  0.00  0.00    -0.309 N 
ATOM      5  H   UNL     1      -1.287  -7.913   0.084  0.00  0.00    +0.170 HD
ATOM      6  C   UNL     1      -1.223  -9.816   0.721  0.00  0.00    +0.260 A 
ATOM      7  O   UNL     1      -2.401 -10.051   0.512  0.00  0.00    -0.267 OA
ATOM      8  C   UNL     1      -0.367 -10.825   1.265  0.00  0.00    +0.083 A 
ATOM      9  C   UNL     1      -0.683 -12.199   1.643  0.00  0.00    +0.039 A 
ATOM     10  C   UNL     1       0.307 -12.981   2.144  0.00  0.00    +0.059 A 
ATOM     11  S   UNL     1       1.728 -11.905   2.132  0.00  0.00    -0.076 S 
ATOM     12  C   UNL     1       0.970 -10.446   1.464  0.00  0.00    +0.116 A 
ATOM     13  N   UNL     1       1.407  -9.225   1.165  0.00  0.00    -0.225 NA
BRANCH   9  14
ATOM     14  C   UNL     1      -2.053 -12.727   1.485  0.00  0.00    +0.136 A 
ATOM     15  C   UNL     1      -2.393 -13.893   0.873  0.00  0.00    +0.050 A 
ATOM     16  C   UNL     1      -3.797 -14.000   0.954  0.00  0.00    +0.042 A 
ATOM     17  C   UNL     1      -4.240 -12.903   1.597  0.00  0.00    +0.196 A 
ATOM     18  O   UNL     1      -3.183 -12.135   1.917  0.00  0.00    -0.463 OA
ENDBRANCH   9  14
ENDBRANCH   2   3
BRANCH   2  19
ATOM     19  S   UNL     1      -0.221  -5.753   0.397  0.00  0.00    -0.075 S 
BRANCH  19  20
ATOM     20  C   UNL     1       0.681  -4.262   0.139  0.00  0.00    +0.193 A 
ATOM     21  N   UNL     1       1.980  -4.157  -0.033  0.00  0.00    -0.122 NA
ATOM     22  N   UNL     1       2.305  -2.924  -0.194  0.00  0.00    -0.128 NA
ATOM     23  C   UNL     1       1.235  -2.166  -0.135  0.00  0.00    +0.169 A 
ATOM     24  N   UNL     1       0.162  -2.999   0.085  0.00  0.00    -0.298 N 
BRANCH  23  25
ATOM     25  C   UNL     1       1.191  -0.695  -0.272  0.00  0.00    +0.061 A 
ATOM     26  C   UNL     1       0.487   0.075   0.654  0.00  0.00    +0.015 A 
ATOM     27  C   UNL     1       0.449   1.447   0.520  0.00  0.00    +0.001 A 
ATOM     28  C   UNL     1       1.108   2.064  -0.529  0.00  0.00    +0.004 A 
ATOM     29  C   UNL     1       1.808   1.312  -1.453  0.00  0.00    +0.046 A 
ATOM     30  C   UNL     1       1.856  -0.068  -1.333  0.00  0.00    +0.131 A 
BRANCH  30  31
ATOM     31  O   UNL     1       2.545  -0.808  -2.239  0.00  0.00    -0.494 OA
ATOM     32  C   UNL     1       3.198  -0.099  -3.294  0.00  0.00    +0.277 C 
ENDBRANCH  30  31
ENDBRANCH  23  25
BRANCH  24  33
ATOM     33  C   UNL     1      -1.244  -2.613   0.230  0.00  0.00    +0.152 C 
BRANCH  33  34
ATOM     34  C   UNL     1      -1.901  -2.595  -1.126  0.00  0.00    -0.013 C 
ATOM     35  C   UNL     1      -2.984  -3.301  -1.339  0.00  0.00    +0.005 C 
ENDBRANCH  33  34
ENDBRANCH  24  33
ENDBRANCH  19  20
ENDBRANCH   2  19
TORSDOF 8
