REMARK  Name = ZINC44932441
REMARK  5 active torsions:
REMARK  status: ('A' for Active; 'I' for Inactive)
REMARK    1  A    between atoms: C_1  and  C_2
REMARK    2  A    between atoms: C_2  and  N_9
REMARK    3  A    between atoms: C_10  and  C_14
REMARK    4  A    between atoms: C_17  and  N_21
REMARK    5  A    between atoms: C_19  and  N_20
REMARK                            x       y       z     vdW  Elec       q    Type
REMARK                         _______ _______ _______ _____ _____    ______ ____
ROOT
ATOM      1  N   UNL     1      -1.676  -0.019   0.435  0.00  0.00    -0.218 N 
ATOM      2  C   UNL     1      -2.419  -0.322  -0.666  0.00  0.00    +0.184 A 
ATOM      3  N   UNL     1      -3.151  -1.373  -0.356  0.00  0.00    -0.108 NA
ATOM      4  N   UNL     1      -2.918  -1.744   0.851  0.00  0.00    -0.023 NA
ATOM      5  N   UNL     1      -2.035  -0.980   1.396  0.00  0.00    -0.043 NA
ENDROOT
BRANCH   1   7
ATOM      6  C   UNL     1      -1.413   2.395   0.286  0.00  0.00    +0.038 C 
ATOM      7  C   UNL     1      -0.708   1.071   0.584  0.00  0.00    +0.085 C 
ATOM      8  C   UNL     1       0.410   0.870  -0.438  0.00  0.00    +0.054 C 
ATOM      9  C   UNL     1       1.736   1.488   0.086  0.00  0.00    +0.168 C 
ATOM     10  S   UNL     1       1.620   1.004   1.864  0.00  0.00    -0.029 S 
ATOM     11  O   UNL     1       2.038  -0.347   2.009  0.00  0.00    -0.174 OA
ATOM     12  O   UNL     1       2.219   2.014   2.664  0.00  0.00    -0.174 OA
ATOM     13  C   UNL     1      -0.210   1.094   2.042  0.00  0.00    +0.196 C 
ENDBRANCH   1   7
BRANCH   2  14
ATOM     14  C   UNL     1      -2.407   0.391  -1.959  0.00  0.00    +0.041 A 
ATOM     15  C   UNL     1      -1.426   0.101  -2.909  0.00  0.00    +0.015 A 
ATOM     16  C   UNL     1      -1.417   0.766  -4.115  0.00  0.00    +0.023 A 
ATOM     17  C   UNL     1      -2.383   1.730  -4.391  0.00  0.00    +0.026 A 
ATOM     18  C   UNL     1      -3.362   2.026  -3.453  0.00  0.00    +0.046 A 
ATOM     19  C   UNL     1      -3.384   1.358  -2.239  0.00  0.00    +0.037 A 
BRANCH  19  20
ATOM     20  N   UNL     1      -4.368   1.649  -1.298  0.00  0.00    -0.357 N 
ATOM     21  H   UNL     1      -4.425   1.132  -0.479  0.00  0.00    +0.142 HD
ATOM     22  H   UNL     1      -4.998   2.369  -1.461  0.00  0.00    +0.142 HD
ENDBRANCH  19  20
BRANCH  17  23
ATOM     23  N   UNL     1      -2.367   2.400  -5.613  0.00  0.00    -0.358 N 
ATOM     24  H   UNL     1      -1.683   2.195  -6.270  0.00  0.00    +0.142 HD
ATOM     25  H   UNL     1      -3.039   3.072  -5.807  0.00  0.00    +0.142 HD
ENDBRANCH  17  23
ENDBRANCH   2  14
TORSDOF 4
