REMARK  Name = ZINC08876387
REMARK  7 active torsions:
REMARK  status: ('A' for Active; 'I' for Inactive)
REMARK    1  A    between atoms: C_1  and  C_2
REMARK    2  A    between atoms: C_2  and  N_58
REMARK    3  A    between atoms: C_15  and  C_17
REMARK    4  A    between atoms: C_18  and  O_34
REMARK    5  A    between atoms: N_23  and  C_26
REMARK    6  A    between atoms: C_29  and  C_33
REMARK    7  A    between atoms: C_30  and  C_32
REMARK                            x       y       z     vdW  Elec       q    Type
REMARK                         _______ _______ _______ _____ _____    ______ ____
ROOT
ATOM      1  C   UNL     1       4.734   3.958   0.079  0.00  0.00    +0.069 A 
ATOM      2  C   UNL     1       4.688   5.317  -0.018  0.00  0.00    +0.201 A 
ATOM      3  N   UNL     1       3.472   5.947  -0.105  0.00  0.00    -0.278 N 
ATOM      4  H   UNL     1       3.434   6.913  -0.174  0.00  0.00    +0.173 HD
ATOM      5  C   UNL     1       2.332   5.231  -0.095  0.00  0.00    +0.336 A 
ATOM      6  O   UNL     1       1.264   5.807  -0.173  0.00  0.00    -0.246 OA
ATOM      7  N   UNL     1       2.357   3.889  -0.001  0.00  0.00    -0.229 N 
ATOM      8  C   UNL     1       3.530   3.232   0.092  0.00  0.00    +0.267 A 
ATOM      9  O   UNL     1       3.547   2.017   0.183  0.00  0.00    -0.267 OA
ENDROOT
BRANCH   1  22
ATOM     10  C   UNL     1       7.249   1.504   1.385  0.00  0.00    -0.073 C 
ATOM     11  C   UNL     1       7.118   0.432   0.294  0.00  0.00    +0.019 C 
ATOM     12  C   UNL     1       6.739   1.121  -0.993  0.00  0.00    -0.022 A 
ATOM     13  C   UNL     1       6.796   0.625  -2.350  0.00  0.00    +0.003 A 
ATOM     14  C   UNL     1       7.199  -0.597  -2.899  0.00  0.00    +0.010 A 
ATOM     15  C   UNL     1       7.119  -0.721  -4.264  0.00  0.00    +0.001 A 
ATOM     16  C   UNL     1       6.662   0.308  -5.071  0.00  0.00    +0.002 A 
ATOM     17  C   UNL     1       6.257   1.527  -4.555  0.00  0.00    +0.026 A 
ATOM     18  C   UNL     1       6.327   1.682  -3.172  0.00  0.00    +0.047 A 
ATOM     19  N   UNL     1       6.015   2.728  -2.351  0.00  0.00    -0.359 N 
ATOM     20  H   UNL     1       5.669   3.585  -2.647  0.00  0.00    +0.166 HD
ATOM     21  C   UNL     1       6.263   2.386  -1.050  0.00  0.00    +0.011 A 
ATOM     22  C   UNL     1       6.058   3.244   0.176  0.00  0.00    +0.021 C 
ATOM     23  N   UNL     1       6.037   2.355   1.361  0.00  0.00    +0.388 N 
ATOM     24  H   UNL     1       5.208   1.751   1.310  0.00  0.00    -0.080 HD
BRANCH  23  26
ATOM     25  C   UNL     1       5.724   2.227   3.783  0.00  0.00    -0.017 C 
ATOM     26  C   UNL     1       5.966   3.162   2.597  0.00  0.00    -0.081 C 
ENDBRANCH  23  26
ENDBRANCH   1  22
BRANCH   7  27
ATOM     27  C   UNL     1       1.155   3.170   0.008  0.00  0.00    +0.055 A 
ATOM     28  C   UNL     1       0.601   2.727  -1.186  0.00  0.00    +0.027 A 
ATOM     29  C   UNL     1      -0.585   2.019  -1.175  0.00  0.00    +0.005 A 
ATOM     30  C   UNL     1      -1.223   1.756   0.023  0.00  0.00    -0.047 A 
ATOM     31  C   UNL     1      -0.672   2.191   1.214  0.00  0.00    -0.046 A 
ATOM     32  C   UNL     1       0.514   2.900   1.209  0.00  0.00    +0.030 A 
ATOM     33  C   UNL     1      -1.367   1.896   2.518  0.00  0.00    +0.044 C 
ATOM     34  C   UNL     1      -2.520   0.988   0.031  0.00  0.00    +0.044 C 
ENDBRANCH   7  27
BRANCH   2  35
ATOM     35  O   UNL     1       5.829   6.038  -0.028  0.00  0.00    -0.493 OA
ATOM     36  H   UNL     1       5.691   6.992  -0.099  0.00  0.00    +0.294 HD
ENDBRANCH   2  35
TORSDOF 4
