REMARK  Name = ZINC04296148
REMARK  8 active torsions:
REMARK  status: ('A' for Active; 'I' for Inactive)
REMARK    1  A    between atoms: C_1  and  C_2
REMARK    2  A    between atoms: C_6  and  N_8
REMARK    3  A    between atoms: C_9  and  C_11
REMARK    4  A    between atoms: N_13  and  N_14
REMARK    5  A    between atoms: C_15  and  C_16
REMARK    6  A    between atoms: C_25  and  O_26
REMARK    7  A    between atoms: O_26  and  C_27
REMARK    8  A    between atoms: C_27  and  C_29
REMARK                            x       y       z     vdW  Elec       q    Type
REMARK                         _______ _______ _______ _____ _____    ______ ____
ROOT
ATOM      1  C   UNL     1       3.286  11.807   1.371  0.00  0.00    +0.045 A 
ATOM      2  C   UNL     1       4.396  12.749   1.506  0.00  0.00    -0.006 A 
ATOM      3  C   UNL     1       5.724  12.309   1.552  0.00  0.00    +0.009 A 
ATOM      4  C   UNL     1       6.732  13.219   1.677  0.00  0.00    +0.001 A 
ATOM      5  C   UNL     1       6.457  14.582   1.761  0.00  0.00    +0.001 A 
ATOM      6  C   UNL     1       5.177  15.044   1.719  0.00  0.00    +0.008 A 
ATOM      7  C   UNL     1       4.114  14.133   1.591  0.00  0.00    -0.017 A 
ATOM      8  C   UNL     1       2.779  14.573   1.544  0.00  0.00    +0.012 A 
ATOM      9  C   UNL     1       1.758  13.685   1.417  0.00  0.00    +0.047 A 
ATOM     10  C   UNL     1       1.985  12.312   1.325  0.00  0.00    +0.141 A 
ENDROOT
BRANCH   1  12
ATOM     11  N   UNL     1       2.542   9.544   1.079  0.00  0.00    -0.187 NA
ATOM     12  C   UNL     1       3.533  10.363   1.280  0.00  0.00    +0.142 C 
BRANCH  11  15
ATOM     13  C   UNL     1       1.727   7.312   0.938  0.00  0.00    +0.318 C 
ATOM     14  O   UNL     1       0.614   7.745   0.717  0.00  0.00    -0.263 OA
ATOM     15  N   UNL     1       2.763   8.161   1.086  0.00  0.00    -0.199 N 
ATOM     16  H   UNL     1       3.662   7.814   1.198  0.00  0.00    +0.178 HD
BRANCH  13  18
ATOM     17  N   UNL     1       0.911   4.992   0.894  0.00  0.00    -0.278 N 
ATOM     18  C   UNL     1       1.947   5.841   1.044  0.00  0.00    +0.305 C 
ATOM     19  O   UNL     1       3.060   5.409   1.264  0.00  0.00    -0.265 OA
ATOM     20  H   UNL     1       0.039   5.331   0.638  0.00  0.00    +0.155 HD
BRANCH  17  26
ATOM     21  C   UNL     1       3.259   1.349   3.213  0.00  0.00    +0.044 C 
ATOM     22  C   UNL     1       2.224   1.829   2.227  0.00  0.00    -0.049 A 
ATOM     23  C   UNL     1       1.454   0.913   1.533  0.00  0.00    +0.003 A 
ATOM     24  C   UNL     1       0.500   1.349   0.632  0.00  0.00    +0.002 A 
ATOM     25  C   UNL     1       0.317   2.701   0.418  0.00  0.00    +0.023 A 
ATOM     26  C   UNL     1       1.093   3.623   1.109  0.00  0.00    +0.034 A 
ATOM     27  C   UNL     1       2.051   3.182   2.014  0.00  0.00    +0.026 A 
ENDBRANCH  17  26
ENDBRANCH  13  18
ENDBRANCH  11  15
ENDBRANCH   1  12
BRANCH  10  28
ATOM     28  O   UNL     1       0.935  11.462   1.194  0.00  0.00    -0.422 OA
BRANCH  28  29
ATOM     29  C   UNL     1       0.427  10.938   2.327  0.00  0.00    +0.344 C 
ATOM     30  O   UNL     1       0.957  11.173   3.395  0.00  0.00    -0.245 OA
BRANCH  29  31
ATOM     31  C   UNL     1      -0.773  10.081   2.270  0.00  0.00    +0.059 A 
ATOM     32  C   UNL     1      -1.376   9.799   1.042  0.00  0.00    +0.016 A 
ATOM     33  C   UNL     1      -2.493   8.992   0.996  0.00  0.00    +0.021 A 
ATOM     34  C   UNL     1      -3.025   8.471   2.164  0.00  0.00    +0.041 A 
ATOM     35  C   UNL     1      -2.434   8.752   3.385  0.00  0.00    +0.021 A 
ATOM     36  C   UNL     1      -1.313   9.552   3.445  0.00  0.00    +0.016 A 
ATOM     37 CL   UNL     1      -4.436   7.462   2.097  0.00  0.00    -0.084 Cl
ENDBRANCH  29  31
ENDBRANCH  28  29
ENDBRANCH  10  28
TORSDOF 7
