REMARK  Name = ZINC36307335
REMARK  17 active torsions:
REMARK  status: ('A' for Active; 'I' for Inactive)
REMARK    1  A    between atoms: C_1  and  C_2
REMARK    2  A    between atoms: C_2  and  C_3
REMARK    3  A    between atoms: C_2  and  C_4
REMARK    4  A    between atoms: C_2  and  O_5
REMARK    5  A    between atoms: O_5  and  C_6
REMARK    6  A    between atoms: C_6  and  C_7
REMARK    7  A    between atoms: C_7  and  C_9
REMARK    8  A    between atoms: C_7  and  O_36
REMARK    9  A    between atoms: C_9  and  N_10
REMARK   10  A    between atoms: N_10  and  C_11
REMARK   11  A    between atoms: N_10  and  C_32
REMARK   12  A    between atoms: C_11  and  C_12
REMARK   13  A    between atoms: C_13  and  C_26
REMARK   14  A    between atoms: N_15  and  C_25
REMARK   15  A    between atoms: C_16  and  O_17
REMARK   16  A    between atoms: O_17  and  C_18
REMARK   17  A    between atoms: C_32  and  C_33
REMARK                            x       y       z     vdW  Elec       q    Type
REMARK                         _______ _______ _______ _____ _____    ______ ____
ROOT
ATOM      1  C   UNL     1       6.633  -0.613  -2.418  0.00  0.00    +0.025 A 
ATOM      2  C   UNL     1       7.214  -1.890  -2.522  0.00  0.00    +0.098 A 
ATOM      3  N   UNL     1       7.778  -2.179  -1.369  0.00  0.00    -0.168 NA
ATOM      4  N   UNL     1       7.575  -1.100  -0.498  0.00  0.00    -0.235 N 
ATOM      5  C   UNL     1       6.875  -0.147  -1.166  0.00  0.00    +0.221 A 
ATOM      6  C   UNL     1       8.041  -1.013   0.888  0.00  0.00    +0.176 C 
ENDROOT
BRANCH   2   7
ATOM      7  C   UNL     1       7.195  -2.761  -3.724  0.00  0.00    +0.002 A 
ATOM      8  C   UNL     1       6.025  -2.899  -4.468  0.00  0.00    +0.010 A 
ATOM      9  C   UNL     1       6.013  -3.710  -5.585  0.00  0.00    +0.001 A 
ATOM     10  C   UNL     1       7.159  -4.384  -5.966  0.00  0.00    +0.000 A 
ATOM     11  C   UNL     1       8.322  -4.251  -5.231  0.00  0.00    +0.001 A 
ATOM     12  C   UNL     1       8.348  -3.438  -4.116  0.00  0.00    +0.010 A 
ENDBRANCH   2   7
BRANCH   1  13
ATOM     13  C   UNL     1       5.882   0.113  -3.505  0.00  0.00    -0.035 C 
BRANCH  13  14
ATOM     14  N   UNL     1       4.442  -0.136  -3.355  0.00  0.00    +0.384 N 
ATOM     15  H   UNL     1       4.272  -1.130  -3.337  0.00  0.00    -0.081 HD
BRANCH  14  16
ATOM     16  C   UNL     1       3.970   0.464  -2.100  0.00  0.00    -0.044 C 
BRANCH  16  17
ATOM     17  C   UNL     1       2.500   0.100  -1.881  0.00  0.00    +0.124 C 
BRANCH  17  18
ATOM     18  O   UNL     1       2.382  -1.312  -1.694  0.00  0.00    -0.391 OA
ATOM     19  H   UNL     1       2.876  -1.650  -0.934  0.00  0.00    +0.210 HD
ENDBRANCH  17  18
BRANCH  17  20
ATOM     20  C   UNL     1       1.974   0.825  -0.641  0.00  0.00    +0.189 C 
BRANCH  20  21
ATOM     21  O   UNL     1       0.573   0.578  -0.504  0.00  0.00    -0.372 OA
BRANCH  21  23
ATOM     22  C   UNL     1       0.162   2.729   0.519  0.00  0.00    +0.041 C 
ATOM     23  C   UNL     1      -0.021   1.214   0.630  0.00  0.00    +0.061 C 
ATOM     24  C   UNL     1       0.654   0.711   1.908  0.00  0.00    +0.041 C 
ATOM     25  C   UNL     1      -1.513   0.882   0.677  0.00  0.00    +0.041 C 
ENDBRANCH  21  23
ENDBRANCH  20  21
ENDBRANCH  17  20
ENDBRANCH  16  17
ENDBRANCH  14  16
BRANCH  14  26
ATOM     26  C   UNL     1       3.721   0.464  -4.486  0.00  0.00    -0.075 C 
BRANCH  26  27
ATOM     27  C   UNL     1       4.130  -0.238  -5.782  0.00  0.00    -0.028 C 
ATOM     28  C   UNL     1       4.872   0.592  -6.831  0.00  0.00    +0.002 C 
ATOM     29  C   UNL     1       3.417   0.182  -7.069  0.00  0.00    +0.002 C 
ENDBRANCH  26  27
ENDBRANCH  14  26
ENDBRANCH  13  14
ENDBRANCH   1  13
BRANCH   5  30
ATOM     30  O   UNL     1       6.483   1.054  -0.669  0.00  0.00    -0.438 OA
BRANCH  30  31
ATOM     31  C   UNL     1       7.324   2.110  -0.817  0.00  0.00    +0.133 A 
ATOM     32  C   UNL     1       8.493   1.970  -1.553  0.00  0.00    +0.046 A 
ATOM     33  C   UNL     1       9.347   3.045  -1.703  0.00  0.00    +0.006 A 
ATOM     34  C   UNL     1       9.041   4.261  -1.120  0.00  0.00    +0.038 A 
ATOM     35  C   UNL     1       7.876   4.404  -0.384  0.00  0.00    +0.127 A 
ATOM     36  C   UNL     1       7.014   3.331  -0.237  0.00  0.00    +0.084 A 
ATOM     37  F   UNL     1       7.579   5.592   0.185  0.00  0.00    -0.205 F 
ENDBRANCH  30  31
ENDBRANCH   5  30
TORSDOF 13
