REMARK  Name = ZINC15162719
REMARK  9 active torsions:
REMARK  status: ('A' for Active; 'I' for Inactive)
REMARK    1  A    between atoms: C_4  and  C_7
REMARK    2  A    between atoms: C_7  and  C_8
REMARK    3  A    between atoms: C_8  and  C_9
REMARK    4  A    between atoms: C_9  and  N_10
REMARK    5  A    between atoms: C_13  and  C_24
REMARK    6  A    between atoms: N_17  and  C_18
REMARK    7  A    between atoms: C_24  and  C_25
REMARK    8  A    between atoms: N_27  and  C_28
REMARK    9  A    between atoms: C_33  and  N_34
REMARK                            x       y       z     vdW  Elec       q    Type
REMARK                         _______ _______ _______ _____ _____    ______ ____
ROOT
ATOM      1  N   UNL     1       2.441   5.183   1.083  0.00  0.00    -0.250 N 
ATOM      2  C   UNL     1       2.275   4.419   0.017  0.00  0.00    +0.235 C 
ATOM      3  O   UNL     1       3.094   4.371  -0.875  0.00  0.00    -0.274 OA
ATOM      4  C   UNL     1       0.991   3.605  -0.020  0.00  0.00    +0.149 C 
ATOM      5  S   UNL     1       0.228   4.120   1.569  0.00  0.00    -0.077 S 
ATOM      6  C   UNL     1       1.513   5.242   2.101  0.00  0.00    +0.164 C 
ATOM      7  N   UNL     1       1.561   5.955   3.202  0.00  0.00    -0.226 NA
ENDROOT
BRANCH   7   8
ATOM      8  C   UNL     1       0.537   5.885   4.109  0.00  0.00    +0.067 A 
ATOM      9  C   UNL     1      -0.789   5.938   3.674  0.00  0.00    +0.028 A 
ATOM     10  C   UNL     1      -1.816   5.862   4.592  0.00  0.00    +0.002 A 
ATOM     11  C   UNL     1      -1.534   5.746   5.941  0.00  0.00    +0.000 A 
ATOM     12  C   UNL     1      -0.223   5.698   6.380  0.00  0.00    +0.002 A 
ATOM     13  C   UNL     1       0.814   5.768   5.472  0.00  0.00    +0.028 A 
ENDBRANCH   7   8
BRANCH   1  14
ATOM     14  C   UNL     1       3.656   5.995   1.188  0.00  0.00    +0.116 C 
BRANCH  14  15
ATOM     15  C   UNL     1       4.748   5.192   1.897  0.00  0.00    +0.024 C 
BRANCH  15  16
ATOM     16  C   UNL     1       6.016   6.040   2.006  0.00  0.00    +0.036 C 
BRANCH  16  20
ATOM     17  C   UNL     1       9.064   3.797   3.988  0.00  0.00    +0.000 A 
ATOM     18  C   UNL     1       8.945   3.736   2.612  0.00  0.00    +0.000 A 
ATOM     19  C   UNL     1       7.959   4.462   1.971  0.00  0.00    +0.003 A 
ATOM     20  C   UNL     1       7.091   5.249   2.705  0.00  0.00    -0.047 A 
ATOM     21  C   UNL     1       7.214   5.314   4.080  0.00  0.00    +0.003 A 
ATOM     22  C   UNL     1       8.198   4.585   4.722  0.00  0.00    +0.000 A 
ENDBRANCH  16  20
ENDBRANCH  15  16
ENDBRANCH  14  15
ENDBRANCH   1  14
BRANCH   4  23
ATOM     23  C   UNL     1       1.287   2.104  -0.032  0.00  0.00    +0.120 C 
BRANCH  23  24
ATOM     24  C   UNL     1      -0.009   1.337  -0.005  0.00  0.00    +0.219 C 
ATOM     25  O   UNL     1      -1.066   1.932   0.017  0.00  0.00    -0.275 OA
ATOM     26  N   UNL     1       0.005  -0.011  -0.010  0.00  0.00    -0.284 N 
ATOM     27  H   UNL     1       0.846  -0.487  -0.096  0.00  0.00    +0.155 HD
BRANCH  26  28
ATOM     28  C   UNL     1      -1.193  -0.724   0.109  0.00  0.00    +0.064 A 
ATOM     29  C   UNL     1      -2.356  -0.232  -0.468  0.00  0.00    +0.025 A 
ATOM     30  C   UNL     1      -3.536  -0.940  -0.353  0.00  0.00    +0.002 A 
ATOM     31  C   UNL     1      -3.562  -2.133   0.346  0.00  0.00    +0.002 A 
ATOM     32  C   UNL     1      -2.407  -2.624   0.926  0.00  0.00    +0.034 A 
ATOM     33  C   UNL     1      -1.223  -1.922   0.810  0.00  0.00    +0.147 A 
BRANCH  33  34
ATOM     34  N   UNL     1       0.013  -2.447   1.433  0.00  0.00    +0.058 N 
ATOM     35  O   UNL     1       0.010  -3.544   1.963  0.00  0.00    -0.126 OA
ATOM     36  O   UNL     1       1.034  -1.783   1.414  0.00  0.00    -0.126 OA
ENDBRANCH  33  34
ENDBRANCH  26  28
ENDBRANCH  23  24
ENDBRANCH   4  23
TORSDOF 9
