REMARK  Name = ZINC49573675
REMARK  10 active torsions:
REMARK  status: ('A' for Active; 'I' for Inactive)
REMARK    1  A    between atoms: C_1  and  C_2
REMARK    2  A    between atoms: C_2  and  C_3
REMARK    3  A    between atoms: C_4  and  O_38
REMARK    4  A    between atoms: C_7  and  C_9
REMARK    5  A    between atoms: N_10  and  C_11
REMARK    6  A    between atoms: C_11  and  C_12
REMARK    7  A    between atoms: C_12  and  C_14
REMARK    8  A    between atoms: C_14  and  O_37
REMARK    9  A    between atoms: C_19  and  C_36
REMARK   10  A    between atoms: C_34  and  C_35
REMARK                            x       y       z     vdW  Elec       q    Type
REMARK                         _______ _______ _______ _____ _____    ______ ____
ROOT
ATOM      1  C   UNL     1       6.727  -1.391  -5.209  0.00  0.00    +0.131 C 
ATOM      2  C   UNL     1       6.293  -0.566  -6.447  0.00  0.00    +0.043 C 
ATOM      3  C   UNL     1       7.559   0.201  -6.926  0.00  0.00    +0.008 C 
ATOM      4  C   UNL     1       8.692  -0.655  -6.332  0.00  0.00    +0.002 C 
ATOM      5  C   UNL     1       8.161  -0.909  -4.904  0.00  0.00    +0.007 C 
ATOM      6  C   UNL     1       9.029  -1.921  -4.200  0.00  0.00    +0.010 C 
ATOM      7  C   UNL     1      10.516  -1.661  -4.466  0.00  0.00    +0.005 C 
ATOM      8  C   UNL     1      10.789  -0.269  -5.015  0.00  0.00    +0.002 C 
ATOM      9  C   UNL     1      10.062  -0.043  -6.338  0.00  0.00    -0.003 C 
ATOM     10  C   UNL     1      10.056   1.430  -6.724  0.00  0.00    +0.008 C 
ATOM     11  C   UNL     1      11.390   2.082  -6.353  0.00  0.00    +0.032 C 
ATOM     12  C   UNL     1      12.455   1.013  -6.284  0.00  0.00    -0.060 C 
ATOM     13  C   UNL     1      13.497   1.039  -7.105  0.00  0.00    +0.046 C 
ATOM     14  C   UNL     1      14.529   0.007  -7.054  0.00  0.00    +0.156 C 
ATOM     15  O   UNL     1      15.501   0.090  -7.778  0.00  0.00    -0.293 OA
ATOM     16  C   UNL     1      14.392  -1.161  -6.112  0.00  0.00    +0.080 C 
ATOM     17  C   UNL     1      12.918  -1.376  -5.762  0.00  0.00    +0.019 C 
ATOM     18  C   UNL     1      12.298  -0.080  -5.253  0.00  0.00    -0.007 C 
ATOM     19  C   UNL     1      12.960   0.351  -3.943  0.00  0.00    +0.016 C 
ATOM     20  C   UNL     1       8.032   0.373  -4.082  0.00  0.00    +0.015 C 
ENDROOT
BRANCH   1  21
ATOM     21  C   UNL     1       5.830  -1.094  -4.039  0.00  0.00    +0.184 C 
ATOM     22  O   UNL     1       5.223  -0.051  -3.993  0.00  0.00    -0.292 OA
BRANCH  21  23
ATOM     23  C   UNL     1       5.687  -2.099  -2.925  0.00  0.00    +0.190 C 
BRANCH  23  31
ATOM     24  C   UNL     1       1.551  -2.409  -0.433  0.00  0.00    +0.060 A 
ATOM     25  C   UNL     1       2.725  -1.762  -0.603  0.00  0.00    +0.159 A 
ATOM     26  C   UNL     1       3.605  -2.180  -1.703  0.00  0.00    +0.081 A 
ATOM     27  C   UNL     1       3.173  -3.249  -2.537  0.00  0.00    +0.050 A 
ATOM     28  C   UNL     1       1.986  -3.835  -2.292  0.00  0.00    +0.015 A 
ATOM     29  N   UNL     1       1.196  -3.432  -1.264  0.00  0.00    -0.359 N 
ATOM     30  C   UNL     1       1.528  -4.968  -3.174  0.00  0.00    +0.063 C 
ATOM     31  N   UNL     1       4.764  -1.579  -1.913  0.00  0.00    -0.375 N 
ATOM     32  H   UNL     1       5.004  -0.793  -1.397  0.00  0.00    +0.160 HD
ATOM     33  H   UNL     1       0.350  -3.883  -1.118  0.00  0.00    +0.165 HD
BRANCH  24  35
ATOM     34  C   UNL     1      -0.414  -1.017   0.157  0.00  0.00    +0.010 C 
ATOM     35  C   UNL     1       0.629  -2.002   0.687  0.00  0.00    +0.053 C 
ENDBRANCH  24  35
BRANCH  25  36
ATOM     36  O   UNL     1       3.084  -0.745   0.227  0.00  0.00    -0.503 OA
ATOM     37  H   UNL     1       3.942  -0.351   0.018  0.00  0.00    +0.292 HD
ENDBRANCH  25  36
ENDBRANCH  23  31
ENDBRANCH  21  23
ENDBRANCH   1  21
BRANCH   1  38
ATOM     38  O   UNL     1       6.727  -2.783  -5.513  0.00  0.00    -0.380 OA
ATOM     39  H   UNL     1       5.854  -3.138  -5.732  0.00  0.00    +0.211 HD
ENDBRANCH   1  38
TORSDOF 6
