REMARK  Name = ZINC16921866
REMARK  3 active torsions:
REMARK  status: ('A' for Active; 'I' for Inactive)
REMARK    1  A    between atoms: C_10  and  N_16
REMARK    2  A    between atoms: C_13  and  O_15
REMARK    3  A    between atoms: C_17  and  C_18
REMARK                            x       y       z     vdW  Elec       q    Type
REMARK                         _______ _______ _______ _____ _____    ______ ____
ROOT
ATOM      1  C   UNL     1       9.490  -4.069  -0.149  0.00  0.00    +0.001 A 
ATOM      2  C   UNL     1       9.201  -5.016   0.818  0.00  0.00    +0.000 A 
ATOM      3  C   UNL     1       7.963  -5.020   1.436  0.00  0.00    +0.007 A 
ATOM      4  C   UNL     1       7.015  -4.081   1.090  0.00  0.00    -0.007 A 
ATOM      5  C   UNL     1       7.296  -3.125   0.118  0.00  0.00    -0.012 A 
ATOM      6  C   UNL     1       8.548  -3.126  -0.502  0.00  0.00    +0.009 A 
ATOM      7  C   UNL     1       6.117  -2.243  -0.065  0.00  0.00    -0.011 A 
ATOM      8  C   UNL     1       5.911  -1.151  -0.913  0.00  0.00    +0.011 A 
ATOM      9  C   UNL     1       4.710  -0.482  -0.899  0.00  0.00    +0.028 A 
ATOM     10  C   UNL     1       3.689  -0.892  -0.036  0.00  0.00    +0.064 A 
ATOM     11  C   UNL     1       3.896  -1.981   0.816  0.00  0.00    +0.034 A 
ATOM     12  C   UNL     1       5.098  -2.650   0.794  0.00  0.00    -0.005 A 
ATOM     13  C   UNL     1       5.607  -3.837   1.575  0.00  0.00    +0.176 C 
ENDROOT
BRANCH  13  14
ATOM     14  O   UNL     1       5.613  -3.543   2.973  0.00  0.00    -0.382 OA
ATOM     15  H   UNL     1       5.958  -4.258   3.524  0.00  0.00    +0.211 HD
ENDBRANCH  13  14
BRANCH  10  16
ATOM     16  N   UNL     1       2.494  -0.227  -0.022  0.00  0.00    -0.255 NA
ATOM     17  C   UNL     1       2.474   1.077  -0.015  0.00  0.00    +0.119 C 
BRANCH  17  18
ATOM     18  C   UNL     1       1.189   1.792   0.000  0.00  0.00    -0.003 A 
ATOM     19  C   UNL     1      -0.013   1.076   0.008  0.00  0.00    +0.013 A 
ATOM     20  C   UNL     1      -1.215   1.748   0.017  0.00  0.00    +0.050 A 
ATOM     21  C   UNL     1      -1.239   3.137   0.031  0.00  0.00    +0.166 A 
ATOM     22  C   UNL     1      -0.044   3.858   0.023  0.00  0.00    +0.167 A 
ATOM     23  C   UNL     1       1.165   3.191   0.008  0.00  0.00    +0.059 A 
ATOM     24  O   UNL     1      -0.340   5.191   0.033  0.00  0.00    -0.453 OA
ATOM     25  C   UNL     1      -1.721   5.280  -0.367  0.00  0.00    +0.466 C 
ATOM     26  O   UNL     1      -2.279   4.019   0.045  0.00  0.00    -0.453 OA
ENDBRANCH  17  18
ENDBRANCH  10  16
TORSDOF 3
