REMARK  Name = ZINC44908349
REMARK  12 active torsions:
REMARK  status: ('A' for Active; 'I' for Inactive)
REMARK    1  A    between atoms: C_1  and  C_2
REMARK    2  A    between atoms: C_2  and  C_3
REMARK    3  A    between atoms: N_9  and  C_10
REMARK    4  A    between atoms: C_10  and  C_11
REMARK    5  A    between atoms: C_11  and  C_12
REMARK    6  A    between atoms: C_12  and  N_13
REMARK    7  A    between atoms: C_14  and  C_16
REMARK    8  A    between atoms: C_20  and  C_22
REMARK    9  A    between atoms: C_22  and  N_23
REMARK   10  A    between atoms: N_26  and  S_29
REMARK   11  A    between atoms: S_29  and  C_32
REMARK   12  A    between atoms: C_35  and  C_38
REMARK                            x       y       z     vdW  Elec       q    Type
REMARK                         _______ _______ _______ _____ _____    ______ ____
ROOT
ATOM      1  C   UNL     1      -4.218   4.751  -6.103  0.00  0.00    +0.037 A 
ATOM      2  C   UNL     1      -4.667   3.704  -6.909  0.00  0.00    +0.013 A 
ATOM      3  C   UNL     1      -5.263   3.978  -8.122  0.00  0.00    +0.001 A 
ATOM      4  C   UNL     1      -5.416   5.288  -8.541  0.00  0.00    +0.005 A 
ATOM      5  C   UNL     1      -4.974   6.331  -7.746  0.00  0.00    -0.033 A 
ATOM      6  C   UNL     1      -4.381   6.070  -6.528  0.00  0.00    +0.018 A 
ENDROOT
BRANCH   1   8
ATOM      7  N   UNL     1      -3.423   3.189  -4.393  0.00  0.00    -0.311 N 
ATOM      8  C   UNL     1      -3.578   4.464  -4.801  0.00  0.00    +0.244 C 
ATOM      9  O   UNL     1      -3.193   5.378  -4.099  0.00  0.00    -0.270 OA
ATOM     10  H   UNL     1      -3.730   2.459  -4.954  0.00  0.00    +0.149 HD
BRANCH   7  11
ATOM     11  C   UNL     1      -2.789   2.905  -3.103  0.00  0.00    +0.102 C 
BRANCH  11  12
ATOM     12  C   UNL     1      -2.736   1.391  -2.884  0.00  0.00    +0.000 C 
BRANCH  12  13
ATOM     13  C   UNL     1      -2.074   1.094  -1.537  0.00  0.00    -0.077 C 
BRANCH  13  19
ATOM     14  C   UNL     1      -1.287  -0.646  -0.089  0.00  0.00    -0.069 C 
ATOM     15  C   UNL     1      -1.161  -2.161   0.093  0.00  0.00    -0.015 C 
ATOM     16  C   UNL     1      -2.561  -2.777   0.175  0.00  0.00    -0.003 C 
ATOM     17  C   UNL     1      -3.345  -2.408  -1.087  0.00  0.00    -0.019 C 
ATOM     18  C   UNL     1      -3.390  -0.884  -1.225  0.00  0.00    -0.078 C 
ATOM     19  N   UNL     1      -2.023  -0.358  -1.326  0.00  0.00    +0.382 N 
ATOM     20  H   UNL     1      -1.553  -0.793  -2.105  0.00  0.00    -0.081 HD
BRANCH  14  22
ATOM     21  C   UNL     1       0.845  -0.248   1.152  0.00  0.00    +0.002 C 
ATOM     22  C   UNL     1       0.109  -0.025  -0.171  0.00  0.00    -0.019 C 
ENDBRANCH  14  22
ENDBRANCH  13  19
ENDBRANCH  12  13
ENDBRANCH  11  12
ENDBRANCH   7  11
ENDBRANCH   1   8
BRANCH   5  23
ATOM     23  C   UNL     1      -5.144   7.754  -8.210  0.00  0.00    +0.119 C 
BRANCH  23  24
ATOM     24  N   UNL     1      -6.437   8.270  -7.742  0.00  0.00    -0.296 NA
ATOM     25  C   UNL     1      -7.551   7.553  -8.375  0.00  0.00    +0.102 C 
ATOM     26  C   UNL     1      -8.870   7.992  -7.730  0.00  0.00    +0.125 C 
ATOM     27  N   UNL     1      -8.957   9.459  -7.797  0.00  0.00    -0.174 NA
ATOM     28  C   UNL     1      -7.816  10.246  -7.305  0.00  0.00    +0.125 C 
ATOM     29  C   UNL     1      -6.539   9.719  -7.967  0.00  0.00    +0.102 C 
BRANCH  27  30
ATOM     30  S   UNL     1     -10.304  10.204  -8.408  0.00  0.00    +0.061 S 
ATOM     31  O   UNL     1      -9.890  11.489  -8.852  0.00  0.00    -0.153 OA
ATOM     32  O   UNL     1     -10.931   9.265  -9.271  0.00  0.00    -0.153 OA
BRANCH  30  33
ATOM     33  C   UNL     1     -11.410  10.468  -7.062  0.00  0.00    +0.105 A 
ATOM     34  C   UNL     1     -12.340   9.500  -6.732  0.00  0.00    +0.029 A 
ATOM     35  C   UNL     1     -13.207   9.707  -5.676  0.00  0.00    +0.005 A 
ATOM     36  C   UNL     1     -13.145  10.881  -4.950  0.00  0.00    -0.050 A 
ATOM     37  C   UNL     1     -12.214  11.849  -5.280  0.00  0.00    +0.005 A 
ATOM     38  C   UNL     1     -11.344  11.640  -6.333  0.00  0.00    +0.029 A 
ATOM     39  C   UNL     1     -14.091  11.107  -3.800  0.00  0.00    +0.044 C 
ENDBRANCH  30  33
ENDBRANCH  27  30
ENDBRANCH  23  24
ENDBRANCH   5  23
TORSDOF 10
