REMARK  Name = ZINC45528483
REMARK  6 active torsions:
REMARK  status: ('A' for Active; 'I' for Inactive)
REMARK    1  A    between atoms: C_4  and  O_7
REMARK    2  A    between atoms: O_7  and  C_8
REMARK    3  A    between atoms: C_8  and  C_9
REMARK    4  A    between atoms: C_12  and  C_14
REMARK    5  A    between atoms: N_16  and  N_17
REMARK    6  A    between atoms: C_18  and  C_20
REMARK                            x       y       z     vdW  Elec       q    Type
REMARK                         _______ _______ _______ _____ _____    ______ ____
ROOT
ATOM      1  C   UNL     1       7.925  -3.792  -1.708  0.00  0.00    +0.295 C 
ATOM      2  O   UNL     1       8.976  -4.212  -1.261  0.00  0.00    -0.265 OA
ATOM      3  N   UNL     1       7.744  -3.712  -3.042  0.00  0.00    -0.228 N 
ATOM      4  H   UNL     1       6.906  -3.377  -3.398  0.00  0.00    +0.173 HD
ENDROOT
BRANCH   1   8
ATOM      5  C   UNL     1       4.932  -2.615  -0.061  0.00  0.00    +0.143 A 
ATOM      6  C   UNL     1       5.673  -2.917   1.028  0.00  0.00    +0.049 A 
ATOM      7  C   UNL     1       6.906  -3.403   0.567  0.00  0.00    +0.055 A 
ATOM      8  C   UNL     1       6.855  -3.373  -0.797  0.00  0.00    +0.191 A 
ATOM      9  O   UNL     1       5.646  -2.898  -1.159  0.00  0.00    -0.452 OA
BRANCH   5  10
ATOM     10  C   UNL     1       3.531  -2.060  -0.044  0.00  0.00    +0.303 C 
BRANCH  10  11
ATOM     11  O   UNL     1       3.586  -0.632  -0.037  0.00  0.00    -0.484 OA
BRANCH  11  15
ATOM     12  C   UNL     1      -0.017   1.378   0.010  0.00  0.00    +0.000 A 
ATOM     13  C   UNL     1       1.170   2.088   0.002  0.00  0.00    +0.004 A 
ATOM     14  C   UNL     1       2.377   1.417  -0.013  0.00  0.00    +0.045 A 
ATOM     15  C   UNL     1       2.399   0.030  -0.021  0.00  0.00    +0.121 A 
ATOM     16  C   UNL     1       1.207  -0.680  -0.013  0.00  0.00    +0.045 A 
ATOM     17  C   UNL     1       0.002  -0.004   0.002  0.00  0.00    +0.004 A 
ENDBRANCH  11  15
ENDBRANCH  10  11
ENDBRANCH   5  10
ENDBRANCH   1   8
BRANCH   3  18
ATOM     18  N   UNL     1       8.766  -4.111  -3.913  0.00  0.00    -0.229 N 
ATOM     19  C   UNL     1       8.585  -4.031  -5.246  0.00  0.00    +0.276 C 
ATOM     20  O   UNL     1       7.534  -3.611  -5.693  0.00  0.00    -0.267 OA
ATOM     21  H   UNL     1       9.604  -4.446  -3.556  0.00  0.00    +0.173 HD
BRANCH  19  22
ATOM     22  C   UNL     1       9.658  -4.450  -6.160  0.00  0.00    +0.104 A 
ATOM     23  C   UNL     1       9.597  -4.411  -7.517  0.00  0.00    +0.041 A 
ATOM     24  C   UNL     1      10.828  -4.898  -8.018  0.00  0.00    +0.002 A 
ATOM     25  C   UNL     1      11.332  -5.087  -9.312  0.00  0.00    +0.030 A 
ATOM     26  C   UNL     1      12.590  -5.590  -9.483  0.00  0.00    +0.042 A 
ATOM     27  C   UNL     1      13.377  -5.918  -8.384  0.00  0.00    +0.022 A 
ATOM     28  C   UNL     1      12.902  -5.741  -7.104  0.00  0.00    +0.027 A 
ATOM     29  C   UNL     1      11.623  -5.229  -6.904  0.00  0.00    +0.047 A 
ATOM     30  N   UNL     1      10.890  -4.942  -5.776  0.00  0.00    -0.351 N 
ATOM     31  H   UNL     1      11.189  -5.066  -4.862  0.00  0.00    +0.166 HD
ATOM     32 CL   UNL     1      13.213  -5.822 -11.086  0.00  0.00    -0.084 Cl
ENDBRANCH  19  22
ENDBRANCH   3  18
TORSDOF 6
