REMARK  Name = ZINC19849271
REMARK  9 active torsions:
REMARK  status: ('A' for Active; 'I' for Inactive)
REMARK    1  A    between atoms: C_1  and  C_2
REMARK    2  A    between atoms: C_5  and  N_8
REMARK    3  A    between atoms: C_9  and  C_28
REMARK    4  A    between atoms: C_12  and  S_13
REMARK    5  A    between atoms: S_13  and  C_14
REMARK    6  A    between atoms: C_14  and  C_15
REMARK    7  A    between atoms: N_17  and  N_18
REMARK    8  A    between atoms: C_19  and  C_20
REMARK    9  A    between atoms: C_19  and  C_21
REMARK                            x       y       z     vdW  Elec       q    Type
REMARK                         _______ _______ _______ _____ _____    ______ ____
ROOT
ATOM      1  N   UNL     1      -5.268   1.183  -4.508  0.00  0.00    -0.270 N 
ATOM      2  C   UNL     1      -5.954  -0.003  -4.661  0.00  0.00    +0.169 A 
ATOM      3  N   UNL     1      -5.273  -0.926  -4.022  0.00  0.00    -0.128 NA
ATOM      4  N   UNL     1      -4.223  -0.410  -3.491  0.00  0.00    -0.122 NA
ATOM      5  C   UNL     1      -4.166   0.875  -3.759  0.00  0.00    +0.197 A 
ENDROOT
BRANCH   1  10
ATOM      6  C   UNL     1      -6.708   6.271  -6.568  0.00  0.00    +0.044 C 
ATOM      7  C   UNL     1      -6.326   4.920  -6.021  0.00  0.00    -0.050 A 
ATOM      8  C   UNL     1      -5.177   4.294  -6.470  0.00  0.00    +0.005 A 
ATOM      9  C   UNL     1      -4.824   3.056  -5.970  0.00  0.00    +0.026 A 
ATOM     10  C   UNL     1      -5.624   2.439  -5.017  0.00  0.00    +0.051 A 
ATOM     11  C   UNL     1      -6.779   3.068  -4.573  0.00  0.00    +0.026 A 
ATOM     12  C   UNL     1      -7.124   4.309  -5.072  0.00  0.00    +0.005 A 
ENDBRANCH   1  10
BRANCH   2  13
ATOM     13  C   UNL     1      -7.218  -0.197  -5.401  0.00  0.00    +0.020 A 
ATOM     14  C   UNL     1      -7.673   0.785  -6.283  0.00  0.00    +0.013 A 
ATOM     15  C   UNL     1      -8.851   0.596  -6.974  0.00  0.00    +0.021 A 
ATOM     16  C   UNL     1      -9.589  -0.561  -6.787  0.00  0.00    +0.041 A 
ATOM     17  C   UNL     1      -9.146  -1.537  -5.910  0.00  0.00    +0.021 A 
ATOM     18  C   UNL     1      -7.966  -1.361  -5.217  0.00  0.00    +0.013 A 
ATOM     19 CL   UNL     1     -11.075  -0.789  -7.655  0.00  0.00    -0.084 Cl
ENDBRANCH   2  13
BRANCH   5  20
ATOM     20  S   UNL     1      -2.908   1.996  -3.241  0.00  0.00    -0.076 S 
BRANCH  20  21
ATOM     21  C   UNL     1      -1.842   0.865  -2.313  0.00  0.00    +0.174 C 
BRANCH  21  22
ATOM     22  C   UNL     1      -0.664   1.625  -1.760  0.00  0.00    +0.242 C 
ATOM     23  O   UNL     1      -0.556   2.814  -1.972  0.00  0.00    -0.273 OA
ATOM     24  N   UNL     1       0.269   0.983  -1.030  0.00  0.00    -0.206 N 
ATOM     25  H   UNL     1       0.169  -0.095  -0.834  0.00  0.00    +0.177 HD
BRANCH  24  26
ATOM     26  N   UNL     1       1.367   1.688  -0.521  0.00  0.00    -0.185 NA
ATOM     27  C   UNL     1       2.324   1.052   0.084  0.00  0.00    +0.063 C 
ATOM     28  C   UNL     1       3.409   1.821   0.793  0.00  0.00    +0.068 C 
BRANCH  27  29
ATOM     29  C   UNL     1       2.349  -0.422   0.075  0.00  0.00    -0.002 A 
ATOM     30  C   UNL     1       2.790  -1.122   1.201  0.00  0.00    +0.011 A 
ATOM     31  C   UNL     1       2.805  -2.501   1.189  0.00  0.00    +0.020 A 
ATOM     32  C   UNL     1       2.395  -3.192   0.061  0.00  0.00    +0.041 A 
ATOM     33  C   UNL     1       1.962  -2.503  -1.060  0.00  0.00    +0.020 A 
ATOM     34  C   UNL     1       1.936  -1.124  -1.060  0.00  0.00    +0.011 A 
ATOM     35 CL   UNL     1       2.424  -4.927   0.051  0.00  0.00    -0.084 Cl
ENDBRANCH  27  29
ENDBRANCH  24  26
ENDBRANCH  21  22
ENDBRANCH  20  21
ENDBRANCH   5  20
TORSDOF 7
