REMARK  Name = ZINC28390643
REMARK  6 active torsions:
REMARK  status: ('A' for Active; 'I' for Inactive)
REMARK    1  A    between atoms: C_3  and  C_6
REMARK    2  A    between atoms: C_12  and  N_15
REMARK    3  A    between atoms: N_16  and  C_17
REMARK    4  A    between atoms: C_17  and  C_18
REMARK    5  A    between atoms: N_23  and  C_24
REMARK    6  A    between atoms: C_24  and  C_25
REMARK                            x       y       z     vdW  Elec       q    Type
REMARK                         _______ _______ _______ _____ _____    ______ ____
ROOT
ATOM      1  C   UNL     1       3.926   1.276  -2.402  0.00  0.00    +0.219 A 
ATOM      2  N   UNL     1       3.053   2.268  -2.196  0.00  0.00    -0.186 NA
ATOM      3  C   UNL     1       1.893   1.766  -1.793  0.00  0.00    +0.257 A 
ATOM      4  N   UNL     1       0.730   2.342  -1.466  0.00  0.00    -0.196 NA
ATOM      5  C   UNL     1      -0.308   1.613  -1.085  0.00  0.00    +0.126 A 
ATOM      6  C   UNL     1      -0.204   0.216  -1.019  0.00  0.00    +0.087 A 
ATOM      7  C   UNL     1       0.981  -0.379  -1.351  0.00  0.00    +0.125 A 
ATOM      8  N   UNL     1       2.031   0.407  -1.739  0.00  0.00    -0.182 N 
ATOM      9  N   UNL     1       3.344   0.122  -2.135  0.00  0.00    -0.139 NA
ATOM     10  N   UNL     1      -1.502   2.231  -0.758  0.00  0.00    -0.330 N 
ATOM     11  H   UNL     1      -1.586   3.327  -0.809  0.00  0.00    +0.147 HD
ENDROOT
BRANCH   1  14
ATOM     12  C   UNL     1       7.251   2.321  -3.527  0.00  0.00    +0.042 A 
ATOM     13  C   UNL     1       5.933   2.627  -3.133  0.00  0.00    +0.053 A 
ATOM     14  C   UNL     1       5.322   1.445  -2.855  0.00  0.00    +0.173 A 
ATOM     15  O   UNL     1       6.213   0.455  -3.060  0.00  0.00    -0.460 OA
ATOM     16  C   UNL     1       7.378   0.980  -3.471  0.00  0.00    +0.196 A 
ENDBRANCH   1  14
BRANCH   7  17
ATOM     17  N   UNL     1       1.116  -1.749  -1.295  0.00  0.00    -0.343 N 
ATOM     18  H   UNL     1       2.073  -2.219  -1.565  0.00  0.00    +0.144 HD
ATOM     19  H   UNL     1       0.266  -2.373  -0.982  0.00  0.00    +0.144 HD
ENDBRANCH   7  17
BRANCH  10  20
ATOM     20  C   UNL     1      -2.654   1.427  -0.343  0.00  0.00    +0.088 C 
BRANCH  20  21
ATOM     21  C   UNL     1      -3.780   2.352   0.123  0.00  0.00    -0.051 C 
ATOM     22  C   UNL     1      -4.987   1.521   0.626  0.00  0.00    -0.016 C 
ATOM     23  C   UNL     1      -5.679   2.526   1.586  0.00  0.00    -0.020 C 
ATOM     24  C   UNL     1      -4.492   3.285   2.214  0.00  0.00    -0.078 C 
ATOM     25  N   UNL     1      -3.347   3.141   1.295  0.00  0.00    +0.385 N 
ATOM     26  H   UNL     1      -2.523   2.625   1.810  0.00  0.00    -0.081 HD
BRANCH  25  27
ATOM     27  C   UNL     1      -2.833   4.455   0.885  0.00  0.00    -0.040 C 
BRANCH  27  28
ATOM     28  C   UNL     1      -2.302   5.186   2.091  0.00  0.00    -0.024 A 
ATOM     29  C   UNL     1      -3.060   6.163   2.720  0.00  0.00    +0.062 A 
ATOM     30  C   UNL     1      -2.541   6.809   3.828  0.00  0.00    +0.131 A 
ATOM     31  N   UNL     1      -1.338   6.513   4.279  0.00  0.00    -0.260 NA
ATOM     32  C   UNL     1      -0.587   5.595   3.703  0.00  0.00    +0.131 A 
ATOM     33  C   UNL     1      -1.041   4.903   2.595  0.00  0.00    +0.062 A 
ATOM     34 CL   UNL     1      -0.045   3.696   1.843  0.00  0.00    -0.082 Cl
ATOM     35 CL   UNL     1      -4.643   6.564   2.130  0.00  0.00    -0.082 Cl
ENDBRANCH  27  28
ENDBRANCH  25  27
ENDBRANCH  20  21
ENDBRANCH  10  20
TORSDOF 6
