REMARK  Name = ZINC33154751
REMARK  5 active torsions:
REMARK  status: ('A' for Active; 'I' for Inactive)
REMARK    1  A    between atoms: C_4  and  C_7
REMARK    2  A    between atoms: C_10  and  N_29
REMARK    3  A    between atoms: C_16  and  C_17
REMARK    4  A    between atoms: N_19  and  N_20
REMARK    5  A    between atoms: C_21  and  C_22
REMARK                            x       y       z     vdW  Elec       q    Type
REMARK                         _______ _______ _______ _____ _____    ______ ____
ROOT
ATOM      1  C   UNL     1       2.227   3.542   0.618  0.00  0.00    +0.020 A 
ATOM      2  C   UNL     1       3.239   4.350  -0.073  0.00  0.00    +0.010 A 
ATOM      3  C   UNL     1       4.076   4.117  -1.167  0.00  0.00    +0.043 A 
ATOM      4  C   UNL     1       4.934   5.093  -1.585  0.00  0.00    +0.127 A 
ATOM      5  C   UNL     1       4.982   6.317  -0.930  0.00  0.00    +0.035 A 
ATOM      6  C   UNL     1       4.161   6.572   0.144  0.00  0.00    +0.028 A 
ATOM      7  C   UNL     1       3.280   5.590   0.592  0.00  0.00    +0.048 A 
ATOM      8  N   UNL     1       2.370   5.549   1.623  0.00  0.00    -0.350 N 
ATOM      9  H   UNL     1       2.243   6.422   2.279  0.00  0.00    +0.166 HD
ATOM     10  C   UNL     1       1.734   4.325   1.646  0.00  0.00    +0.112 A 
ENDROOT
BRANCH   1  14
ATOM     11  C   UNL     1       1.058  -0.429  -0.340  0.00  0.00    +0.000 A 
ATOM     12  C   UNL     1       0.148   0.606  -0.464  0.00  0.00    +0.001 A 
ATOM     13  C   UNL     1       0.521   1.897  -0.154  0.00  0.00    +0.008 A 
ATOM     14  C   UNL     1       1.820   2.159   0.285  0.00  0.00    -0.015 A 
ATOM     15  C   UNL     1       2.733   1.110   0.408  0.00  0.00    +0.008 A 
ATOM     16  C   UNL     1       2.347  -0.176   0.095  0.00  0.00    +0.001 A 
ENDBRANCH   1  14
BRANCH  10  17
ATOM     17  C   UNL     1       0.703   3.920   2.606  0.00  0.00    +0.280 C 
ATOM     18  O   UNL     1       0.207   2.810   2.535  0.00  0.00    -0.267 OA
ATOM     19  N   UNL     1       0.304   4.776   3.568  0.00  0.00    -0.202 N 
ATOM     20  H   UNL     1       0.752   5.778   3.632  0.00  0.00    +0.178 HD
BRANCH  19  21
ATOM     21  N   UNL     1      -0.682   4.388   4.485  0.00  0.00    -0.187 NA
ATOM     22  C   UNL     1      -1.151   5.250   5.335  0.00  0.00    +0.138 C 
BRANCH  22  23
ATOM     23  C   UNL     1      -1.036   6.694   5.062  0.00  0.00    -0.004 A 
ATOM     24  C   UNL     1      -0.683   7.141   3.786  0.00  0.00    +0.009 A 
ATOM     25  C   UNL     1      -0.581   8.493   3.535  0.00  0.00    +0.002 A 
ATOM     26  C   UNL     1      -0.818   9.407   4.547  0.00  0.00    +0.015 A 
ATOM     27  C   UNL     1      -1.163   8.972   5.815  0.00  0.00    +0.018 A 
ATOM     28  C   UNL     1      -1.274   7.622   6.078  0.00  0.00    +0.024 A 
ATOM     29 BR   UNL     1      -1.484  10.231   7.189  0.00  0.00    -0.050 Br
ENDBRANCH  22  23
ENDBRANCH  19  21
ENDBRANCH  10  17
BRANCH   4  30
ATOM     30  N   UNL     1       5.821   4.845  -2.744  0.00  0.00    +0.056 N 
ATOM     31  O   UNL     1       5.783   3.773  -3.321  0.00  0.00    -0.126 OA
ATOM     32  O   UNL     1       6.588   5.713  -3.121  0.00  0.00    -0.126 OA
ENDBRANCH   4  30
TORSDOF 5
