REMARK  Name = ZINC16567969
REMARK  11 active torsions:
REMARK  status: ('A' for Active; 'I' for Inactive)
REMARK    1  A    between atoms: C_1  and  C_2
REMARK    2  A    between atoms: C_5  and  S_8
REMARK    3  A    between atoms: S_8  and  N_11
REMARK    4  A    between atoms: N_11  and  C_12
REMARK    5  A    between atoms: C_12  and  C_14
REMARK    6  A    between atoms: C_12  and  C_15
REMARK    7  A    between atoms: C_18  and  S_28
REMARK    8  A    between atoms: N_19  and  C_20
REMARK    9  A    between atoms: C_25  and  C_26
REMARK   10  A    between atoms: S_28  and  C_29
REMARK   11  A    between atoms: C_29  and  C_30
REMARK                            x       y       z     vdW  Elec       q    Type
REMARK                         _______ _______ _______ _____ _____    ______ ____
ROOT
ATOM      1  C   UNL     1       2.039   0.777  -0.013  0.00  0.00    +0.157 A 
ATOM      2  N   UNL     1       1.186   1.763   0.000  0.00  0.00    -0.131 NA
ATOM      3  N   UNL     1      -0.016   1.309   0.009  0.00  0.00    -0.122 NA
ATOM      4  C   UNL     1       0.002  -0.004   0.002  0.00  0.00    +0.196 A 
ATOM      5  N   UNL     1       1.316  -0.386  -0.013  0.00  0.00    -0.273 N 
ENDROOT
BRANCH   5   6
ATOM      6  C   UNL     1       1.817  -1.696  -0.024  0.00  0.00    +0.055 A 
ATOM      7  C   UNL     1       2.049  -2.341  -1.231  0.00  0.00    +0.046 A 
ATOM      8  C   UNL     1       2.548  -3.630  -1.239  0.00  0.00    +0.043 A 
ATOM      9  C   UNL     1       2.806  -4.281  -0.045  0.00  0.00    +0.020 A 
ATOM     10  C   UNL     1       2.571  -3.641   1.158  0.00  0.00    +0.007 A 
ATOM     11  C   UNL     1       2.077  -2.351   1.172  0.00  0.00    -0.026 A 
ATOM     12  C   UNL     1       1.820  -1.656   2.484  0.00  0.00    +0.046 C 
ATOM     13 CL   UNL     1       2.845  -4.436  -2.748  0.00  0.00    -0.083 Cl
ENDBRANCH   5   6
BRANCH   1  14
ATOM     14  C   UNL     1       3.541   0.895  -0.026  0.00  0.00    +0.141 C 
ATOM     15  C   UNL     1       4.007   1.315  -1.422  0.00  0.00    +0.034 C 
BRANCH  14  16
ATOM     16  N   UNL     1       3.960   1.902   0.952  0.00  0.00    -0.180 NA
ATOM     17  H   UNL     1       3.411   2.687   1.105  0.00  0.00    +0.149 HD
BRANCH  16  18
ATOM     18  S   UNL     1       5.371   1.701   1.794  0.00  0.00    +0.059 S 
ATOM     19  O   UNL     1       5.511   2.841   2.631  0.00  0.00    -0.153 OA
ATOM     20  O   UNL     1       5.352   0.376   2.308  0.00  0.00    -0.153 OA
BRANCH  18  25
ATOM     21  C   UNL     1       9.886   1.932  -2.203  0.00  0.00    +0.044 C 
ATOM     22  C   UNL     1       8.758   1.874  -1.204  0.00  0.00    -0.050 A 
ATOM     23  C   UNL     1       8.317   3.032  -0.592  0.00  0.00    +0.005 A 
ATOM     24  C   UNL     1       7.283   2.979   0.324  0.00  0.00    +0.029 A 
ATOM     25  C   UNL     1       6.689   1.768   0.627  0.00  0.00    +0.105 A 
ATOM     26  C   UNL     1       7.134   0.609   0.018  0.00  0.00    +0.029 A 
ATOM     27  C   UNL     1       8.165   0.663  -0.901  0.00  0.00    +0.005 A 
ENDBRANCH  18  25
ENDBRANCH  16  18
ENDBRANCH  14  16
ENDBRANCH   1  14
BRANCH   4  28
ATOM     28  S   UNL     1      -1.400  -1.071   0.010  0.00  0.00    -0.081 S 
BRANCH  28  29
ATOM     29  C   UNL     1      -2.730   0.157   0.030  0.00  0.00    +0.112 C 
BRANCH  29  30
ATOM     30  C   UNL     1      -4.062  -0.546   0.039  0.00  0.00    -0.037 A 
ATOM     31  C   UNL     1      -4.688  -0.857  -1.154  0.00  0.00    +0.004 A 
ATOM     32  C   UNL     1      -5.908  -1.507  -1.146  0.00  0.00    +0.000 A 
ATOM     33  C   UNL     1      -6.508  -1.836   0.055  0.00  0.00    +0.000 A 
ATOM     34  C   UNL     1      -5.885  -1.520   1.248  0.00  0.00    +0.000 A 
ATOM     35  C   UNL     1      -4.662  -0.876   1.240  0.00  0.00    +0.004 A 
ENDBRANCH  29  30
ENDBRANCH  28  29
ENDBRANCH   4  28
TORSDOF 8
