REMARK  Name = ZINC36727860
REMARK  7 active torsions:
REMARK  status: ('A' for Active; 'I' for Inactive)
REMARK    1  A    between atoms: C_4  and  S_7
REMARK    2  A    between atoms: S_7  and  C_10
REMARK    3  A    between atoms: C_10  and  C_11
REMARK    4  A    between atoms: C_14  and  C_16
REMARK    5  A    between atoms: N_18  and  C_19
REMARK    6  A    between atoms: C_19  and  C_20
REMARK    7  A    between atoms: C_23  and  C_26
REMARK                            x       y       z     vdW  Elec       q    Type
REMARK                         _______ _______ _______ _____ _____    ______ ____
ROOT
ATOM      1  C   UNL     1       7.702  -4.782   2.026  0.00  0.00    +0.280 C 
ATOM      2  O   UNL     1       8.907  -4.929   2.104  0.00  0.00    -0.267 OA
ATOM      3  N   UNL     1       6.891  -5.859   2.008  0.00  0.00    -0.305 N 
ATOM      4  H   UNL     1       5.931  -5.742   1.946  0.00  0.00    +0.149 HD
ENDROOT
BRANCH   1   8
ATOM      5  C   UNL     1       5.671  -1.802   1.810  0.00  0.00    +0.127 A 
ATOM      6  C   UNL     1       6.892  -1.226   1.868  0.00  0.00    +0.047 A 
ATOM      7  C   UNL     1       7.834  -2.263   1.958  0.00  0.00    +0.055 A 
ATOM      8  C   UNL     1       7.131  -3.434   1.950  0.00  0.00    +0.189 A 
ATOM      9  O   UNL     1       5.819  -3.132   1.865  0.00  0.00    -0.453 OA
BRANCH   5  10
ATOM     10  C   UNL     1       4.359  -1.068   1.707  0.00  0.00    +0.245 C 
BRANCH  10  11
ATOM     11  S   UNL     1       3.934  -0.832  -0.041  0.00  0.00    +0.004 S 
ATOM     12  O   UNL     1       3.641  -2.083  -0.647  0.00  0.00    -0.169 OA
ATOM     13  O   UNL     1       4.846   0.072  -0.648  0.00  0.00    -0.169 OA
BRANCH  11  17
ATOM     14  C   UNL     1      -0.017   1.378   0.010  0.00  0.00    +0.000 A 
ATOM     15  C   UNL     1       1.171   2.086   0.002  0.00  0.00    +0.002 A 
ATOM     16  C   UNL     1       2.377   1.411  -0.013  0.00  0.00    +0.027 A 
ATOM     17  C   UNL     1       2.396   0.029  -0.020  0.00  0.00    +0.089 A 
ATOM     18  C   UNL     1       1.208  -0.679  -0.012  0.00  0.00    +0.027 A 
ATOM     19  C   UNL     1       0.002  -0.004   0.002  0.00  0.00    +0.002 A 
ENDBRANCH  11  17
ENDBRANCH  10  11
ENDBRANCH   5  10
ENDBRANCH   1   8
BRANCH   3  20
ATOM     20  C   UNL     1       7.462  -7.207   2.084  0.00  0.00    +0.140 C 
BRANCH  20  21
ATOM     21  C   UNL     1       6.351  -8.225   2.046  0.00  0.00    -0.030 A 
ATOM     22  C   UNL     1       5.766  -8.650   3.225  0.00  0.00    +0.006 A 
ATOM     23  C   UNL     1       4.750  -9.582   3.198  0.00  0.00    +0.013 A 
ATOM     24  C   UNL     1       4.311 -10.096   1.977  0.00  0.00    +0.037 A 
ATOM     25  C   UNL     1       4.906  -9.663   0.790  0.00  0.00    +0.013 A 
ATOM     26  C   UNL     1       5.918  -8.726   0.832  0.00  0.00    +0.006 A 
BRANCH  24  27
ATOM     27  C   UNL     1       3.222 -11.095   1.940  0.00  0.00    +0.242 C 
ATOM     28  O   UNL     1       2.707 -11.471   2.974  0.00  0.00    -0.270 OA
ATOM     29  N   UNL     1       2.801 -11.590   0.759  0.00  0.00    -0.325 N 
ATOM     30  H   UNL     1       3.213 -11.290  -0.067  0.00  0.00    +0.145 HD
ATOM     31  H   UNL     1       2.087 -12.245   0.734  0.00  0.00    +0.145 HD
ENDBRANCH  24  27
ENDBRANCH  20  21
ENDBRANCH   3  20
TORSDOF 7
