REMARK  Name = ZINC60475240
REMARK  11 active torsions:
REMARK  status: ('A' for Active; 'I' for Inactive)
REMARK    1  A    between atoms: C_1  and  C_2
REMARK    2  A    between atoms: C_2  and  C_3
REMARK    3  A    between atoms: C_3  and  C_4
REMARK    4  A    between atoms: C_3  and  C_5
REMARK    5  A    between atoms: C_5  and  C_6
REMARK    6  A    between atoms: C_5  and  N_24
REMARK    7  A    between atoms: N_8  and  C_9
REMARK    8  A    between atoms: C_9  and  C_10
REMARK    9  A    between atoms: C_15  and  C_16
REMARK   10  A    between atoms: C_16  and  N_17
REMARK   11  A    between atoms: C_22  and  C_23
REMARK                            x       y       z     vdW  Elec       q    Type
REMARK                         _______ _______ _______ _____ _____    ______ ____
ROOT
ATOM      1  C   UNL     1       0.356  -2.606  -1.844  0.00  0.00    +0.234 C 
ATOM      2  O   UNL     1       1.389  -3.153  -1.520  0.00  0.00    -0.274 OA
ATOM      3  N   UNL     1       0.023  -2.511  -3.146  0.00  0.00    -0.310 N 
ATOM      4  H   UNL     1      -0.803  -2.074  -3.405  0.00  0.00    +0.149 HD
ENDROOT
BRANCH   1   5
ATOM      5  C   UNL     1      -0.556  -2.033  -0.790  0.00  0.00    +0.163 C 
BRANCH   5   6
ATOM      6  N   UNL     1      -0.256  -2.651   0.504  0.00  0.00    -0.288 N 
ATOM      7  C   UNL     1      -0.836  -3.819   0.844  0.00  0.00    +0.298 C 
ATOM      8  O   UNL     1      -1.537  -4.405   0.042  0.00  0.00    -0.253 OA
ATOM      9  N   UNL     1      -0.639  -4.337   2.072  0.00  0.00    -0.313 N 
ATOM     10  H   UNL     1       0.360  -2.219   1.117  0.00  0.00    +0.151 HD
ATOM     11  H   UNL     1      -0.080  -3.869   2.712  0.00  0.00    +0.146 HD
ATOM     12  H   UNL     1      -1.056  -5.178   2.317  0.00  0.00    +0.146 HD
ENDBRANCH   5   6
BRANCH   5  13
ATOM     13  C   UNL     1      -0.339  -0.521  -0.695  0.00  0.00    +0.015 C 
ATOM     14  C   UNL     1       1.108  -0.238  -0.285  0.00  0.00    +0.010 C 
BRANCH  13  16
ATOM     15  C   UNL     1      -1.161   1.591   0.356  0.00  0.00    +0.004 C 
ATOM     16  C   UNL     1      -1.290   0.067   0.350  0.00  0.00    +0.002 C 
ENDBRANCH  13  16
ENDBRANCH   5  13
ENDBRANCH   1   5
BRANCH   3  17
ATOM     17  C   UNL     1       0.909  -3.069  -4.171  0.00  0.00    +0.139 C 
BRANCH  17  18
ATOM     18  C   UNL     1       0.313  -2.832  -5.534  0.00  0.00    -0.029 A 
ATOM     19  C   UNL     1      -0.292  -3.873  -6.214  0.00  0.00    +0.005 A 
ATOM     20  C   UNL     1      -0.839  -3.656  -7.465  0.00  0.00    +0.000 A 
ATOM     21  C   UNL     1      -0.783  -2.398  -8.035  0.00  0.00    +0.000 A 
ATOM     22  C   UNL     1      -0.180  -1.357  -7.355  0.00  0.00    +0.002 A 
ATOM     23  C   UNL     1       0.364  -1.573  -6.102  0.00  0.00    -0.059 A 
BRANCH  23  24
ATOM     24  C   UNL     1       1.018  -0.437  -5.358  0.00  0.00    -0.042 C 
BRANCH  24  25
ATOM     25  N   UNL     1       1.136   0.727  -6.247  0.00  0.00    +0.384 N 
ATOM     26  C   UNL     1       2.071   0.416  -7.335  0.00  0.00    -0.078 C 
ATOM     27  C   UNL     1       2.137   1.595  -8.308  0.00  0.00    -0.019 C 
ATOM     28  C   UNL     1       2.617   2.842  -7.560  0.00  0.00    -0.003 C 
ATOM     29  C   UNL     1       1.676   3.113  -6.383  0.00  0.00    -0.016 C 
ATOM     30  C   UNL     1       1.627   1.878  -5.481  0.00  0.00    -0.071 C 
ATOM     31  C   UNL     1       0.688   2.144  -4.302  0.00  0.00    -0.013 C 
ATOM     32  H   UNL     1       0.231   0.945  -6.636  0.00  0.00    -0.081 HD
ENDBRANCH  24  25
ENDBRANCH  23  24
ENDBRANCH  17  18
ENDBRANCH   3  17
TORSDOF 8
