REMARK  Name = ZINC20562046
REMARK  10 active torsions:
REMARK  status: ('A' for Active; 'I' for Inactive)
REMARK    1  A    between atoms: C_6  and  C_7
REMARK    2  A    between atoms: C_7  and  C_8
REMARK    3  A    between atoms: C_8  and  N_9
REMARK    4  A    between atoms: C_10  and  C_12
REMARK    5  A    between atoms: C_12  and  S_13
REMARK    6  A    between atoms: S_13  and  C_14
REMARK    7  A    between atoms: N_23  and  C_24
REMARK    8  A    between atoms: C_24  and  C_25
REMARK    9  A    between atoms: C_25  and  C_26
REMARK   10  A    between atoms: C_26  and  N_27
REMARK                            x       y       z     vdW  Elec       q    Type
REMARK                         _______ _______ _______ _____ _____    ______ ____
ROOT
ATOM      1  C   UNL     1      -0.351   2.749   1.784  0.00  0.00    +0.173 A 
ATOM      2  N   UNL     1      -0.933   3.220   2.854  0.00  0.00    -0.222 NA
ATOM      3  C   UNL     1      -1.932   2.540   3.491  0.00  0.00    +0.086 A 
ATOM      4  C   UNL     1      -2.641   2.911   4.643  0.00  0.00    +0.036 A 
ATOM      5  C   UNL     1      -3.605   2.105   5.136  0.00  0.00    +0.048 A 
ATOM      6  S   UNL     1      -3.593   0.732   3.995  0.00  0.00    -0.090 S 
ATOM      7  C   UNL     1      -2.302   1.308   2.924  0.00  0.00    +0.102 A 
ATOM      8  C   UNL     1      -1.681   0.816   1.778  0.00  0.00    +0.269 A 
ATOM      9  O   UNL     1      -2.013  -0.254   1.296  0.00  0.00    -0.266 OA
ATOM     10  N   UNL     1      -0.698   1.558   1.213  0.00  0.00    -0.287 N 
ENDROOT
BRANCH   1  11
ATOM     11  S   UNL     1       0.934   3.697   1.038  0.00  0.00    -0.078 S 
BRANCH  11  12
ATOM     12  C   UNL     1       0.972   5.115   2.164  0.00  0.00    +0.173 C 
BRANCH  12  14
ATOM     13  N   UNL     1       2.239   7.226   2.401  0.00  0.00    -0.314 N 
ATOM     14  C   UNL     1       2.029   6.088   1.710  0.00  0.00    +0.223 C 
ATOM     15  O   UNL     1       2.692   5.847   0.723  0.00  0.00    -0.275 OA
ATOM     16  H   UNL     1       1.638   7.444   3.296  0.00  0.00    +0.149 HD
BRANCH  13  17
ATOM     17  C   UNL     1       3.267   8.172   1.959  0.00  0.00    +0.109 C 
BRANCH  17  18
ATOM     18  C   UNL     1       3.299   9.370   2.910  0.00  0.00    +0.054 C 
BRANCH  18  24
ATOM     19  C   UNL     1       5.649  10.231   2.933  0.00  0.00    +0.005 A 
ATOM     20  C   UNL     1       6.620  11.120   2.513  0.00  0.00    +0.020 A 
ATOM     21  C   UNL     1       6.296  12.129   1.624  0.00  0.00    +0.041 A 
ATOM     22  C   UNL     1       5.001  12.245   1.152  0.00  0.00    +0.020 A 
ATOM     23  C   UNL     1       4.031  11.352   1.568  0.00  0.00    +0.005 A 
ATOM     24  C   UNL     1       4.356  10.344   2.457  0.00  0.00    -0.046 A 
ATOM     25 CL   UNL     1       7.514  13.250   1.101  0.00  0.00    -0.084 Cl
ENDBRANCH  18  24
ENDBRANCH  17  18
ENDBRANCH  13  17
ENDBRANCH  12  14
ENDBRANCH  11  12
ENDBRANCH   1  11
BRANCH  10  26
ATOM     26  C   UNL     1      -0.013   1.086   0.008  0.00  0.00    +0.125 C 
BRANCH  26  27
ATOM     27  C   UNL     1      -0.753   1.593  -1.232  0.00  0.00    +0.003 C 
BRANCH  27  28
ATOM     28  C   UNL     1      -0.037   1.099  -2.490  0.00  0.00    -0.077 C 
BRANCH  28  29
ATOM     29  N   UNL     1      -0.747   1.586  -3.680  0.00  0.00    +0.380 N 
ATOM     30  C   UNL     1      -2.085   0.988  -3.776  0.00  0.00    -0.079 C 
ATOM     31  C   UNL     1      -2.848   1.624  -4.940  0.00  0.00    -0.019 C 
ATOM     32  C   UNL     1      -2.071   1.393  -6.239  0.00  0.00    -0.004 C 
ATOM     33  C   UNL     1      -0.665   1.983  -6.096  0.00  0.00    -0.019 C 
ATOM     34  C   UNL     1       0.034   1.337  -4.899  0.00  0.00    -0.079 C 
ATOM     35  H   UNL     1      -0.873   2.674  -3.580  0.00  0.00    -0.082 HD
ENDBRANCH  28  29
ENDBRANCH  27  28
ENDBRANCH  26  27
ENDBRANCH  10  26
TORSDOF 10
