REMARK  Name = ZINC09153016
REMARK  9 active torsions:
REMARK  status: ('A' for Active; 'I' for Inactive)
REMARK    1  A    between atoms: C_1  and  C_2
REMARK    2  A    between atoms: C_2  and  N_3
REMARK    3  A    between atoms: N_3  and  C_4
REMARK    4  A    between atoms: N_3  and  C_31
REMARK    5  A    between atoms: C_4  and  C_5
REMARK    6  A    between atoms: C_5  and  C_6
REMARK    7  A    between atoms: C_6  and  N_7
REMARK    8  A    between atoms: C_8  and  C_10
REMARK    9  A    between atoms: C_35  and  C_37
REMARK                            x       y       z     vdW  Elec       q    Type
REMARK                         _______ _______ _______ _____ _____    ______ ____
ROOT
ATOM      1  C   UNL     1      -0.018   1.503   0.010  0.00  0.00    +0.092 C 
ATOM      2  C   UNL     1      -0.760   2.011  -1.229  0.00  0.00    +0.016 C 
ATOM      3  C   UNL     1      -0.830   3.540  -1.182  0.00  0.00    +0.020 C 
ATOM      4  C   UNL     1      -1.524   3.975   0.111  0.00  0.00    +0.106 C 
ATOM      5  N   UNL     1      -0.775   3.465   1.266  0.00  0.00    -0.313 N 
ATOM      6  C   UNL     1      -0.736   1.997   1.268  0.00  0.00    +0.119 C 
ATOM      7  C   UNL     1      -1.301   3.949   2.451  0.00  0.00    +0.152 A 
ATOM      8  C   UNL     1      -1.432   5.331   2.668  0.00  0.00    +0.148 A 
ATOM      9  C   UNL     1      -1.975   5.762   3.890  0.00  0.00    +0.166 A 
ATOM     10  N   UNL     1      -2.341   4.855   4.790  0.00  0.00    -0.216 NA
ATOM     11  C   UNL     1      -2.199   3.570   4.544  0.00  0.00    +0.225 A 
ATOM     12  N   UNL     1      -1.699   3.117   3.408  0.00  0.00    -0.218 NA
ATOM     13  N   UNL     1      -1.984   7.133   3.837  0.00  0.00    -0.312 N 
ATOM     14  C   UNL     1      -1.475   7.502   2.626  0.00  0.00    +0.112 A 
ATOM     15  N   UNL     1      -1.149   6.440   1.944  0.00  0.00    -0.227 NA
ATOM     16  C   UNL     1      -1.319   8.926   2.150  0.00  0.00    +0.074 C 
ATOM     17  C   UNL     1      -0.680   9.765   3.258  0.00  0.00    +0.008 C 
ATOM     18  C   UNL     1      -1.769  10.330   4.164  0.00  0.00    +0.002 C 
ATOM     19  C   UNL     1      -2.934   9.347   4.272  0.00  0.00    +0.022 C 
ATOM     20  C   UNL     1      -2.445   8.038   4.894  0.00  0.00    +0.125 C 
ENDROOT
BRANCH   1  22
ATOM     21  N   UNL     1       0.585  -0.664  -1.018  0.00  0.00    -0.315 N 
ATOM     22  C   UNL     1       0.002  -0.004   0.002  0.00  0.00    +0.218 C 
ATOM     23  O   UNL     1      -0.506  -0.622   0.913  0.00  0.00    -0.275 OA
ATOM     24  H   UNL     1       0.992  -0.170  -1.747  0.00  0.00    +0.149 HD
BRANCH  21  25
ATOM     25  C   UNL     1       0.605  -2.129  -1.026  0.00  0.00    +0.105 C 
BRANCH  25  26
ATOM     26  C   UNL     1       1.321  -2.623  -2.285  0.00  0.00    +0.037 C 
BRANCH  26  27
ATOM     27  C   UNL     1       1.342  -4.153  -2.293  0.00  0.00    +0.106 C 
BRANCH  27  28
ATOM     28  N   UNL     1       2.027  -4.625  -3.499  0.00  0.00    -0.330 N 
BRANCH  28  29
ATOM     29  C   UNL     1       1.301  -4.861  -4.668  0.00  0.00    +0.030 A 
ATOM     30  C   UNL     1      -0.072  -4.654  -4.688  0.00  0.00    +0.023 A 
ATOM     31  C   UNL     1      -0.787  -4.885  -5.847  0.00  0.00    +0.002 A 
ATOM     32  C   UNL     1      -0.138  -5.331  -6.984  0.00  0.00    +0.003 A 
ATOM     33  C   UNL     1       1.228  -5.542  -6.966  0.00  0.00    -0.049 A 
ATOM     34  C   UNL     1       1.950  -5.309  -5.812  0.00  0.00    +0.026 A 
ATOM     35  C   UNL     1       1.931  -6.028  -8.208  0.00  0.00    +0.044 C 
ENDBRANCH  28  29
BRANCH  28  37
ATOM     36  C   UNL     1       3.761  -6.293  -3.059  0.00  0.00    +0.024 C 
ATOM     37  C   UNL     1       3.475  -4.850  -3.477  0.00  0.00    +0.102 C 
ENDBRANCH  28  37
ENDBRANCH  27  28
ENDBRANCH  26  27
ENDBRANCH  25  26
ENDBRANCH  21  25
ENDBRANCH   1  22
TORSDOF 7
