REMARK  Name = ZINC53113348
REMARK  7 active torsions:
REMARK  status: ('A' for Active; 'I' for Inactive)
REMARK    1  A    between atoms: C_1  and  C_2
REMARK    2  A    between atoms: C_7  and  C_9
REMARK    3  A    between atoms: C_7  and  N_11
REMARK    4  A    between atoms: C_9  and  O_10
REMARK    5  A    between atoms: N_11  and  S_12
REMARK    6  A    between atoms: S_12  and  C_15
REMARK    7  A    between atoms: C_18  and  N_22
REMARK                            x       y       z     vdW  Elec       q    Type
REMARK                         _______ _______ _______ _____ _____    ______ ____
ROOT
ATOM      1  S   UNL     1       1.747  -3.893  -0.513  0.00  0.00    +0.060 S 
ATOM      2  O   UNL     1       0.644  -4.464   0.177  0.00  0.00    -0.153 OA
ATOM      3  O   UNL     1       1.961  -4.090  -1.904  0.00  0.00    -0.153 OA
ENDROOT
BRANCH   1   4
ATOM      4  C   UNL     1       3.201  -4.458   0.306  0.00  0.00    +0.119 A 
ATOM      5  C   UNL     1       3.104  -5.407   1.307  0.00  0.00    +0.031 A 
ATOM      6  C   UNL     1       4.242  -5.853   1.951  0.00  0.00    +0.025 A 
ATOM      7  C   UNL     1       5.485  -5.346   1.592  0.00  0.00    +0.026 A 
ATOM      8  C   UNL     1       5.579  -4.393   0.586  0.00  0.00    +0.040 A 
ATOM      9  C   UNL     1       4.438  -3.956  -0.058  0.00  0.00    +0.046 A 
ATOM     10 BR   UNL     1       4.565  -2.664  -1.433  0.00  0.00    -0.048 Br
BRANCH   7  11
ATOM     11  N   UNL     1       6.637  -5.794   2.242  0.00  0.00    -0.358 N 
ATOM     12  H   UNL     1       6.570  -6.460   2.945  0.00  0.00    +0.142 HD
ATOM     13  H   UNL     1       7.504  -5.440   1.991  0.00  0.00    +0.142 HD
ENDBRANCH   7  11
ENDBRANCH   1   4
BRANCH   1  14
ATOM     14  N   UNL     1       1.657  -2.256  -0.276  0.00  0.00    -0.182 NA
ATOM     15  H   UNL     1       2.006  -1.649  -0.947  0.00  0.00    +0.149 HD
BRANCH  14  21
ATOM     16  C   UNL     1       0.579   1.904  -0.250  0.00  0.00    +0.007 C 
ATOM     17  C   UNL     1       0.455   0.379  -0.262  0.00  0.00    -0.012 C 
ATOM     18  C   UNL     1      -1.024  -0.012  -0.216  0.00  0.00    +0.003 C 
ATOM     19  C   UNL     1      -1.149  -1.537  -0.227  0.00  0.00    +0.002 C 
ATOM     20  C   UNL     1      -0.430  -2.117   0.993  0.00  0.00    +0.026 C 
ATOM     21  C   UNL     1       1.049  -1.726   0.947  0.00  0.00    +0.063 C 
ATOM     22  C   UNL     1       1.174  -0.201   0.958  0.00  0.00    +0.029 C 
BRANCH  21  23
ATOM     23  C   UNL     1       1.768  -2.305   2.167  0.00  0.00    +0.179 C 
BRANCH  23  24
ATOM     24  O   UNL     1       1.511  -3.708   2.249  0.00  0.00    -0.393 OA
ATOM     25  H   UNL     1       1.937  -4.143   3.000  0.00  0.00    +0.209 HD
ENDBRANCH  23  24
ENDBRANCH  21  23
ENDBRANCH  14  21
ENDBRANCH   1  14
TORSDOF 6
