REMARK  Name = ZINC35106807
REMARK  11 active torsions:
REMARK  status: ('A' for Active; 'I' for Inactive)
REMARK    1  A    between atoms: C_1  and  C_2
REMARK    2  A    between atoms: C_2  and  C_3
REMARK    3  A    between atoms: C_3  and  N_4
REMARK    4  A    between atoms: N_4  and  C_5
REMARK    5  A    between atoms: N_4  and  S_27
REMARK    6  A    between atoms: C_5  and  C_6
REMARK    7  A    between atoms: C_6  and  C_8
REMARK    8  A    between atoms: C_9  and  C_21
REMARK    9  A    between atoms: N_11  and  C_14
REMARK   10  A    between atoms: C_12  and  O_13
REMARK   11  A    between atoms: S_27  and  C_30
REMARK                            x       y       z     vdW  Elec       q    Type
REMARK                         _______ _______ _______ _____ _____    ______ ____
ROOT
ATOM      1  C   UNL     1      -2.774  -3.606   3.115  0.00  0.00    +0.108 A 
ATOM      2  C   UNL     1      -3.995  -3.753   3.920  0.00  0.00    +0.107 A 
ATOM      3  N   UNL     1      -3.671  -4.433   4.994  0.00  0.00    -0.162 NA
ATOM      4  N   UNL     1      -2.310  -4.746   4.953  0.00  0.00    -0.199 N 
ATOM      5  C   UNL     1      -1.764  -4.256   3.822  0.00  0.00    +0.227 A 
ENDROOT
BRANCH   4   6
ATOM      6  C   UNL     1      -1.619  -5.466   5.936  0.00  0.00    +0.070 A 
ATOM      7  C   UNL     1      -0.586  -6.321   5.575  0.00  0.00    +0.028 A 
ATOM      8  C   UNL     1       0.094  -7.029   6.546  0.00  0.00    +0.003 A 
ATOM      9  C   UNL     1      -0.252  -6.888   7.878  0.00  0.00    +0.020 A 
ATOM     10  C   UNL     1      -1.280  -6.036   8.241  0.00  0.00    +0.043 A 
ATOM     11  C   UNL     1      -1.961  -5.321   7.274  0.00  0.00    +0.048 A 
ATOM     12 CL   UNL     1      -1.712  -5.862   9.914  0.00  0.00    -0.083 Cl
ENDBRANCH   4   6
BRANCH   2  13
ATOM     13  C   UNL     1      -5.341  -3.231   3.581  0.00  0.00    +0.003 A 
ATOM     14  C   UNL     1      -5.840  -3.369   2.287  0.00  0.00    +0.010 A 
ATOM     15  C   UNL     1      -7.093  -2.881   1.977  0.00  0.00    +0.001 A 
ATOM     16  C   UNL     1      -7.854  -2.255   2.948  0.00  0.00    +0.000 A 
ATOM     17  C   UNL     1      -7.364  -2.114   4.234  0.00  0.00    +0.001 A 
ATOM     18  C   UNL     1      -6.114  -2.604   4.557  0.00  0.00    +0.010 A 
ENDBRANCH   2  13
BRANCH   1  19
ATOM     19  C   UNL     1      -2.649  -2.942   1.871  0.00  0.00    +0.186 C 
ATOM     20  O   UNL     1      -3.591  -2.327   1.415  0.00  0.00    -0.290 OA
BRANCH  19  21
ATOM     21  C   UNL     1      -1.348  -3.000   1.113  0.00  0.00    +0.189 C 
BRANCH  21  22
ATOM     22  N   UNL     1      -1.475  -2.241  -0.133  0.00  0.00    -0.169 NA
BRANCH  22  23
ATOM     23  S   UNL     1      -1.873  -3.019  -1.540  0.00  0.00    +0.061 S 
ATOM     24  O   UNL     1      -2.553  -4.210  -1.167  0.00  0.00    -0.153 OA
ATOM     25  O   UNL     1      -2.456  -2.043  -2.393  0.00  0.00    -0.153 OA
BRANCH  23  26
ATOM     26  C   UNL     1      -0.365  -3.518  -2.304  0.00  0.00    +0.105 A 
ATOM     27  C   UNL     1       0.276  -2.671  -3.188  0.00  0.00    +0.028 A 
ATOM     28  C   UNL     1       1.458  -3.062  -3.787  0.00  0.00    +0.002 A 
ATOM     29  C   UNL     1       2.000  -4.301  -3.501  0.00  0.00    +0.000 A 
ATOM     30  C   UNL     1       1.360  -5.149  -2.616  0.00  0.00    +0.002 A 
ATOM     31  C   UNL     1       0.180  -4.755  -2.014  0.00  0.00    +0.028 A 
ENDBRANCH  23  26
ENDBRANCH  22  23
BRANCH  22  32
ATOM     32  C   UNL     1      -1.250  -0.793  -0.135  0.00  0.00    +0.110 C 
BRANCH  32  34
ATOM     33  C   UNL     1       0.481   1.002  -0.289  0.00  0.00    +0.005 C 
ATOM     34  C   UNL     1       0.246  -0.510  -0.287  0.00  0.00    +0.014 C 
ENDBRANCH  32  34
ENDBRANCH  22  32
ENDBRANCH  21  22
ENDBRANCH  19  21
ENDBRANCH   1  19
BRANCH   5  35
ATOM     35  O   UNL     1      -0.471  -4.372   3.444  0.00  0.00    -0.492 OA
ATOM     36  H   UNL     1       0.096  -3.653   3.755  0.00  0.00    +0.294 HD
ENDBRANCH   5  35
TORSDOF 10
