REMARK  Name = ZINC66331720
REMARK  7 active torsions:
REMARK  status: ('A' for Active; 'I' for Inactive)
REMARK    1  A    between atoms: C_1  and  C_2
REMARK    2  A    between atoms: C_15  and  O_31
REMARK    3  A    between atoms: C_18  and  C_30
REMARK    4  A    between atoms: C_23  and  C_24
REMARK    5  A    between atoms: C_23  and  O_29
REMARK    6  A    between atoms: C_24  and  C_25
REMARK    7  A    between atoms: C_25  and  C_26
REMARK                            x       y       z     vdW  Elec       q    Type
REMARK                         _______ _______ _______ _____ _____    ______ ____
ROOT
ATOM      1  C   UNL     1      -0.107   1.529  -0.045  0.00  0.00    +0.016 C 
ATOM      2  C   UNL     1      -0.092  -0.001  -0.056  0.00  0.00    -0.001 C 
ATOM      3  C   UNL     1      -1.529  -0.527  -0.085  0.00  0.00    +0.019 C 
ATOM      4  C   UNL     1      -2.251  -0.061   1.183  0.00  0.00    +0.080 C 
ATOM      5  C   UNL     1      -1.482  -0.534   2.389  0.00  0.00    +0.156 C 
ATOM      6  O   UNL     1      -2.069  -0.742   3.433  0.00  0.00    -0.293 OA
ATOM      7  C   UNL     1      -0.096  -0.739   2.320  0.00  0.00    +0.050 C 
ATOM      8  C   UNL     1       0.603  -0.508   1.183  0.00  0.00    -0.038 C 
ATOM      9  C   UNL     1       2.044  -0.753   1.153  0.00  0.00    +0.000 C 
ATOM     10  C   UNL     1       2.760  -0.523   0.054  0.00  0.00    -0.022 C 
ATOM     11  C   UNL     1       2.121   0.003  -1.200  0.00  0.00    +0.022 C 
ATOM     12  C   UNL     1       0.670  -0.498  -1.285  0.00  0.00    +0.035 C 
ATOM     13  C   UNL     1      -0.013  -0.016  -2.560  0.00  0.00    +0.120 C 
ATOM     14  C   UNL     1       0.790  -0.418  -3.809  0.00  0.00    +0.041 C 
ATOM     15  C   UNL     1       2.181   0.166  -3.661  0.00  0.00    +0.002 C 
ATOM     16  C   UNL     1       2.853  -0.499  -2.430  0.00  0.00    +0.005 C 
ATOM     17  C   UNL     1       4.309  -0.043  -2.575  0.00  0.00    +0.007 C 
ATOM     18  C   UNL     1       4.566  -0.181  -4.101  0.00  0.00    +0.035 C 
ATOM     19  C   UNL     1       3.166  -0.119  -4.790  0.00  0.00    +0.072 C 
ATOM     20  C   UNL     1       2.086   1.675  -3.427  0.00  0.00    +0.014 C 
ENDROOT
BRANCH  19  21
ATOM     21  O   UNL     1       2.841  -1.354  -5.431  0.00  0.00    -0.388 OA
ATOM     22  H   UNL     1       3.433  -1.587  -6.158  0.00  0.00    +0.210 HD
ENDBRANCH  19  21
BRANCH  13  23
ATOM     23  O   UNL     1      -1.318  -0.592  -2.638  0.00  0.00    -0.391 OA
ATOM     24  H   UNL     1      -1.816  -0.331  -3.425  0.00  0.00    +0.210 HD
ENDBRANCH  13  23
BRANCH  19  25
ATOM     25  C   UNL     1       3.152   1.026  -5.806  0.00  0.00    +0.046 C 
BRANCH  25  26
ATOM     26  C   UNL     1       4.145   0.722  -6.929  0.00  0.00    +0.128 C 
BRANCH  26  27
ATOM     27  C   UNL     1       4.132   1.849  -7.930  0.00  0.00    +0.356 C 
ATOM     28  O   UNL     1       3.396   2.807  -7.759  0.00  0.00    -0.246 OA
ATOM     29  O   UNL     1       4.856   1.804  -8.909  0.00  0.00    -0.246 OA
ENDBRANCH  26  27
ENDBRANCH  25  26
ENDBRANCH  19  25
TORSDOF 5
