REMARK  Name = ZINC08915413
REMARK  15 active torsions:
REMARK  status: ('A' for Active; 'I' for Inactive)
REMARK    1  A    between atoms: C_1  and  C_2
REMARK    2  A    between atoms: C_2  and  O_3
REMARK    3  A    between atoms: O_3  and  P_4
REMARK    4  A    between atoms: P_4  and  C_6
REMARK    5  A    between atoms: P_4  and  O_32
REMARK    6  A    between atoms: C_7  and  N_21
REMARK    7  A    between atoms: C_9  and  C_11
REMARK    8  A    between atoms: C_14  and  C_17
REMARK    9  A    between atoms: C_17  and  C_18
REMARK   10  A    between atoms: C_17  and  C_19
REMARK   11  A    between atoms: C_17  and  C_20
REMARK   12  A    between atoms: N_21  and  C_22
REMARK   13  A    between atoms: C_22  and  C_23
REMARK   14  A    between atoms: O_32  and  C_33
REMARK   15  A    between atoms: C_33  and  C_34
REMARK                            x       y       z     vdW  Elec       q    Type
REMARK                         _______ _______ _______ _____ _____    ______ ____
ROOT
ATOM      1  C   UNL     1       0.878   4.071   0.165  0.00  0.00    +0.213 A 
ATOM      2  C   UNL     1       0.624   4.930  -0.854  0.00  0.00    +0.223 A 
ATOM      3  O   UNL     1       0.334   6.125  -0.302  0.00  0.00    -0.421 OA
ATOM      4  C   UNL     1       0.420   5.990   1.036  0.00  0.00    +0.230 A 
ATOM      5  N   UNL     1       0.748   4.751   1.314  0.00  0.00    -0.199 NA
ENDROOT
BRANCH   4   6
ATOM      6  C   UNL     1       0.183   7.060   2.026  0.00  0.00    +0.037 A 
ATOM      7  C   UNL     1       0.298   6.791   3.391  0.00  0.00    +0.013 A 
ATOM      8  C   UNL     1       0.080   7.796   4.310  0.00  0.00    +0.005 A 
ATOM      9  C   UNL     1      -0.262   9.067   3.882  0.00  0.00    -0.042 A 
ATOM     10  C   UNL     1      -0.382   9.340   2.531  0.00  0.00    +0.005 A 
ATOM     11  C   UNL     1      -0.162   8.345   1.601  0.00  0.00    +0.013 A 
BRANCH   9  12
ATOM     12  C   UNL     1      -0.505  10.159   4.892  0.00  0.00    -0.013 C 
ATOM     13  C   UNL     1      -1.935  10.681   4.744  0.00  0.00    +0.015 C 
ATOM     14  C   UNL     1      -0.309   9.601   6.303  0.00  0.00    +0.015 C 
ATOM     15  C   UNL     1       0.483  11.302   4.655  0.00  0.00    +0.015 C 
ENDBRANCH   9  12
ENDBRANCH   4   6
BRANCH   1  16
ATOM     16  P   UNL     1       1.321   2.320   0.002  0.00  0.00    +0.386 P 
ATOM     17  O   UNL     1       2.187   1.923   1.135  0.00  0.00    -0.251 OA
BRANCH  16  18
ATOM     18  O   UNL     1      -0.017   1.425   0.010  0.00  0.00    -0.304 OA
BRANCH  18  20
ATOM     19  C   UNL     1      -1.433  -0.534   0.013  0.00  0.00    +0.034 C 
ATOM     20  C   UNL     1       0.002  -0.004   0.002  0.00  0.00    +0.167 C 
ENDBRANCH  18  20
ENDBRANCH  16  18
BRANCH  16  21
ATOM     21  O   UNL     1       2.110   2.092  -1.383  0.00  0.00    -0.304 OA
BRANCH  21  22
ATOM     22  C   UNL     1       2.685   0.838  -1.754  0.00  0.00    +0.167 C 
ATOM     23  C   UNL     1       3.357   0.970  -3.122  0.00  0.00    +0.034 C 
ENDBRANCH  21  22
ENDBRANCH  16  21
ENDBRANCH   1  16
BRANCH   2  24
ATOM     24  N   UNL     1       0.655   4.632  -2.212  0.00  0.00    -0.309 N 
ATOM     25  H   UNL     1       0.876   3.735  -2.507  0.00  0.00    +0.149 HD
BRANCH  24  26
ATOM     26  C   UNL     1       0.356   5.675  -3.197  0.00  0.00    +0.140 C 
BRANCH  26  27
ATOM     27  C   UNL     1       0.458   5.098  -4.585  0.00  0.00    -0.027 A 
ATOM     28  C   UNL     1       1.663   5.136  -5.261  0.00  0.00    +0.009 A 
ATOM     29  C   UNL     1       1.763   4.603  -6.533  0.00  0.00    +0.050 A 
ATOM     30  C   UNL     1       0.651   4.040  -7.138  0.00  0.00    +0.166 A 
ATOM     31  C   UNL     1      -0.564   4.006  -6.459  0.00  0.00    +0.167 A 
ATOM     32  C   UNL     1      -0.655   4.537  -5.182  0.00  0.00    +0.054 A 
ATOM     33  O   UNL     1      -1.494   3.407  -7.258  0.00  0.00    -0.453 OA
ATOM     34  C   UNL     1      -0.940   3.443  -8.587  0.00  0.00    +0.466 C 
ATOM     35  O   UNL     1       0.483   3.462  -8.363  0.00  0.00    -0.453 OA
ENDBRANCH  26  27
ENDBRANCH  24  26
ENDBRANCH   2  24
TORSDOF 10
