REMARK  Name = ZINC46756590
REMARK  12 active torsions:
REMARK  status: ('A' for Active; 'I' for Inactive)
REMARK    1  A    between atoms: C_1  and  C_2
REMARK    2  A    between atoms: C_2  and  N_3
REMARK    3  A    between atoms: N_3  and  C_4
REMARK    4  A    between atoms: N_3  and  S_6
REMARK    5  A    between atoms: C_4  and  C_5
REMARK    6  A    between atoms: S_6  and  C_9
REMARK    7  A    between atoms: C_12  and  O_33
REMARK    8  A    between atoms: C_13  and  C_15
REMARK    9  A    between atoms: N_17  and  C_18
REMARK   10  A    between atoms: C_18  and  C_19
REMARK   11  A    between atoms: C_22  and  C_24
REMARK   12  A    between atoms: O_33  and  C_34
REMARK                            x       y       z     vdW  Elec       q    Type
REMARK                         _______ _______ _______ _____ _____    ______ ____
ROOT
ATOM      1  C   UNL     1       1.508   2.343  -6.281  0.00  0.00    +0.248 C 
ATOM      2  O   UNL     1       1.403   3.352  -6.952  0.00  0.00    -0.270 OA
ATOM      3  N   UNL     1       2.551   1.512  -6.474  0.00  0.00    -0.304 N 
ATOM      4  H   UNL     1       2.635   0.707  -5.939  0.00  0.00    +0.149 HD
ENDROOT
BRANCH   1   9
ATOM      5  C   UNL     1      -0.337   0.586  -3.526  0.00  0.00    +0.106 A 
ATOM      6  C   UNL     1      -1.409   1.441  -3.326  0.00  0.00    +0.032 A 
ATOM      7  C   UNL     1      -1.537   2.588  -4.083  0.00  0.00    +0.048 A 
ATOM      8  C   UNL     1      -0.591   2.892  -5.051  0.00  0.00    +0.132 A 
ATOM      9  C   UNL     1       0.495   2.030  -5.255  0.00  0.00    +0.080 A 
ATOM     10  C   UNL     1       0.615   0.875  -4.479  0.00  0.00    +0.045 A 
BRANCH   5  11
ATOM     11  S   UNL     1      -0.188  -0.875  -2.551  0.00  0.00    +0.061 S 
ATOM     12  O   UNL     1       0.610  -1.782  -3.300  0.00  0.00    -0.153 OA
ATOM     13  O   UNL     1      -1.496  -1.201  -2.104  0.00  0.00    -0.153 OA
BRANCH  11  14
ATOM     14  N   UNL     1       0.688  -0.476  -1.203  0.00  0.00    -0.177 NA
BRANCH  14  16
ATOM     15  C   UNL     1      -0.019   1.526   0.010  0.00  0.00    +0.022 C 
ATOM     16  C   UNL     1       0.002  -0.004   0.002  0.00  0.00    +0.106 C 
ENDBRANCH  14  16
BRANCH  14  17
ATOM     17  C   UNL     1       2.148  -0.597  -1.216  0.00  0.00    +0.106 C 
ATOM     18  C   UNL     1       2.553  -1.951  -0.632  0.00  0.00    +0.022 C 
ENDBRANCH  14  17
ENDBRANCH  11  14
ENDBRANCH   5  11
BRANCH   8  19
ATOM     19  O   UNL     1      -0.716   4.019  -5.795  0.00  0.00    -0.494 OA
ATOM     20  C   UNL     1      -1.848   4.849  -5.531  0.00  0.00    +0.277 C 
ENDBRANCH   8  19
ENDBRANCH   1   9
BRANCH   3  21
ATOM     21  C   UNL     1       3.557   1.822  -7.493  0.00  0.00    +0.179 C 
BRANCH  21  22
ATOM     22  C   UNL     1       4.608   0.742  -7.507  0.00  0.00    +0.123 A 
ATOM     23  C   UNL     1       4.576  -0.375  -8.263  0.00  0.00    +0.047 A 
ATOM     24  C   UNL     1       5.743  -1.104  -7.971  0.00  0.00    +0.052 A 
ATOM     25  C   UNL     1       6.433  -0.385  -7.040  0.00  0.00    +0.160 A 
ATOM     26  O   UNL     1       5.732   0.736  -6.775  0.00  0.00    -0.456 OA
BRANCH  25  27
ATOM     27  C   UNL     1       7.719  -0.762  -6.437  0.00  0.00    +0.144 A 
ATOM     28  N   UNL     1       8.455  -1.833  -6.661  0.00  0.00    -0.236 NA
ATOM     29  C   UNL     1       9.624  -2.050  -6.029  0.00  0.00    +0.079 A 
ATOM     30  C   UNL     1      10.505  -3.149  -6.175  0.00  0.00    +0.029 A 
ATOM     31  C   UNL     1      11.657  -3.219  -5.455  0.00  0.00    +0.002 A 
ATOM     32  C   UNL     1      12.015  -2.226  -4.554  0.00  0.00    +0.001 A 
ATOM     33  C   UNL     1      11.183  -1.135  -4.381  0.00  0.00    +0.017 A 
ATOM     34  C   UNL     1      10.017  -1.054  -5.103  0.00  0.00    +0.040 A 
ATOM     35  S   UNL     1       8.686   0.116  -5.217  0.00  0.00    -0.064 S 
ENDBRANCH  25  27
ENDBRANCH  21  22
ENDBRANCH   3  21
TORSDOF 9
