REMARK  Name = ZINC08844880
REMARK  9 active torsions:
REMARK  status: ('A' for Active; 'I' for Inactive)
REMARK    1  A    between atoms: C_1  and  C_2
REMARK    2  A    between atoms: C_2  and  O_3
REMARK    3  A    between atoms: O_3  and  C_4
REMARK    4  A    between atoms: C_7  and  C_10
REMARK    5  A    between atoms: C_13  and  C_15
REMARK    6  A    between atoms: C_22  and  C_25
REMARK    7  A    between atoms: C_23  and  N_24
REMARK    8  A    between atoms: C_25  and  C_27
REMARK    9  A    between atoms: C_30  and  C_33
REMARK                            x       y       z     vdW  Elec       q    Type
REMARK                         _______ _______ _______ _____ _____    ______ ____
ROOT
ATOM      1  C   UNL     1       2.145   0.704  -0.027  0.00  0.00    +0.054 A 
ATOM      2  C   UNL     1       1.287   1.822  -0.007  0.00  0.00    +0.058 A 
ATOM      3  C   UNL     1       1.550   3.200  -0.003  0.00  0.00    +0.027 A 
ATOM      4  C   UNL     1       0.508   4.081   0.018  0.00  0.00    +0.003 A 
ATOM      5  C   UNL     1      -0.806   3.594   0.035  0.00  0.00    +0.018 A 
ATOM      6  C   UNL     1      -1.040   2.262   0.035  0.00  0.00    +0.092 A 
ATOM      7  N   UNL     1      -0.005   1.373   0.009  0.00  0.00    -0.311 N 
ATOM      8  C   UNL     1       0.007  -0.014   0.001  0.00  0.00    +0.116 A 
ATOM      9  C   UNL     1       1.335  -0.442  -0.022  0.00  0.00    +0.064 A 
ENDROOT
BRANCH   1  13
ATOM     10  C   UNL     1       5.781  -0.065  -0.086  0.00  0.00    +0.079 A 
ATOM     11  C   UNL     1       6.254   1.219  -0.086  0.00  0.00    +0.075 A 
ATOM     12  S   UNL     1       4.720   2.139  -0.065  0.00  0.00    -0.075 S 
ATOM     13  C   UNL     1       3.617   0.733  -0.049  0.00  0.00    +0.113 A 
ATOM     14  N   UNL     1       4.476  -0.277  -0.068  0.00  0.00    -0.239 NA
BRANCH  10  18
ATOM     15  C   UNL     1       8.487  -3.346  -0.147  0.00  0.00    +0.121 A 
ATOM     16  C   UNL     1       8.973  -2.050  -0.041  0.00  0.00    +0.046 A 
ATOM     17  C   UNL     1       8.098  -0.984  -0.021  0.00  0.00    +0.013 A 
ATOM     18  C   UNL     1       6.725  -1.209  -0.107  0.00  0.00    +0.001 A 
ATOM     19  C   UNL     1       6.240  -2.512  -0.207  0.00  0.00    +0.013 A 
ATOM     20  C   UNL     1       7.121  -3.574  -0.232  0.00  0.00    +0.046 A 
BRANCH  15  21
ATOM     21  O   UNL     1       9.352  -4.394  -0.166  0.00  0.00    -0.492 OA
BRANCH  21  23
ATOM     22  C   UNL     1       9.904  -6.745  -0.281  0.00  0.00    +0.048 C 
ATOM     23  C   UNL     1       8.785  -5.701  -0.276  0.00  0.00    +0.225 C 
ENDBRANCH  21  23
ENDBRANCH  15  21
ENDBRANCH  10  18
ENDBRANCH   1  13
BRANCH   9  24
ATOM     24  N   UNL     1       1.775  -1.761  -0.037  0.00  0.00    -0.356 N 
ATOM     25  H   UNL     1       1.134  -2.485  -0.107  0.00  0.00    +0.142 HD
ATOM     26  H   UNL     1       2.723  -1.956   0.022  0.00  0.00    +0.142 HD
ENDBRANCH   9  24
BRANCH   8  27
ATOM     27  C   UNL     1      -1.127  -0.847   0.013  0.00  0.00    +0.211 C 
ATOM     28  O   UNL     1      -1.686  -1.132  -1.033  0.00  0.00    -0.285 OA
BRANCH  27  29
ATOM     29  C   UNL     1      -1.642  -1.378   1.295  0.00  0.00    +0.024 A 
ATOM     30  C   UNL     1      -1.072  -0.969   2.502  0.00  0.00    +0.012 A 
ATOM     31  C   UNL     1      -1.560  -1.463   3.694  0.00  0.00    +0.004 A 
ATOM     32  C   UNL     1      -2.604  -2.371   3.694  0.00  0.00    -0.050 A 
ATOM     33  C   UNL     1      -3.170  -2.784   2.501  0.00  0.00    +0.004 A 
ATOM     34  C   UNL     1      -2.695  -2.293   1.302  0.00  0.00    +0.012 A 
ATOM     35  C   UNL     1      -3.128  -2.911   5.000  0.00  0.00    +0.044 C 
ENDBRANCH  27  29
ENDBRANCH   8  27
TORSDOF 7
