REMARK  Name = ZINC24584537
REMARK  10 active torsions:
REMARK  status: ('A' for Active; 'I' for Inactive)
REMARK    1  A    between atoms: C_1  and  C_2
REMARK    2  A    between atoms: C_2  and  C_3
REMARK    3  A    between atoms: C_2  and  C_4
REMARK    4  A    between atoms: C_7  and  C_10
REMARK    5  A    between atoms: C_10  and  C_11
REMARK    6  A    between atoms: C_11  and  N_12
REMARK    7  A    between atoms: C_13  and  C_15
REMARK    8  A    between atoms: C_15  and  N_16
REMARK    9  A    between atoms: N_19  and  C_22
REMARK   10  A    between atoms: N_25  and  C_30
REMARK                            x       y       z     vdW  Elec       q    Type
REMARK                         _______ _______ _______ _____ _____    ______ ____
ROOT
ATOM      1  N   UNL     1      -0.644  -2.526   0.257  0.00  0.00    +0.387 N 
ATOM      2  C   UNL     1       0.591  -1.982   0.837  0.00  0.00    -0.059 C 
ATOM      3  C   UNL     1       0.566  -0.454   0.741  0.00  0.00    +0.086 C 
ATOM      4  N   UNL     1       0.429  -0.056  -0.666  0.00  0.00    -0.331 N 
ATOM      5  C   UNL     1      -0.807  -0.601  -1.246  0.00  0.00    +0.086 C 
ATOM      6  C   UNL     1      -0.782  -2.128  -1.151  0.00  0.00    -0.059 C 
ATOM      7  H   UNL     1      -1.495  -2.106   0.813  0.00  0.00    -0.081 HD
ENDROOT
BRANCH   4   8
ATOM      8  C   UNL     1       0.474   1.322  -0.799  0.00  0.00    +0.074 A 
ATOM      9  C   UNL     1      -0.485   2.131  -0.154  0.00  0.00    +0.158 A 
ATOM     10  N   UNL     1      -0.442   3.429  -0.274  0.00  0.00    -0.170 NA
ATOM     11  N   UNL     1       0.544   4.049  -1.049  0.00  0.00    -0.195 N 
ATOM     12  C   UNL     1       1.477   3.314  -1.686  0.00  0.00    +0.292 A 
ATOM     13  O   UNL     1       2.334   3.862  -2.362  0.00  0.00    -0.264 OA
ATOM     14  C   UNL     1       1.456   1.917  -1.570  0.00  0.00    +0.129 A 
ATOM     15 CL   UNL     1       2.646   0.949  -2.382  0.00  0.00    -0.076 Cl
BRANCH  11  16
ATOM     16  C   UNL     1       0.562   5.443  -1.163  0.00  0.00    +0.069 A 
ATOM     17  C   UNL     1       1.747   6.142  -0.970  0.00  0.00    +0.028 A 
ATOM     18  C   UNL     1       1.762   7.518  -1.089  0.00  0.00    +0.002 A 
ATOM     19  C   UNL     1       0.598   8.201  -1.388  0.00  0.00    +0.000 A 
ATOM     20  C   UNL     1      -0.585   7.509  -1.575  0.00  0.00    +0.002 A 
ATOM     21  C   UNL     1      -0.606   6.132  -1.463  0.00  0.00    +0.028 A 
ENDBRANCH  11  16
ENDBRANCH   4   8
BRANCH   1  22
ATOM     22  C   UNL     1      -0.692  -3.988   0.397  0.00  0.00    +0.019 C 
BRANCH  22  24
ATOM     23  N   UNL     1      -0.744  -5.640   2.238  0.00  0.00    -0.317 N 
ATOM     24  C   UNL     1      -0.806  -4.349   1.856  0.00  0.00    +0.196 C 
ATOM     25  O   UNL     1      -0.953  -3.477   2.686  0.00  0.00    -0.278 OA
ATOM     26  H   UNL     1      -0.610  -6.430   1.484  0.00  0.00    +0.149 HD
BRANCH  23  27
ATOM     27  C   UNL     1      -0.855  -5.990   3.656  0.00  0.00    +0.109 C 
BRANCH  27  28
ATOM     28  C   UNL     1      -0.753  -7.509   3.815  0.00  0.00    +0.054 C 
BRANCH  28  32
ATOM     29  C   UNL     1      -1.076  -8.532   7.950  0.00  0.00    -0.045 A 
ATOM     30  C   UNL     1      -2.212  -8.457   7.166  0.00  0.00    +0.004 A 
ATOM     31  C   UNL     1      -2.108  -8.126   5.828  0.00  0.00    +0.004 A 
ATOM     32  C   UNL     1      -0.867  -7.869   5.274  0.00  0.00    -0.046 A 
ATOM     33  C   UNL     1       0.269  -7.949   6.057  0.00  0.00    +0.004 A 
ATOM     34  C   UNL     1       0.164  -8.276   7.396  0.00  0.00    +0.004 A 
BRANCH  29  36
ATOM     35  C   UNL     1      -0.393 -10.168   9.683  0.00  0.00    +0.012 C 
ATOM     36  C   UNL     1      -1.190  -8.891   9.409  0.00  0.00    +0.013 C 
ATOM     37  C   UNL     1      -0.633  -7.749  10.261  0.00  0.00    +0.012 C 
ENDBRANCH  29  36
ENDBRANCH  28  32
ENDBRANCH  27  28
ENDBRANCH  23  27
ENDBRANCH  22  24
ENDBRANCH   1  22
TORSDOF 8
