REMARK  Name = ZINC07048387
REMARK  5 active torsions:
REMARK  status: ('A' for Active; 'I' for Inactive)
REMARK    1  A    between atoms: C_1  and  C_2
REMARK    2  A    between atoms: C_9  and  C_13
REMARK    3  A    between atoms: C_13  and  O_14
REMARK    4  A    between atoms: O_14  and  C_15
REMARK    5  A    between atoms: C_15  and  C_17
REMARK                            x       y       z     vdW  Elec       q    Type
REMARK                         _______ _______ _______ _____ _____    ______ ____
ROOT
ATOM      1  C   UNL     1       2.251   5.607   0.012  0.00  0.00    +0.288 C 
ENDROOT
BRANCH   1  10
ATOM      2  C   UNL     1      -1.328   2.100   0.020  0.00  0.00    +0.047 C 
ATOM      3  C   UNL     1      -0.016   1.359   0.009  0.00  0.00    -0.008 A 
ATOM      4  C   UNL     1       0.002  -0.004   0.002  0.00  0.00    +0.008 A 
ATOM      5  C   UNL     1       1.231  -0.679  -0.013  0.00  0.00    +0.019 A 
ATOM      6  C   UNL     1       2.389   0.018  -0.021  0.00  0.00    +0.096 A 
ATOM      7  N   UNL     1       2.381   1.380  -0.013  0.00  0.00    -0.268 N 
ATOM      8  C   UNL     1       1.199   2.067   0.002  0.00  0.00    +0.144 A 
ATOM      9  N   UNL     1       1.183   3.398   0.010  0.00  0.00    -0.230 NA
ATOM     10  C   UNL     1       2.305   4.101   0.003  0.00  0.00    +0.086 A 
ATOM     11  C   UNL     1       3.526   3.454  -0.013  0.00  0.00    +0.097 A 
ATOM     12  C   UNL     1       3.551   2.055  -0.021  0.00  0.00    +0.259 A 
ATOM     13  O   UNL     1       4.613   1.454  -0.035  0.00  0.00    -0.267 OA
ENDBRANCH   1  10
BRANCH   1  14
ATOM     14  O   UNL     1       1.643   6.077  -1.220  0.00  0.00    -0.454 OA
BRANCH  14  15
ATOM     15  C   UNL     1       1.519   7.411  -1.372  0.00  0.00    +0.346 C 
ATOM     16  O   UNL     1       1.908   8.162  -0.497  0.00  0.00    -0.244 OA
BRANCH  15  17
ATOM     17  C   UNL     1       0.915   7.957  -2.589  0.00  0.00    +0.097 A 
ATOM     18  C   UNL     1       0.697   9.278  -2.939  0.00  0.00    +0.026 A 
ATOM     19  C   UNL     1       0.106   9.539  -4.169  0.00  0.00    -0.036 A 
ATOM     20  C   UNL     1      -0.236   8.465  -4.917  0.00  0.00    -0.006 A 
ATOM     21  S   UNL     1       0.276   7.092  -4.015  0.00  0.00    -0.086 S 
ATOM     22  C   UNL     1      -0.935   8.483  -6.258  0.00  0.00    +0.043 C 
ATOM     23  C   UNL     1       0.052   9.080  -7.276  0.00  0.00    +0.005 C 
ATOM     24  C   UNL     1       0.084  10.586  -7.154  0.00  0.00    +0.001 C 
ATOM     25  C   UNL     1       0.756  11.145  -5.927  0.00  0.00    +0.005 C 
ATOM     26  C   UNL     1      -0.102  10.973  -4.672  0.00  0.00    +0.036 C 
ENDBRANCH  15  17
ENDBRANCH  14  15
ENDBRANCH   1  14
TORSDOF 4
