REMARK  Name = ZINC06409800
REMARK  12 active torsions:
REMARK  status: ('A' for Active; 'I' for Inactive)
REMARK    1  A    between atoms: C_1  and  C_2
REMARK    2  A    between atoms: C_7  and  C_14
REMARK    3  A    between atoms: C_14  and  C_16
REMARK    4  A    between atoms: C_14  and  N_63
REMARK    5  A    between atoms: N_20  and  C_21
REMARK    6  A    between atoms: C_21  and  C_22
REMARK    7  A    between atoms: C_21  and  C_23
REMARK    8  A    between atoms: C_21  and  C_24
REMARK    9  A    between atoms: C_25  and  C_26
REMARK   10  A    between atoms: C_25  and  N_63
REMARK   11  A    between atoms: C_31  and  C_32
REMARK   12  A    between atoms: C_31  and  N_63
REMARK                            x       y       z     vdW  Elec       q    Type
REMARK                         _______ _______ _______ _____ _____    ______ ____
ROOT
ATOM      1  C   UNL     1      -2.193   2.306   2.210  0.00  0.00    +0.040 C 
ENDROOT
BRANCH   1   8
ATOM      2  C   UNL     1      -3.312   5.436   9.461  0.00  0.00    +0.044 C 
ATOM      3  C   UNL     1      -3.271   4.696   8.149  0.00  0.00    -0.048 A 
ATOM      4  C   UNL     1      -4.137   3.633   7.933  0.00  0.00    +0.004 A 
ATOM      5  C   UNL     1      -4.116   2.949   6.751  0.00  0.00    +0.010 A 
ATOM      6  C   UNL     1      -3.214   3.322   5.749  0.00  0.00    -0.001 A 
ATOM      7  C   UNL     1      -3.165   2.611   4.470  0.00  0.00    +0.017 A 
ATOM      8  C   UNL     1      -2.270   3.017   3.537  0.00  0.00    +0.011 A 
ATOM      9  C   UNL     1      -1.405   4.100   3.805  0.00  0.00    +0.251 A 
ATOM     10  O   UNL     1      -0.604   4.446   2.954  0.00  0.00    -0.268 OA
ATOM     11  N   UNL     1      -1.447   4.763   4.974  0.00  0.00    -0.322 N 
ATOM     12  H   UNL     1      -0.841   5.506   5.125  0.00  0.00    +0.169 HD
ATOM     13  C   UNL     1      -2.334   4.400   5.965  0.00  0.00    +0.049 A 
ATOM     14  C   UNL     1      -2.373   5.081   7.177  0.00  0.00    +0.029 A 
ENDBRANCH   1   8
BRANCH   1  15
ATOM     15  C   UNL     1      -2.553   3.265   1.105  0.00  0.00    +0.143 A 
ATOM     16  N   UNL     1      -1.799   4.222   0.623  0.00  0.00    -0.115 NA
ATOM     17  N   UNL     1      -2.459   4.817  -0.310  0.00  0.00    -0.023 NA
ATOM     18  N   UNL     1      -3.618   4.270  -0.430  0.00  0.00    -0.043 NA
ATOM     19  N   UNL     1      -3.714   3.309   0.425  0.00  0.00    -0.225 N 
BRANCH  19  20
ATOM     20  C   UNL     1      -4.870   2.430   0.620  0.00  0.00    +0.059 C 
ATOM     21  C   UNL     1      -5.322   2.497   2.080  0.00  0.00    +0.036 C 
ATOM     22  C   UNL     1      -6.013   2.882  -0.290  0.00  0.00    +0.036 C 
ATOM     23  C   UNL     1      -4.481   0.991   0.273  0.00  0.00    +0.036 C 
ENDBRANCH  19  20
ENDBRANCH   1  15
BRANCH   1  24
ATOM     24  N   UNL     1      -0.810   1.830   1.997  0.00  0.00    +0.397 N 
ATOM     25  H   UNL     1      -0.194   2.642   1.871  0.00  0.00    -0.079 HD
BRANCH  24  26
ATOM     26  C   UNL     1      -0.354   1.058   3.172  0.00  0.00    -0.001 C 
BRANCH  26  27
ATOM     27  C   UNL     1       1.119   0.775   3.027  0.00  0.00    +0.089 A 
ATOM     28  C   UNL     1       2.118   1.566   3.457  0.00  0.00    +0.042 A 
ATOM     29  C   UNL     1       3.328   0.917   3.120  0.00  0.00    +0.041 A 
ATOM     30  C   UNL     1       2.996  -0.231   2.504  0.00  0.00    +0.195 A 
ATOM     31  O   UNL     1       1.656  -0.312   2.450  0.00  0.00    -0.470 OA
ENDBRANCH  26  27
ENDBRANCH  24  26
BRANCH  24  32
ATOM     32  C   UNL     1      -0.748   0.988   0.784  0.00  0.00    -0.034 C 
BRANCH  32  33
ATOM     33  C   UNL     1      -0.571   1.883  -0.415  0.00  0.00    -0.027 A 
ATOM     34  C   UNL     1       0.565   2.435  -0.908  0.00  0.00    +0.009 A 
ATOM     35  C   UNL     1       0.488   3.233  -2.034  0.00  0.00    +0.008 A 
ATOM     36  C   UNL     1      -0.721   3.441  -2.612  0.00  0.00    +0.045 A 
ATOM     37  S   UNL     1      -1.802   2.486  -1.559  0.00  0.00    -0.103 S 
ENDBRANCH  32  33
ENDBRANCH  24  32
ENDBRANCH   1  24
TORSDOF 8
