REMARK  Name = ZINC09127381
REMARK  10 active torsions:
REMARK  status: ('A' for Active; 'I' for Inactive)
REMARK    1  A    between atoms: C_1  and  C_2
REMARK    2  A    between atoms: C_5  and  N_11
REMARK    3  A    between atoms: C_6  and  N_8
REMARK    4  A    between atoms: C_12  and  C_14
REMARK    5  A    between atoms: C_14  and  C_16
REMARK    6  A    between atoms: C_14  and  S_22
REMARK    7  A    between atoms: S_22  and  C_23
REMARK    8  A    between atoms: C_26  and  C_35
REMARK    9  A    between atoms: N_27  and  C_28
REMARK   10  A    between atoms: C_28  and  C_29
REMARK                            x       y       z     vdW  Elec       q    Type
REMARK                         _______ _______ _______ _____ _____    ______ ____
ROOT
ATOM      1  C   UNL     1      -0.010   1.078  -0.001  0.00  0.00    +0.170 C 
ENDROOT
BRANCH   1   2
ATOM      2  C   UNL     1      -0.723   1.547   1.242  0.00  0.00    -0.025 A 
ATOM      3  C   UNL     1      -0.869   2.900   1.486  0.00  0.00    +0.005 A 
ATOM      4  C   UNL     1      -1.526   3.330   2.623  0.00  0.00    +0.000 A 
ATOM      5  C   UNL     1      -2.030   2.408   3.521  0.00  0.00    +0.000 A 
ATOM      6  C   UNL     1      -1.880   1.055   3.279  0.00  0.00    +0.000 A 
ATOM      7  C   UNL     1      -1.226   0.625   2.139  0.00  0.00    +0.005 A 
ENDBRANCH   1   2
BRANCH   1   9
ATOM      8  N   UNL     1       2.371   0.938   0.653  0.00  0.00    -0.282 N 
ATOM      9  C   UNL     1       1.401   1.607  -0.000  0.00  0.00    +0.235 C 
ATOM     10  O   UNL     1       1.663   2.635  -0.588  0.00  0.00    -0.274 OA
ATOM     11  H   UNL     1       2.148   0.161   1.189  0.00  0.00    +0.155 HD
BRANCH   8  16
ATOM     12  C   UNL     1       7.761   2.666   0.269  0.00  0.00    +0.044 C 
ATOM     13  C   UNL     1       6.329   2.207   0.370  0.00  0.00    -0.048 A 
ATOM     14  C   UNL     1       5.434   2.508  -0.640  0.00  0.00    +0.005 A 
ATOM     15  C   UNL     1       4.122   2.088  -0.550  0.00  0.00    +0.026 A 
ATOM     16  C   UNL     1       3.701   1.364   0.558  0.00  0.00    +0.064 A 
ATOM     17  C   UNL     1       4.600   1.068   1.573  0.00  0.00    +0.148 A 
ATOM     18  C   UNL     1       5.913   1.486   1.474  0.00  0.00    +0.038 A 
BRANCH  17  19
ATOM     19  N   UNL     1       4.154   0.301   2.758  0.00  0.00    +0.058 N 
ATOM     20  O   UNL     1       4.918   0.119   3.689  0.00  0.00    -0.126 OA
ATOM     21  O   UNL     1       3.023  -0.148   2.802  0.00  0.00    -0.126 OA
ENDBRANCH  17  19
ENDBRANCH   8  16
ENDBRANCH   1   9
BRANCH   1  22
ATOM     22  S   UNL     1      -0.883   1.689  -1.464  0.00  0.00    -0.068 S 
BRANCH  22  23
ATOM     23  C   UNL     1      -2.407   0.821  -1.296  0.00  0.00    +0.193 A 
ATOM     24  N   UNL     1      -2.724  -0.021  -0.340  0.00  0.00    -0.122 NA
ATOM     25  N   UNL     1      -3.915  -0.466  -0.528  0.00  0.00    -0.133 NA
ATOM     26  C   UNL     1      -4.422   0.054  -1.610  0.00  0.00    +0.137 A 
ATOM     27  N   UNL     1      -3.480   0.893  -2.138  0.00  0.00    -0.301 N 
BRANCH  26  28
ATOM     28  C   UNL     1      -5.792  -0.218  -2.175  0.00  0.00    +0.057 C 
ATOM     29  C   UNL     1      -6.762  -1.032  -1.316  0.00  0.00    +0.012 C 
ATOM     30  C   UNL     1      -6.125  -1.661  -2.558  0.00  0.00    +0.012 C 
ENDBRANCH  26  28
BRANCH  27  31
ATOM     31  C   UNL     1      -3.597   1.701  -3.354  0.00  0.00    +0.160 C 
BRANCH  31  32
ATOM     32  C   UNL     1      -3.108   0.903  -4.536  0.00  0.00    -0.028 A 
ATOM     33  C   UNL     1      -1.778   0.964  -4.908  0.00  0.00    +0.005 A 
ATOM     34  C   UNL     1      -1.328   0.228  -5.989  0.00  0.00    +0.000 A 
ATOM     35  C   UNL     1      -2.211  -0.559  -6.704  0.00  0.00    +0.000 A 
ATOM     36  C   UNL     1      -3.542  -0.615  -6.335  0.00  0.00    +0.000 A 
ATOM     37  C   UNL     1      -3.990   0.116  -5.251  0.00  0.00    +0.005 A 
ENDBRANCH  31  32
ENDBRANCH  27  31
ENDBRANCH  22  23
ENDBRANCH   1  22
TORSDOF 9
