REMARK  Name = ZINC36206219
REMARK  15 active torsions:
REMARK  status: ('A' for Active; 'I' for Inactive)
REMARK    1  A    between atoms: C_1  and  C_2
REMARK    2  A    between atoms: C_2  and  C_3
REMARK    3  A    between atoms: C_3  and  N_4
REMARK    4  A    between atoms: N_4  and  C_5
REMARK    5  A    between atoms: N_4  and  C_24
REMARK    6  A    between atoms: C_5  and  C_6
REMARK    7  A    between atoms: C_12  and  C_17
REMARK    8  A    between atoms: C_24  and  C_25
REMARK    9  A    between atoms: C_25  and  C_27
REMARK   10  A    between atoms: C_25  and  O_33
REMARK   11  A    between atoms: C_27  and  O_28
REMARK   12  A    between atoms: O_28  and  C_29
REMARK   13  A    between atoms: C_29  and  C_30
REMARK   14  A    between atoms: C_29  and  C_31
REMARK   15  A    between atoms: C_29  and  C_32
REMARK                            x       y       z     vdW  Elec       q    Type
REMARK                         _______ _______ _______ _____ _____    ______ ____
ROOT
ATOM      1  C   UNL     1      -0.394  -4.047  -1.083  0.00  0.00    +0.094 A 
ATOM      2  N   UNL     1      -1.527  -4.795  -1.085  0.00  0.00    -0.312 N 
ATOM      3  H   UNL     1      -2.378  -4.370  -1.275  0.00  0.00    +0.170 HD
ATOM      4  C   UNL     1      -1.494  -6.116  -0.828  0.00  0.00    +0.260 A 
ATOM      5  O   UNL     1      -2.520  -6.774  -0.834  0.00  0.00    -0.267 OA
ATOM      6  C   UNL     1      -0.234  -6.737  -0.548  0.00  0.00    +0.080 A 
ATOM      7  C   UNL     1       0.060  -8.132  -0.244  0.00  0.00    +0.004 A 
ATOM      8  C   UNL     1       1.345  -8.491  -0.011  0.00  0.00    +0.056 A 
ATOM      9  S   UNL     1       2.240  -6.960  -0.190  0.00  0.00    -0.076 S 
ATOM     10  C   UNL     1       0.882  -5.884  -0.569  0.00  0.00    +0.116 A 
ATOM     11  N   UNL     1       0.770  -4.585  -0.836  0.00  0.00    -0.229 NA
ENDROOT
BRANCH   7  12
ATOM     12  C   UNL     1      -1.027  -9.138  -0.190  0.00  0.00    -0.016 A 
ATOM     13  C   UNL     1      -2.176  -8.888   0.560  0.00  0.00    +0.010 A 
ATOM     14  C   UNL     1      -3.185  -9.828   0.606  0.00  0.00    +0.020 A 
ATOM     15  C   UNL     1      -3.058 -11.018  -0.090  0.00  0.00    +0.041 A 
ATOM     16  C   UNL     1      -1.920 -11.271  -0.836  0.00  0.00    +0.020 A 
ATOM     17  C   UNL     1      -0.908 -10.336  -0.894  0.00  0.00    +0.010 A 
ATOM     18 CL   UNL     1      -4.332 -12.196  -0.028  0.00  0.00    -0.084 Cl
ENDBRANCH   7  12
BRANCH   1  19
ATOM     19  C   UNL     1      -0.481  -2.572  -1.377  0.00  0.00    -0.003 C 
BRANCH  19  20
ATOM     20  N   UNL     1       0.874  -2.012  -1.475  0.00  0.00    +0.386 N 
ATOM     21  H   UNL     1       1.399  -2.254  -0.648  0.00  0.00    -0.081 HD
BRANCH  20  22
ATOM     22  C   UNL     1       0.792  -0.550  -1.593  0.00  0.00    -0.078 C 
BRANCH  22  24
ATOM     23  C   UNL     1       0.262   1.562  -0.368  0.00  0.00    +0.002 C 
ATOM     24  C   UNL     1       0.211   0.034  -0.303  0.00  0.00    -0.022 C 
ENDBRANCH  22  24
ENDBRANCH  20  22
BRANCH  20  25
ATOM     25  C   UNL     1       1.546  -2.562  -2.660  0.00  0.00    -0.044 C 
BRANCH  25  26
ATOM     26  C   UNL     1       2.997  -2.077  -2.695  0.00  0.00    +0.124 C 
BRANCH  26  27
ATOM     27  O   UNL     1       3.705  -2.613  -1.575  0.00  0.00    -0.391 OA
ATOM     28  H   UNL     1       3.728  -3.579  -1.550  0.00  0.00    +0.210 HD
ENDBRANCH  26  27
BRANCH  26  29
ATOM     29  C   UNL     1       3.660  -2.546  -3.990  0.00  0.00    +0.189 C 
BRANCH  29  30
ATOM     30  O   UNL     1       4.977  -1.997  -4.077  0.00  0.00    -0.372 OA
BRANCH  30  31
ATOM     31  C   UNL     1       5.688  -2.375  -5.258  0.00  0.00    +0.061 C 
ATOM     32  C   UNL     1       4.918  -1.901  -6.492  0.00  0.00    +0.041 C 
ATOM     33  C   UNL     1       7.077  -1.733  -5.245  0.00  0.00    +0.041 C 
ATOM     34  C   UNL     1       5.831  -3.898  -5.300  0.00  0.00    +0.041 C 
ENDBRANCH  30  31
ENDBRANCH  29  30
ENDBRANCH  26  29
ENDBRANCH  25  26
ENDBRANCH  20  25
ENDBRANCH  19  20
ENDBRANCH   1  19
TORSDOF 11
