REMARK  Name = ZINC40701883
REMARK  8 active torsions:
REMARK  status: ('A' for Active; 'I' for Inactive)
REMARK    1  A    between atoms: C_4  and  N_11
REMARK    2  A    between atoms: C_5  and  C_7
REMARK    3  A    between atoms: C_13  and  N_27
REMARK    4  A    between atoms: C_14  and  N_18
REMARK    5  A    between atoms: N_18  and  C_19
REMARK    6  A    between atoms: C_19  and  C_20
REMARK    7  A    between atoms: C_20  and  C_21
REMARK    8  A    between atoms: C_21  and  N_22
REMARK                            x       y       z     vdW  Elec       q    Type
REMARK                         _______ _______ _______ _____ _____    ______ ____
ROOT
ATOM      1  N   UNL     1       3.620  -0.650  -0.037  0.00  0.00    -0.297 N 
ATOM      2  C   UNL     1       4.811   0.060  -0.151  0.00  0.00    +0.149 A 
ATOM      3  C   UNL     1       6.027  -0.612  -0.278  0.00  0.00    +0.105 A 
ATOM      4  C   UNL     1       7.193   0.149  -0.389  0.00  0.00    +0.145 A 
ATOM      5  N   UNL     1       7.100   1.476  -0.369  0.00  0.00    -0.219 NA
ATOM      6  C   UNL     1       5.931   2.072  -0.247  0.00  0.00    +0.225 A 
ATOM      7  N   UNL     1       4.807   1.391  -0.145  0.00  0.00    -0.219 NA
ATOM      8  H   UNL     1       3.638  -1.616   0.041  0.00  0.00    +0.154 HD
ENDROOT
BRANCH   1  12
ATOM      9  C   UNL     1      -0.019   1.375  -0.035  0.00  0.00    +0.001 A 
ATOM     10  C   UNL     1       1.088   1.946  -0.635  0.00  0.00    +0.002 A 
ATOM     11  C   UNL     1       2.296   1.278  -0.638  0.00  0.00    +0.024 A 
ATOM     12  C   UNL     1       2.399   0.030  -0.036  0.00  0.00    +0.044 A 
ATOM     13  C   UNL     1       1.286  -0.541   0.567  0.00  0.00    +0.076 A 
ATOM     14  C   UNL     1       0.080   0.133   0.566  0.00  0.00    +0.014 A 
BRANCH  13  15
ATOM     15  C   UNL     1       1.393  -1.895   1.221  0.00  0.00    +0.419 C 
ATOM     16  F   UNL     1       0.150  -2.255   1.753  0.00  0.00    -0.166 F 
ATOM     17  F   UNL     1       1.784  -2.842   0.269  0.00  0.00    -0.166 F 
ATOM     18  F   UNL     1       2.342  -1.843   2.247  0.00  0.00    -0.166 F 
ENDBRANCH  13  15
ENDBRANCH   1  12
BRANCH   3  19
ATOM     19  N   UNL     1       6.078  -2.015  -0.294  0.00  0.00    -0.353 N 
ATOM     20  H   UNL     1       5.260  -2.531  -0.216  0.00  0.00    +0.143 HD
ATOM     21  H   UNL     1       6.931  -2.469  -0.384  0.00  0.00    +0.143 HD
ENDBRANCH   3  19
BRANCH   4  22
ATOM     22  N   UNL     1       8.430  -0.470  -0.518  0.00  0.00    -0.327 N 
ATOM     23  H   UNL     1       8.489  -1.439  -0.532  0.00  0.00    +0.148 HD
BRANCH  22  24
ATOM     24  C   UNL     1       9.646   0.339  -0.634  0.00  0.00    +0.105 C 
BRANCH  24  25
ATOM     25  C   UNL     1      10.861  -0.581  -0.763  0.00  0.00    +0.040 C 
BRANCH  25  26
ATOM     26  C   UNL     1      12.130   0.264  -0.884  0.00  0.00    +0.124 C 
BRANCH  26  27
ATOM     27  N   UNL     1      13.294  -0.617  -1.007  0.00  0.00    -0.338 N 
ATOM     28  C   UNL     1      14.046  -1.119   0.021  0.00  0.00    +0.104 A 
ATOM     29  C   UNL     1      15.010  -1.877  -0.535  0.00  0.00    +0.101 A 
ATOM     30  N   UNL     1      14.851  -1.840  -1.866  0.00  0.00    -0.352 N 
ATOM     31  C   UNL     1      13.822  -1.091  -2.156  0.00  0.00    +0.173 A 
ATOM     32  H   UNL     1      15.410  -2.300  -2.512  0.00  0.00    +0.166 HD
ENDBRANCH  26  27
ENDBRANCH  25  26
ENDBRANCH  24  25
ENDBRANCH  22  24
ENDBRANCH   4  22
TORSDOF 8
