REMARK  Name = ZINC64985797
REMARK  9 active torsions:
REMARK  status: ('A' for Active; 'I' for Inactive)
REMARK    1  A    between atoms: C_1  and  C_2
REMARK    2  A    between atoms: C_2  and  C_3
REMARK    3  A    between atoms: C_3  and  C_4
REMARK    4  A    between atoms: C_4  and  C_5
REMARK    5  A    between atoms: C_8  and  N_12
REMARK    6  A    between atoms: C_13  and  C_15
REMARK    7  A    between atoms: C_15  and  O_16
REMARK    8  A    between atoms: O_16  and  C_17
REMARK    9  A    between atoms: C_22  and  N_23
REMARK                            x       y       z     vdW  Elec       q    Type
REMARK                         _______ _______ _______ _____ _____    ______ ____
ROOT
ATOM      1  N   UNL     1      -6.735  -4.029   0.047  0.00  0.00    -0.282 N 
ATOM      2  C   UNL     1      -7.529  -3.801   1.111  0.00  0.00    +0.255 C 
ATOM      3  O   UNL     1      -7.138  -3.099   2.020  0.00  0.00    -0.272 OA
ATOM      4  H   UNL     1      -7.076  -4.522  -0.716  0.00  0.00    +0.155 HD
ENDROOT
BRANCH   1   8
ATOM      5  C   UNL     1      -2.816  -2.613   0.029  0.00  0.00    -0.046 A 
ATOM      6  C   UNL     1      -3.459  -2.852   1.230  0.00  0.00    +0.005 A 
ATOM      7  C   UNL     1      -4.758  -3.321   1.239  0.00  0.00    +0.025 A 
ATOM      8  C   UNL     1      -5.419  -3.553   0.041  0.00  0.00    +0.048 A 
ATOM      9  C   UNL     1      -4.771  -3.312  -1.165  0.00  0.00    +0.039 A 
ATOM     10  C   UNL     1      -3.473  -2.838  -1.167  0.00  0.00    +0.020 A 
ATOM     11 BR   UNL     1      -5.667  -3.627  -2.800  0.00  0.00    -0.048 Br
BRANCH   5  12
ATOM     12  C   UNL     1      -1.399  -2.102   0.023  0.00  0.00    +0.035 C 
BRANCH  12  13
ATOM     13  C   UNL     1      -1.408  -0.572   0.036  0.00  0.00    +0.004 C 
BRANCH  13  15
ATOM     14  C   UNL     1       0.021   1.477   0.042  0.00  0.00    +0.004 C 
ATOM     15  C   UNL     1       0.031  -0.053   0.030  0.00  0.00    -0.003 C 
ENDBRANCH  13  15
ENDBRANCH  12  13
ENDBRANCH   5  12
ENDBRANCH   1   8
BRANCH   2  16
ATOM     16  C   UNL     1      -8.903  -4.418   1.173  0.00  0.00    +0.325 C 
BRANCH  16  17
ATOM     17  O   UNL     1      -9.545  -4.031   2.390  0.00  0.00    -0.480 OA
BRANCH  17  18
ATOM     18  C   UNL     1     -10.800  -4.506   2.603  0.00  0.00    +0.151 A 
ATOM     19  C   UNL     1     -11.400  -5.332   1.662  0.00  0.00    +0.048 A 
ATOM     20  C   UNL     1     -12.676  -5.813   1.881  0.00  0.00    +0.004 A 
ATOM     21  C   UNL     1     -13.356  -5.473   3.037  0.00  0.00    +0.002 A 
ATOM     22  C   UNL     1     -12.760  -4.650   3.975  0.00  0.00    +0.036 A 
ATOM     23  C   UNL     1     -11.482  -4.171   3.763  0.00  0.00    +0.168 A 
BRANCH  23  24
ATOM     24  N   UNL     1     -10.843  -3.295   4.771  0.00  0.00    +0.060 N 
ATOM     25  O   UNL     1     -11.438  -3.003   5.782  0.00  0.00    -0.126 OA
ATOM     26  O   UNL     1      -9.726  -2.871   4.583  0.00  0.00    -0.126 OA
ENDBRANCH  23  24
ENDBRANCH  17  18
ENDBRANCH  16  17
ENDBRANCH   2  16
TORSDOF 8
