REMARK  Name = ZINC03240293
REMARK  11 active torsions:
REMARK  status: ('A' for Active; 'I' for Inactive)
REMARK    1  A    between atoms: C_1  and  C_2
REMARK    2  A    between atoms: C_2  and  N_3
REMARK    3  A    between atoms: N_3  and  C_4
REMARK    4  A    between atoms: N_3  and  S_6
REMARK    5  A    between atoms: C_4  and  C_5
REMARK    6  A    between atoms: S_6  and  C_9
REMARK    7  A    between atoms: C_13  and  C_15
REMARK    8  A    between atoms: C_15  and  O_17
REMARK    9  A    between atoms: O_17  and  C_18
REMARK   10  A    between atoms: C_18  and  C_19
REMARK   11  A    between atoms: C_27  and  C_31
REMARK                            x       y       z     vdW  Elec       q    Type
REMARK                         _______ _______ _______ _____ _____    ______ ____
ROOT
ATOM      1  C   UNL     1       8.976   5.620  -0.054  0.00  0.00    +0.341 C 
ATOM      2  O   UNL     1       9.983   4.942  -0.067  0.00  0.00    -0.245 OA
ENDROOT
BRANCH   1   7
ATOM      3  C   UNL     1       8.021   9.251  -0.028  0.00  0.00    +0.106 A 
ATOM      4  C   UNL     1       9.266   9.857  -0.036  0.00  0.00    +0.030 A 
ATOM      5  C   UNL     1      10.416   9.089  -0.051  0.00  0.00    +0.023 A 
ATOM      6  C   UNL     1      10.330   7.711  -0.057  0.00  0.00    +0.055 A 
ATOM      7  C   UNL     1       9.076   7.093  -0.048  0.00  0.00    +0.079 A 
ATOM      8  C   UNL     1       7.920   7.875  -0.039  0.00  0.00    +0.045 A 
ATOM      9 CL   UNL     1      11.775   6.748  -0.075  0.00  0.00    -0.083 Cl
BRANCH   3  10
ATOM     10  S   UNL     1       6.562  10.239  -0.010  0.00  0.00    +0.061 S 
ATOM     11  O   UNL     1       5.533   9.433   0.546  0.00  0.00    -0.153 OA
ATOM     12  O   UNL     1       6.930  11.495   0.544  0.00  0.00    -0.153 OA
BRANCH  10  13
ATOM     13  N   UNL     1       6.143  10.521  -1.587  0.00  0.00    -0.177 NA
BRANCH  13  15
ATOM     14  C   UNL     1       3.808  10.113  -2.191  0.00  0.00    +0.022 C 
ATOM     15  C   UNL     1       5.246   9.596  -2.283  0.00  0.00    +0.106 C 
ENDBRANCH  13  15
BRANCH  13  16
ATOM     16  C   UNL     1       6.669  11.697  -2.286  0.00  0.00    +0.106 C 
ATOM     17  C   UNL     1       7.922  11.305  -3.071  0.00  0.00    +0.022 C 
ENDBRANCH  13  16
ENDBRANCH  10  13
ENDBRANCH   3  10
ENDBRANCH   1   7
BRANCH   1  18
ATOM     18  O   UNL     1       7.766   5.027  -0.046  0.00  0.00    -0.452 OA
BRANCH  18  19
ATOM     19  C   UNL     1       7.742   3.576  -0.053  0.00  0.00    +0.328 C 
BRANCH  19  20
ATOM     20  C   UNL     1       6.314   3.096  -0.042  0.00  0.00    +0.256 C 
ATOM     21  O   UNL     1       5.405   3.899  -0.029  0.00  0.00    -0.272 OA
ATOM     22  N   UNL     1       6.046   1.775  -0.046  0.00  0.00    -0.262 N 
ATOM     23  C   UNL     1       4.733   1.335  -0.036  0.00  0.00    +0.166 A 
ATOM     24  N   UNL     1       3.627   2.042  -0.021  0.00  0.00    -0.225 NA
ATOM     25  C   UNL     1       2.402   1.474  -0.013  0.00  0.00    +0.080 A 
ATOM     26  C   UNL     1       1.142   2.115   0.003  0.00  0.00    +0.029 A 
ATOM     27  C   UNL     1      -0.017   1.383   0.010  0.00  0.00    +0.005 A 
ATOM     28  C   UNL     1       0.002  -0.004   0.002  0.00  0.00    -0.049 A 
ATOM     29  C   UNL     1       1.217  -0.665  -0.013  0.00  0.00    +0.020 A 
ATOM     30  C   UNL     1       2.382   0.060  -0.020  0.00  0.00    +0.041 A 
ATOM     31  S   UNL     1       4.113  -0.342  -0.039  0.00  0.00    -0.052 S 
ATOM     32  C   UNL     1      -1.288  -0.783   0.011  0.00  0.00    +0.044 C 
ATOM     33  H   UNL     1       6.773   1.133  -0.056  0.00  0.00    +0.157 HD
ENDBRANCH  19  20
ENDBRANCH  18  19
ENDBRANCH   1  18
TORSDOF 8
