REMARK  Name = ZINC40760542
REMARK  5 active torsions:
REMARK  status: ('A' for Active; 'I' for Inactive)
REMARK    1  A    between atoms: C_1  and  C_2
REMARK    2  A    between atoms: C_2  and  C_4
REMARK    3  A    between atoms: C_2  and  N_10
REMARK    4  A    between atoms: C_12  and  N_29
REMARK    5  A    between atoms: C_13  and  N_17
REMARK                            x       y       z     vdW  Elec       q    Type
REMARK                         _______ _______ _______ _____ _____    ______ ____
ROOT
ATOM      1  N   UNL     1       0.673  -0.539  -1.157  0.00  0.00    -0.321 N 
ATOM      2  C   UNL     1       2.059  -0.633  -1.186  0.00  0.00    +0.145 A 
ATOM      3  C   UNL     1       2.715  -1.080  -2.334  0.00  0.00    +0.105 A 
ATOM      4  C   UNL     1       4.109  -1.155  -2.311  0.00  0.00    +0.147 A 
ATOM      5  N   UNL     1       4.754  -0.801  -1.202  0.00  0.00    -0.219 NA
ATOM      6  C   UNL     1       4.097  -0.384  -0.139  0.00  0.00    +0.225 A 
ATOM      7  N   UNL     1       2.782  -0.294  -0.121  0.00  0.00    -0.219 NA
ATOM      8  H   UNL     1       0.153  -0.788  -1.937  0.00  0.00    +0.148 HD
ENDROOT
BRANCH   4   9
ATOM      9  N   UNL     1       4.811  -1.593  -3.427  0.00  0.00    -0.311 N 
ATOM     10  C   UNL     1       5.359  -0.630  -4.392  0.00  0.00    +0.125 C 
ATOM     11  C   UNL     1       6.863  -0.888  -4.542  0.00  0.00    +0.125 C 
ATOM     12  N   UNL     1       7.072  -2.324  -4.778  0.00  0.00    -0.314 N 
ATOM     13  C   UNL     1       6.524  -3.287  -3.813  0.00  0.00    +0.125 C 
ATOM     14  C   UNL     1       5.024  -3.029  -3.660  0.00  0.00    +0.125 C 
ATOM     15  C   UNL     1       7.774  -2.762  -5.895  0.00  0.00    +0.099 A 
ATOM     16  C   UNL     1       8.402  -1.836  -6.722  0.00  0.00    +0.042 A 
ATOM     17  C   UNL     1       9.098  -2.286  -7.829  0.00  0.00    +0.005 A 
ATOM     18  C   UNL     1       9.142  -3.653  -8.073  0.00  0.00    +0.018 A 
ATOM     19  C   UNL     1       8.497  -4.515  -7.211  0.00  0.00    +0.084 A 
ATOM     20  N   UNL     1       7.845  -4.058  -6.158  0.00  0.00    -0.350 N 
ATOM     21  H   UNL     1       7.403  -4.686  -5.566  0.00  0.00    +0.166 HD
ENDBRANCH   4   9
BRANCH   3  22
ATOM     22  N   UNL     1       1.992  -1.444  -3.483  0.00  0.00    -0.353 N 
ATOM     23  H   UNL     1       1.023  -1.457  -3.462  0.00  0.00    +0.143 HD
ATOM     24  H   UNL     1       2.463  -1.682  -4.297  0.00  0.00    +0.143 HD
ENDBRANCH   3  22
BRANCH   1  26
ATOM     25  C   UNL     1      -0.047   1.466   0.045  0.00  0.00    +0.033 C 
ATOM     26  C   UNL     1      -0.004  -0.063   0.053  0.00  0.00    +0.099 C 
BRANCH  26  27
ATOM     27  C   UNL     1      -1.410  -0.605   0.088  0.00  0.00    -0.028 A 
ATOM     28  C   UNL     1      -2.154  -0.671  -1.075  0.00  0.00    +0.005 A 
ATOM     29  C   UNL     1      -3.444  -1.168  -1.043  0.00  0.00    +0.000 A 
ATOM     30  C   UNL     1      -3.989  -1.599   0.152  0.00  0.00    +0.000 A 
ATOM     31  C   UNL     1      -3.244  -1.533   1.315  0.00  0.00    +0.000 A 
ATOM     32  C   UNL     1      -1.953  -1.040   1.282  0.00  0.00    +0.005 A 
ENDBRANCH  26  27
ENDBRANCH   1  26
TORSDOF 4
