REMARK  Name = ZINC20920100
REMARK  14 active torsions:
REMARK  status: ('A' for Active; 'I' for Inactive)
REMARK    1  A    between atoms: C_1  and  C_2
REMARK    2  A    between atoms: C_2  and  C_3
REMARK    3  A    between atoms: C_3  and  C_4
REMARK    4  A    between atoms: C_4  and  N_5
REMARK    5  A    between atoms: N_5  and  C_6
REMARK    6  A    between atoms: N_5  and  C_8
REMARK    7  A    between atoms: C_6  and  C_7
REMARK    8  A    between atoms: C_8  and  C_9
REMARK    9  A    between atoms: C_9  and  N_10
REMARK   10  A    between atoms: C_16  and  C_31
REMARK   11  A    between atoms: C_19  and  C_20
REMARK   12  A    between atoms: C_19  and  C_21
REMARK   13  A    between atoms: N_23  and  C_24
REMARK   14  A    between atoms: C_27  and  C_30
REMARK                            x       y       z     vdW  Elec       q    Type
REMARK                         _______ _______ _______ _____ _____    ______ ____
ROOT
ATOM      1  N   UNL     1      -2.126  -1.699   5.078  0.00  0.00    -0.282 N 
ATOM      2  C   UNL     1      -1.672  -0.439   4.876  0.00  0.00    +0.264 C 
ATOM      3  O   UNL     1      -0.717   0.004   5.487  0.00  0.00    -0.268 OA
ATOM      4  C   UNL     1      -2.393   0.364   3.883  0.00  0.00    +0.105 A 
ATOM      5  C   UNL     1      -2.096   1.576   3.326  0.00  0.00    +0.033 A 
ATOM      6  C   UNL     1      -3.122   1.885   2.431  0.00  0.00    +0.032 A 
ATOM      7  C   UNL     1      -4.041   0.848   2.466  0.00  0.00    +0.085 A 
ATOM      8  N   UNL     1      -3.606  -0.073   3.360  0.00  0.00    -0.331 N 
ATOM      9  C   UNL     1      -4.220  -1.332   3.792  0.00  0.00    +0.157 C 
ATOM     10  C   UNL     1      -3.119  -2.310   4.202  0.00  0.00    +0.128 C 
ATOM     11  C   UNL     1      -3.758  -3.494   4.931  0.00  0.00    +0.043 C 
ENDROOT
BRANCH   7  12
ATOM     12  C   UNL     1      -5.274   0.762   1.671  0.00  0.00    +0.151 A 
ATOM     13  C   UNL     1      -5.668   1.642   0.706  0.00  0.00    +0.051 A 
ATOM     14  C   UNL     1      -6.897   1.173   0.208  0.00  0.00    +0.042 A 
ATOM     15  C   UNL     1      -7.198   0.048   0.890  0.00  0.00    +0.196 A 
ATOM     16  O   UNL     1      -6.216  -0.197   1.772  0.00  0.00    -0.461 OA
ENDBRANCH   7  12
BRANCH  10  17
ATOM     17  C   UNL     1      -2.429  -2.816   2.962  0.00  0.00    +0.238 C 
ATOM     18  O   UNL     1      -2.814  -3.834   2.427  0.00  0.00    -0.273 OA
ATOM     19  N   UNL     1      -1.385  -2.138   2.447  0.00  0.00    -0.311 N 
ATOM     20  H   UNL     1      -1.036  -1.214   2.932  0.00  0.00    +0.149 HD
BRANCH  19  21
ATOM     21  C   UNL     1      -0.715  -2.630   1.240  0.00  0.00    +0.073 C 
ATOM     22  C   UNL     1       0.725  -2.114   1.211  0.00  0.00    +0.022 C 
ATOM     23  C   UNL     1       0.718  -0.584   1.202  0.00  0.00    +0.005 C 
ATOM     24  C   UNL     1      -0.028  -0.084  -0.036  0.00  0.00    -0.014 C 
ATOM     25  C   UNL     1      -1.468  -0.600  -0.006  0.00  0.00    +0.005 C 
ATOM     26  C   UNL     1      -1.462  -2.130   0.002  0.00  0.00    +0.022 C 
ATOM     27  C   UNL     1      -0.035   1.446  -0.045  0.00  0.00    +0.007 C 
ENDBRANCH  19  21
ENDBRANCH  10  17
BRANCH   1  28
ATOM     28  C   UNL     1      -1.603  -2.470   6.208  0.00  0.00    +0.091 C 
BRANCH  28  29
ATOM     29  C   UNL     1      -0.366  -3.253   5.764  0.00  0.00    -0.060 C 
BRANCH  29  30
ATOM     30  N   UNL     1       0.230  -3.927   6.925  0.00  0.00    +0.381 N 
ATOM     31  H   UNL     1       0.216  -3.222   7.769  0.00  0.00    -0.082 HD
BRANCH  30  32
ATOM     32  C   UNL     1       1.629  -4.289   6.662  0.00  0.00    -0.082 C 
ATOM     33  C   UNL     1       2.505  -3.037   6.748  0.00  0.00    -0.017 C 
ENDBRANCH  30  32
BRANCH  30  34
ATOM     34  C   UNL     1      -0.556  -5.107   7.309  0.00  0.00    -0.079 C 
BRANCH  34  35
ATOM     35  C   UNL     1      -0.057  -5.635   8.656  0.00  0.00    -0.019 C 
BRANCH  35  37
ATOM     36  C   UNL     1      -0.377  -7.393  10.403  0.00  0.00    +0.004 C 
ATOM     37  C   UNL     1      -0.875  -6.865   9.056  0.00  0.00    -0.005 C 
ENDBRANCH  35  37
ENDBRANCH  34  35
ENDBRANCH  30  34
ENDBRANCH  29  30
ENDBRANCH  28  29
ENDBRANCH   1  28
TORSDOF 10
