REMARK  Name = ZINC13500986
REMARK  16 active torsions:
REMARK  status: ('A' for Active; 'I' for Inactive)
REMARK    1  A    between atoms: C_1  and  C_2
REMARK    2  A    between atoms: C_2  and  C_3
REMARK    3  A    between atoms: C_3  and  C_4
REMARK    4  A    between atoms: C_4  and  C_6
REMARK    5  A    between atoms: C_4  and  N_74
REMARK    6  A    between atoms: N_10  and  C_11
REMARK    7  A    between atoms: C_11  and  C_12
REMARK    8  A    between atoms: C_11  and  C_13
REMARK    9  A    between atoms: C_11  and  C_14
REMARK   10  A    between atoms: C_14  and  C_15
REMARK   11  A    between atoms: C_16  and  C_17
REMARK   12  A    between atoms: C_16  and  N_74
REMARK   13  A    between atoms: C_17  and  C_18
REMARK   14  A    between atoms: C_24  and  C_25
REMARK   15  A    between atoms: C_24  and  N_74
REMARK   16  A    between atoms: C_29  and  C_37
REMARK                            x       y       z     vdW  Elec       q    Type
REMARK                         _______ _______ _______ _____ _____    ______ ____
ROOT
ATOM      1  N   UNL     1       0.746  -0.860   3.886  0.00  0.00    +0.389 N 
ATOM      2  H   UNL     1      -0.007  -1.450   3.512  0.00  0.00    -0.080 HD
ENDROOT
BRANCH   1   3
ATOM      3  C   UNL     1       1.031   0.223   2.921  0.00  0.00    +0.003 C 
BRANCH   3   4
ATOM      4  C   UNL     1      -0.260   0.628   2.257  0.00  0.00    +0.139 A 
ATOM      5  N   UNL     1      -1.443   0.689   2.818  0.00  0.00    -0.115 NA
ATOM      6  N   UNL     1      -2.288   1.071   1.924  0.00  0.00    -0.023 NA
ATOM      7  N   UNL     1      -1.674   1.260   0.808  0.00  0.00    -0.043 NA
ATOM      8  N   UNL     1      -0.421   1.000   0.974  0.00  0.00    -0.225 N 
BRANCH   8   9
ATOM      9  C   UNL     1       0.628   1.089  -0.045  0.00  0.00    +0.061 C 
ATOM     10  C   UNL     1       1.155  -0.314  -0.356  0.00  0.00    +0.036 C 
ATOM     11  C   UNL     1       1.772   1.960   0.475  0.00  0.00    +0.036 C 
BRANCH   9  12
ATOM     12  C   UNL     1       0.051   1.710  -1.318  0.00  0.00    +0.026 C 
ATOM     13  C   UNL     1       1.146   1.802  -2.382  0.00  0.00    +0.006 C 
ENDBRANCH   9  12
ENDBRANCH   8   9
ENDBRANCH   3   4
BRANCH   3  14
ATOM     14  C   UNL     1       1.637   1.431   3.638  0.00  0.00    -0.008 C 
BRANCH  14  16
ATOM     15  C   UNL     1       3.560   2.223   5.023  0.00  0.00    +0.004 C 
ATOM     16  C   UNL     1       2.888   0.996   4.404  0.00  0.00    -0.005 C 
ENDBRANCH  14  16
ENDBRANCH   3  14
ENDBRANCH   1   3
BRANCH   1  17
ATOM     17  C   UNL     1       1.952  -1.689   4.086  0.00  0.00    -0.073 C 
BRANCH  17  18
ATOM     18  C   UNL     1       2.155  -2.567   2.850  0.00  0.00    +0.016 C 
BRANCH  18  19
ATOM     19  C   UNL     1       3.272  -3.546   3.106  0.00  0.00    -0.049 A 
ATOM     20  C   UNL     1       4.574  -3.208   2.788  0.00  0.00    +0.003 A 
ATOM     21  C   UNL     1       5.599  -4.104   3.028  0.00  0.00    +0.000 A 
ATOM     22  C   UNL     1       5.320  -5.342   3.577  0.00  0.00    +0.000 A 
ATOM     23  C   UNL     1       4.018  -5.682   3.890  0.00  0.00    +0.000 A 
ATOM     24  C   UNL     1       2.993  -4.784   3.655  0.00  0.00    +0.003 A 
ENDBRANCH  18  19
ENDBRANCH  17  18
ENDBRANCH   1  17
BRANCH   1  25
ATOM     25  C   UNL     1       0.309  -0.284   5.176  0.00  0.00    -0.037 C 
BRANCH  25  26
ATOM     26  C   UNL     1      -1.172  -0.014   5.104  0.00  0.00    +0.001 A 
ATOM     27  C   UNL     1      -2.048  -1.049   5.081  0.00  0.00    +0.017 A 
ATOM     28  C   UNL     1      -3.480  -0.752   5.016  0.00  0.00    -0.001 A 
ATOM     29  C   UNL     1      -4.431  -1.778   4.993  0.00  0.00    +0.013 A 
ATOM     30  C   UNL     1      -5.760  -1.468   4.926  0.00  0.00    -0.050 A 
ATOM     31  C   UNL     1      -6.175  -0.144   4.880  0.00  0.00    +0.005 A 
ATOM     32  C   UNL     1      -5.255   0.883   4.903  0.00  0.00    +0.026 A 
ATOM     33  C   UNL     1      -3.897   0.591   4.970  0.00  0.00    +0.049 A 
ATOM     34  N   UNL     1      -2.955   1.598   4.992  0.00  0.00    -0.322 N 
ATOM     35  H   UNL     1      -3.244   2.523   4.961  0.00  0.00    +0.169 HD
ATOM     36  C   UNL     1      -1.642   1.316   5.057  0.00  0.00    +0.251 A 
ATOM     37  O   UNL     1      -0.838   2.232   5.075  0.00  0.00    -0.268 OA
ATOM     38  C   UNL     1      -6.784  -2.573   4.902  0.00  0.00    +0.044 C 
ENDBRANCH  25  26
ENDBRANCH   1  25
TORSDOF 11
