REMARK  Name = ZINC61886945
REMARK  5 active torsions:
REMARK  status: ('A' for Active; 'I' for Inactive)
REMARK    1  A    between atoms: C_2  and  S_8
REMARK    2  A    between atoms: S_8  and  N_11
REMARK    3  A    between atoms: N_11  and  C_12
REMARK    4  A    between atoms: C_17  and  C_19
REMARK    5  A    between atoms: C_19  and  N_21
REMARK                            x       y       z     vdW  Elec       q    Type
REMARK                         _______ _______ _______ _____ _____    ______ ____
ROOT
ATOM      1  N   UNL     1       1.834   4.045   1.378  0.00  0.00    -0.186 NA
ATOM      2  H   UNL     1       1.174   4.428   1.977  0.00  0.00    +0.148 HD
ENDROOT
BRANCH   1   3
ATOM      3  C   UNL     1       3.227   3.913   1.812  0.00  0.00    +0.086 C 
ATOM      4  C   UNL     1       3.977   5.237   1.589  0.00  0.00    +0.021 C 
ATOM      5  C   UNL     1       4.463   5.708   2.975  0.00  0.00    +0.002 C 
ATOM      6  C   UNL     1       3.498   5.016   3.971  0.00  0.00    +0.011 C 
ATOM      7  C   UNL     1       3.283   3.623   3.327  0.00  0.00    +0.059 C 
BRANCH   7   8
ATOM      8  C   UNL     1       1.985   3.019   3.796  0.00  0.00    +0.051 C 
ATOM      9  S   UNL     1       0.908   3.927   4.554  0.00  0.00    -0.040 S 
BRANCH   8  10
ATOM     10  N   UNL     1       1.731   1.713   3.578  0.00  0.00    -0.355 N 
ATOM     11  H   UNL     1       2.384   1.163   3.119  0.00  0.00    +0.143 HD
ATOM     12  H   UNL     1       0.895   1.324   3.881  0.00  0.00    +0.143 HD
ENDBRANCH   8  10
ENDBRANCH   7   8
ENDBRANCH   1   3
BRANCH   1  13
ATOM     13  S   UNL     1       1.387   3.543  -0.135  0.00  0.00    +0.061 S 
ATOM     14  O   UNL     1       2.344   4.077  -1.040  0.00  0.00    -0.153 OA
ATOM     15  O   UNL     1      -0.004   3.805  -0.256  0.00  0.00    -0.153 OA
BRANCH  13  17
ATOM     16  C   UNL     1       2.546   1.210  -0.976  0.00  0.00    +0.057 A 
ATOM     17  C   UNL     1       1.576   1.792  -0.180  0.00  0.00    +0.132 A 
ATOM     18  C   UNL     1       0.773   0.994   0.567  0.00  0.00    +0.106 A 
ATOM     19  S   UNL     1       1.381  -0.633   0.153  0.00  0.00    -0.063 S 
ATOM     20  C   UNL     1       2.664  -0.141  -0.986  0.00  0.00    +0.081 A 
ATOM     21 CL   UNL     1       3.774  -1.135  -1.877  0.00  0.00    -0.076 Cl
ATOM     22 CL   UNL     1      -0.512   1.439   1.645  0.00  0.00    -0.074 Cl
ENDBRANCH  13  17
ENDBRANCH   1  13
TORSDOF 5
