REMARK  Name = ZINC36333176
REMARK  14 active torsions:
REMARK  status: ('A' for Active; 'I' for Inactive)
REMARK    1  A    between atoms: C_1  and  C_2
REMARK    2  A    between atoms: C_2  and  N_3
REMARK    3  A    between atoms: N_3  and  C_4
REMARK    4  A    between atoms: N_3  and  C_6
REMARK    5  A    between atoms: C_4  and  C_5
REMARK    6  A    between atoms: C_6  and  C_8
REMARK    7  A    between atoms: C_6  and  C_31
REMARK    8  A    between atoms: C_8  and  N_9
REMARK    9  A    between atoms: C_10  and  C_12
REMARK   10  A    between atoms: C_13  and  C_14
REMARK   11  A    between atoms: C_17  and  O_29
REMARK   12  A    between atoms: C_18  and  S_20
REMARK   13  A    between atoms: S_20  and  N_23
REMARK   14  A    between atoms: O_29  and  C_30
REMARK                            x       y       z     vdW  Elec       q    Type
REMARK                         _______ _______ _______ _____ _____    ______ ____
ROOT
ATOM      1  C   UNL     1       0.063  -4.739  -1.311  0.00  0.00    +0.068 C 
ATOM      2  C   UNL     1       0.563  -5.786  -0.621  0.00  0.00    +0.013 C 
ENDROOT
BRANCH   2   3
ATOM      3  C   UNL     1      -0.073  -7.107  -0.726  0.00  0.00    -0.023 A 
ATOM      4  C   UNL     1      -1.194  -7.283  -1.544  0.00  0.00    +0.011 A 
ATOM      5  C   UNL     1      -1.786  -8.522  -1.639  0.00  0.00    +0.048 A 
ATOM      6  C   UNL     1      -1.273  -9.598  -0.923  0.00  0.00    +0.146 A 
ATOM      7  C   UNL     1      -0.160  -9.428  -0.108  0.00  0.00    +0.147 A 
ATOM      8  C   UNL     1       0.444  -8.194  -0.011  0.00  0.00    +0.040 A 
BRANCH   7   9
ATOM      9  S   UNL     1       0.485 -10.795   0.797  0.00  0.00    +0.064 S 
ATOM     10  O   UNL     1       0.607 -11.870  -0.123  0.00  0.00    -0.153 OA
ATOM     11  O   UNL     1       1.589 -10.303   1.545  0.00  0.00    -0.153 OA
BRANCH   9  12
ATOM     12  N   UNL     1      -0.670 -11.242   1.897  0.00  0.00    -0.176 NA
ATOM     13  C   UNL     1      -0.697 -10.644   3.239  0.00  0.00    +0.109 C 
ATOM     14  C   UNL     1      -2.095 -10.073   3.496  0.00  0.00    +0.017 C 
ATOM     15  C   UNL     1      -3.139 -11.171   3.276  0.00  0.00    +0.003 C 
ATOM     16  C   UNL     1      -3.074 -11.655   1.825  0.00  0.00    +0.017 C 
ATOM     17  C   UNL     1      -1.691 -12.239   1.547  0.00  0.00    +0.109 C 
ENDBRANCH   9  12
ENDBRANCH   7   9
BRANCH   6  18
ATOM     18  O   UNL     1      -1.861 -10.817  -1.019  0.00  0.00    -0.493 OA
ATOM     19  C   UNL     1      -3.001 -10.922  -1.874  0.00  0.00    +0.277 C 
ENDBRANCH   6  18
ENDBRANCH   2   3
BRANCH   1  21
ATOM     20  N   UNL     1       0.196  -2.380  -1.895  0.00  0.00    -0.313 N 
ATOM     21  C   UNL     1       0.696  -3.425  -1.206  0.00  0.00    +0.237 C 
ATOM     22  O   UNL     1       1.674  -3.275  -0.498  0.00  0.00    -0.271 OA
ATOM     23  H   UNL     1      -0.583  -2.499  -2.460  0.00  0.00    +0.149 HD
BRANCH  20  24
ATOM     24  C   UNL     1       0.830  -1.063  -1.791  0.00  0.00    +0.094 C 
BRANCH  24  25
ATOM     25  C   UNL     1      -0.008  -0.032  -2.549  0.00  0.00    -0.020 C 
BRANCH  25  26
ATOM     26  C   UNL     1       0.576   1.342  -2.340  0.00  0.00    -0.059 A 
ATOM     27  C   UNL     1       1.903   1.481  -1.977  0.00  0.00    +0.002 A 
ATOM     28  C   UNL     1       2.439   2.740  -1.786  0.00  0.00    +0.000 A 
ATOM     29  C   UNL     1       1.648   3.861  -1.958  0.00  0.00    +0.000 A 
ATOM     30  C   UNL     1       0.322   3.722  -2.322  0.00  0.00    +0.000 A 
ATOM     31  C   UNL     1      -0.213   2.463  -2.518  0.00  0.00    +0.002 A 
ENDBRANCH  25  26
BRANCH  25  32
ATOM     32  N   UNL     1      -1.388  -0.058  -2.047  0.00  0.00    +0.385 N 
ATOM     33  H   UNL     1      -1.626  -0.997  -1.766  0.00  0.00    -0.081 HD
BRANCH  32  35
ATOM     34  C   UNL     1      -0.497   0.435   0.180  0.00  0.00    -0.017 C 
ATOM     35  C   UNL     1      -1.508   0.844  -0.894  0.00  0.00    -0.081 C 
ENDBRANCH  32  35
BRANCH  32  36
ATOM     36  C   UNL     1      -2.304   0.381  -3.109  0.00  0.00    -0.081 C 
ATOM     37  C   UNL     1      -2.340  -0.672  -4.219  0.00  0.00    -0.017 C 
ENDBRANCH  32  36
ENDBRANCH  25  32
ENDBRANCH  24  25
ENDBRANCH  20  24
ENDBRANCH   1  21
TORSDOF 11
