REMARK  Name = ZINC34923063
REMARK  13 active torsions:
REMARK  status: ('A' for Active; 'I' for Inactive)
REMARK    1  A    between atoms: C_1  and  C_2
REMARK    2  A    between atoms: C_2  and  C_3
REMARK    3  A    between atoms: C_4  and  C_33
REMARK    4  A    between atoms: C_5  and  C_25
REMARK    5  A    between atoms: C_8  and  C_13
REMARK    6  A    between atoms: C_14  and  N_16
REMARK    7  A    between atoms: N_16  and  C_17
REMARK    8  A    between atoms: N_16  and  C_18
REMARK    9  A    between atoms: N_21  and  C_24
REMARK   10  A    between atoms: C_30  and  O_31
REMARK   11  A    between atoms: O_31  and  C_32
REMARK   12  A    between atoms: C_33  and  O_35
REMARK   13  A    between atoms: O_35  and  C_36
REMARK                            x       y       z     vdW  Elec       q    Type
REMARK                         _______ _______ _______ _____ _____    ______ ____
ROOT
ATOM      1  C   UNL     1       0.763  -1.050  -1.487  0.00  0.00    +0.056 C 
ATOM      2  C   UNL     1       2.134  -1.218  -1.440  0.00  0.00    +0.083 C 
ATOM      3  C   UNL     1       2.870  -1.376  -2.751  0.00  0.00    +0.153 C 
ATOM      4  N   UNL     1       2.055  -1.338  -3.994  0.00  0.00    -0.267 N 
ATOM      5  C   UNL     1       2.511  -1.461  -5.292  0.00  0.00    +0.048 C 
ATOM      6  C   UNL     1       1.598  -1.398  -6.286  0.00  0.00    +0.072 C 
ATOM      7  S   UNL     1       0.082  -1.164  -5.380  0.00  0.00    -0.060 S 
ATOM      8  C   UNL     1       0.710  -1.162  -3.823  0.00  0.00    +0.166 C 
ATOM      9  N   UNL     1       0.129  -1.035  -2.648  0.00  0.00    -0.229 NA
ENDROOT
BRANCH   3  10
ATOM     10  C   UNL     1       3.601  -2.693  -2.717  0.00  0.00    +0.020 A 
ATOM     11  C   UNL     1       3.001  -3.830  -3.224  0.00  0.00    +0.009 A 
ATOM     12  C   UNL     1       3.671  -5.039  -3.192  0.00  0.00    +0.001 A 
ATOM     13  C   UNL     1       4.942  -5.114  -2.653  0.00  0.00    +0.004 A 
ATOM     14  C   UNL     1       5.546  -3.980  -2.146  0.00  0.00    +0.046 A 
ATOM     15  C   UNL     1       4.878  -2.765  -2.181  0.00  0.00    +0.125 A 
BRANCH  15  16
ATOM     16  O   UNL     1       5.473  -1.647  -1.687  0.00  0.00    -0.495 OA
ATOM     17  C   UNL     1       6.827  -1.772  -1.247  0.00  0.00    +0.277 C 
ENDBRANCH  15  16
ENDBRANCH   3  10
BRANCH   5  18
ATOM     18  C   UNL     1       3.939  -1.653  -5.581  0.00  0.00    +0.091 C 
ATOM     19  C   UNL     1       4.342  -1.917  -6.839  0.00  0.00    +0.241 C 
ATOM     20  O   UNL     1       3.446  -1.896  -7.856  0.00  0.00    -0.271 OA
BRANCH  19  21
ATOM     21  N   UNL     1       5.671  -2.211  -7.093  0.00  0.00    -0.298 N 
ATOM     22  C   UNL     1       6.622  -2.321  -5.984  0.00  0.00    +0.132 C 
BRANCH  21  23
ATOM     23  C   UNL     1       6.126  -2.412  -8.470  0.00  0.00    +0.073 C 
ATOM     24  C   UNL     1       6.636  -3.847  -8.637  0.00  0.00    +0.004 C 
ATOM     25  C   UNL     1       7.183  -4.027 -10.055  0.00  0.00    -0.077 C 
ATOM     26  N   UNL     1       8.286  -3.084 -10.281  0.00  0.00    +0.378 N 
ATOM     27  C   UNL     1       7.789  -1.706 -10.193  0.00  0.00    -0.077 C 
ATOM     28  C   UNL     1       7.266  -1.437  -8.781  0.00  0.00    +0.004 C 
ATOM     29  C   UNL     1       8.858  -3.314 -11.614  0.00  0.00    -0.096 C 
ATOM     30  H   UNL     1       8.999  -3.229  -9.581  0.00  0.00    -0.082 HD
ENDBRANCH  21  23
ENDBRANCH  19  21
ENDBRANCH   5  18
BRANCH   1  32
ATOM     31  C   UNL     1      -0.134   0.599   0.134  0.00  0.00    +0.010 C 
ATOM     32  C   UNL     1      -0.016  -0.888  -0.207  0.00  0.00    +0.053 C 
ENDBRANCH   1  32
BRANCH   2  33
ATOM     33  C   UNL     1       2.818  -1.240  -0.218  0.00  0.00    +0.339 C 
ATOM     34  O   UNL     1       3.386  -0.238   0.180  0.00  0.00    -0.245 OA
BRANCH  33  35
ATOM     35  O   UNL     1       2.848  -2.372   0.518  0.00  0.00    -0.465 OA
ATOM     36  C   UNL     1       3.473  -2.295   1.802  0.00  0.00    +0.280 C 
ENDBRANCH  33  35
ENDBRANCH   2  33
TORSDOF 8
