REMARK  Name = ZINC36592988
REMARK  17 active torsions:
REMARK  status: ('A' for Active; 'I' for Inactive)
REMARK    1  A    between atoms: C_1  and  C_2
REMARK    2  A    between atoms: C_2  and  C_3
REMARK    3  A    between atoms: C_2  and  C_4
REMARK    4  A    between atoms: C_2  and  C_5
REMARK    5  A    between atoms: C_5  and  C_6
REMARK    6  A    between atoms: C_6  and  C_7
REMARK    7  A    between atoms: C_6  and  C_8
REMARK    8  A    between atoms: C_6  and  N_9
REMARK    9  A    between atoms: C_10  and  C_12
REMARK   10  A    between atoms: C_12  and  C_14
REMARK   11  A    between atoms: C_12  and  N_23
REMARK   12  A    between atoms: C_17  and  N_20
REMARK   13  A    between atoms: N_23  and  C_33
REMARK   14  A    between atoms: C_24  and  C_26
REMARK   15  A    between atoms: C_33  and  C_34
REMARK   16  A    between atoms: C_33  and  C_35
REMARK   17  A    between atoms: C_33  and  C_36
REMARK                            x       y       z     vdW  Elec       q    Type
REMARK                         _______ _______ _______ _____ _____    ______ ____
ROOT
ATOM      1  C   UNL     1       5.968   0.558  -3.090  0.00  0.00    +0.193 C 
ENDROOT
BRANCH   1   2
ATOM      2  C   UNL     1       5.420   1.913  -2.721  0.00  0.00    -0.018 A 
ATOM      3  C   UNL     1       6.129   3.055  -3.043  0.00  0.00    +0.008 A 
ATOM      4  C   UNL     1       5.627   4.298  -2.705  0.00  0.00    +0.033 A 
ATOM      5  C   UNL     1       4.416   4.398  -2.046  0.00  0.00    +0.126 A 
ATOM      6  C   UNL     1       3.707   3.256  -1.724  0.00  0.00    +0.033 A 
ATOM      7  C   UNL     1       4.207   2.013  -2.066  0.00  0.00    +0.008 A 
BRANCH   5   8
ATOM      8  N   UNL     1       3.879   5.729  -1.683  0.00  0.00    +0.056 N 
ATOM      9  O   UNL     1       4.499   6.728  -1.964  0.00  0.00    -0.126 OA
ATOM     10  O   UNL     1       2.820   5.817  -1.106  0.00  0.00    -0.126 OA
ENDBRANCH   5   8
ENDBRANCH   1   2
BRANCH   1  12
ATOM     11  N   UNL     1       6.262  -0.235  -0.765  0.00  0.00    -0.308 N 
ATOM     12  C   UNL     1       6.820   0.037  -1.962  0.00  0.00    +0.239 C 
ATOM     13  O   UNL     1       8.008  -0.139  -2.130  0.00  0.00    -0.273 OA
ATOM     14  H   UNL     1       5.312  -0.094  -0.630  0.00  0.00    +0.149 HD
BRANCH  11  15
ATOM     15  C   UNL     1       7.091  -0.741   0.332  0.00  0.00    +0.030 C 
ATOM     16  C   UNL     1       8.336   0.135   0.477  0.00  0.00    +0.031 C 
ATOM     17  C   UNL     1       7.512  -2.181   0.030  0.00  0.00    +0.031 C 
BRANCH  15  18
ATOM     18  C   UNL     1       6.289  -0.707   1.634  0.00  0.00    +0.031 C 
BRANCH  18  20
ATOM     19  C   UNL     1       4.351   0.625   0.789  0.00  0.00    +0.010 C 
ATOM     20  C   UNL     1       5.548   0.627   1.742  0.00  0.00    -0.036 C 
ATOM     21  C   UNL     1       6.496   1.768   1.368  0.00  0.00    +0.010 C 
ATOM     22  C   UNL     1       5.056   0.823   3.178  0.00  0.00    +0.010 C 
ENDBRANCH  18  20
ENDBRANCH  15  18
ENDBRANCH  11  15
ENDBRANCH   1  12
BRANCH   1  23
ATOM     23  N   UNL     1       6.781   0.673  -4.303  0.00  0.00    -0.277 N 
ATOM     24  C   UNL     1       8.016   1.209  -4.238  0.00  0.00    +0.249 C 
ATOM     25  O   UNL     1       8.547   1.382  -3.159  0.00  0.00    -0.270 OA
BRANCH  24  26
ATOM     26  C   UNL     1       8.724   1.586  -5.479  0.00  0.00    +0.055 A 
ATOM     27  C   UNL     1       8.401   0.964  -6.687  0.00  0.00    +0.014 A 
ATOM     28  C   UNL     1       9.065   1.321  -7.842  0.00  0.00    +0.001 A 
ATOM     29  C   UNL     1      10.051   2.292  -7.806  0.00  0.00    +0.001 A 
ATOM     30  C   UNL     1      10.377   2.912  -6.614  0.00  0.00    +0.021 A 
ATOM     31  C   UNL     1       9.715   2.569  -5.451  0.00  0.00    +0.053 A 
ATOM     32 CL   UNL     1      10.120   3.354  -3.956  0.00  0.00    -0.083 Cl
ENDBRANCH  24  26
BRANCH  23  33
ATOM     33  C   UNL     1       6.252   0.206  -5.587  0.00  0.00    +0.030 C 
ATOM     34  C   UNL     1       4.780  -0.179  -5.422  0.00  0.00    +0.031 C 
ATOM     35  C   UNL     1       6.373   1.323  -6.625  0.00  0.00    +0.031 C 
ATOM     36  C   UNL     1       7.048  -1.014  -6.053  0.00  0.00    +0.031 C 
ENDBRANCH  23  33
ENDBRANCH   1  23
TORSDOF 9
