REMARK  Name = ZINC13567763
REMARK  5 active torsions:
REMARK  status: ('A' for Active; 'I' for Inactive)
REMARK    1  A    between atoms: C_2  and  C_3
REMARK    2  A    between atoms: C_3  and  N_4
REMARK    3  A    between atoms: C_14  and  C_33
REMARK    4  A    between atoms: C_15  and  N_32
REMARK    5  A    between atoms: N_16  and  C_24
REMARK                            x       y       z     vdW  Elec       q    Type
REMARK                         _______ _______ _______ _____ _____    ______ ____
ROOT
ATOM      1  N   UNL     1       7.780   4.781   1.242  0.00  0.00    -0.258 N 
ATOM      2  C   UNL     1       7.175   4.509   2.456  0.00  0.00    +0.042 A 
ATOM      3  C   UNL     1       7.577   4.864   3.745  0.00  0.00    +0.024 A 
ATOM      4  C   UNL     1       6.772   4.452   4.795  0.00  0.00    +0.002 A 
ATOM      5  C   UNL     1       5.619   3.721   4.590  0.00  0.00    +0.000 A 
ATOM      6  C   UNL     1       5.208   3.362   3.311  0.00  0.00    +0.007 A 
ATOM      7  C   UNL     1       6.004   3.768   2.261  0.00  0.00    -0.001 A 
ATOM      8  C   UNL     1       5.873   3.566   0.783  0.00  0.00    +0.141 C 
ATOM      9  C   UNL     1       7.088   4.265   0.205  0.00  0.00    +0.241 C 
ATOM     10  O   UNL     1       7.383   4.346  -0.969  0.00  0.00    -0.273 OA
ATOM     11  C   UNL     1       5.911   2.108   0.438  0.00  0.00    +0.089 C 
ATOM     12  C   UNL     1       4.781   1.448   0.069  0.00  0.00    +0.108 C 
ATOM     13  N   UNL     1       3.582   2.121   0.001  0.00  0.00    -0.260 N 
ATOM     14  C   UNL     1       3.551   3.487  -0.102  0.00  0.00    +0.025 C 
ATOM     15  C   UNL     1       4.622   4.226   0.266  0.00  0.00    +0.037 C 
ATOM     16  C   UNL     1       4.601   5.628   0.171  0.00  0.00    +0.162 C 
ATOM     17  O   UNL     1       5.585   6.263   0.492  0.00  0.00    -0.292 OA
ATOM     18  C   UNL     1       3.381   6.357  -0.323  0.00  0.00    +0.080 C 
ATOM     19  C   UNL     1       2.136   5.526   0.010  0.00  0.00    +0.014 C 
ATOM     20  C   UNL     1       2.296   4.141  -0.620  0.00  0.00    +0.052 C 
ENDROOT
BRANCH  13  21
ATOM     21  C   UNL     1       2.381   1.401   0.030  0.00  0.00    +0.041 A 
ATOM     22  C   UNL     1       1.810   0.952  -1.154  0.00  0.00    +0.027 A 
ATOM     23  C   UNL     1       0.626   0.242  -1.123  0.00  0.00    +0.041 A 
ATOM     24  C   UNL     1       0.007  -0.023   0.087  0.00  0.00    +0.142 A 
ATOM     25  C   UNL     1       0.575   0.423   1.270  0.00  0.00    +0.078 A 
ATOM     26  C   UNL     1       1.760   1.135   1.243  0.00  0.00    +0.046 A 
ATOM     27 CL   UNL     1      -0.207   0.096   2.785  0.00  0.00    -0.081 Cl
ATOM     28  F   UNL     1      -1.151  -0.718   0.115  0.00  0.00    -0.204 F 
ENDBRANCH  13  21
BRANCH  12  29
ATOM     29  N   UNL     1       4.835   0.110  -0.236  0.00  0.00    -0.345 N 
ATOM     30  H   UNL     1       4.050  -0.341  -0.583  0.00  0.00    +0.144 HD
ATOM     31  H   UNL     1       5.659  -0.385  -0.103  0.00  0.00    +0.144 HD
ENDBRANCH  12  29
BRANCH  11  32
ATOM     32  C   UNL     1       7.154   1.399   0.496  0.00  0.00    +0.100 C 
ATOM     33  N   UNL     1       8.141   0.838   0.542  0.00  0.00    -0.191 NA
ENDBRANCH  11  32
BRANCH   1  34
ATOM     34  C   UNL     1       9.024   5.541   1.099  0.00  0.00    +0.202 C 
BRANCH  34  36
ATOM     35  C   UNL     1      11.085   3.884   1.191  0.00  0.00    +0.005 C 
ATOM     36  C   UNL     1      10.171   4.619   1.150  0.00  0.00    -0.086 C 
ENDBRANCH  34  36
ENDBRANCH   1  34
TORSDOF 5
