REMARK  Name = ZINC55458649
REMARK  5 active torsions:
REMARK  status: ('A' for Active; 'I' for Inactive)
REMARK    1  A    between atoms: C_1  and  O_2
REMARK    2  A    between atoms: O_2  and  C_3
REMARK    3  A    between atoms: C_3  and  C_5
REMARK    4  A    between atoms: C_17  and  C_19
REMARK    5  A    between atoms: C_20  and  C_21
REMARK                            x       y       z     vdW  Elec       q    Type
REMARK                         _______ _______ _______ _____ _____    ______ ____
ROOT
ATOM      1  C   UNL     1      -1.244  -2.135   0.003  0.00  0.00    +0.185 C 
ATOM      2  C   UNL     1      -1.035  -2.666  -1.442  0.00  0.00    +0.039 C 
ATOM      3  C   UNL     1      -2.483  -2.884  -1.909  0.00  0.00    +0.012 C 
ATOM      4  C   UNL     1      -2.663  -3.933  -2.993  0.00  0.00    +0.005 C 
ATOM      5  C   UNL     1      -4.174  -4.096  -3.225  0.00  0.00    +0.000 C 
ATOM      6  C   UNL     1      -4.896  -4.500  -1.944  0.00  0.00    +0.002 C 
ATOM      7  C   UNL     1      -4.606  -3.512  -0.802  0.00  0.00    +0.023 C 
ATOM      8  C   UNL     1      -3.110  -3.450  -0.606  0.00  0.00    +0.080 C 
ATOM      9  N   UNL     1      -2.582  -2.591   0.448  0.00  0.00    -0.281 N 
ATOM     10  C   UNL     1      -3.193  -2.270   1.605  0.00  0.00    +0.240 C 
ATOM     11  O   UNL     1      -4.299  -2.714   1.854  0.00  0.00    -0.271 OA
ENDROOT
BRANCH   1  12
ATOM     12  C   UNL     1      -1.185  -0.630   0.010  0.00  0.00    +0.328 C 
ATOM     13  O   UNL     1      -2.208   0.015   0.023  0.00  0.00    -0.249 OA
BRANCH  12  15
ATOM     14  C   UNL     1      -0.017   1.425   0.010  0.00  0.00    +0.280 C 
ATOM     15  O   UNL     1       0.002  -0.004   0.002  0.00  0.00    -0.467 OA
ENDBRANCH  12  15
ENDBRANCH   1  12
BRANCH  10  16
ATOM     16  C   UNL     1      -2.548  -1.416   2.534  0.00  0.00    +0.068 C 
ATOM     17  C   UNL     1      -3.161  -1.094   3.695  0.00  0.00    +0.013 C 
BRANCH  17  18
ATOM     18  C   UNL     1      -2.493  -0.210   4.657  0.00  0.00    -0.018 A 
ATOM     19  C   UNL     1      -3.112   0.152   5.909  0.00  0.00    +0.015 A 
ATOM     20  C   UNL     1      -2.394   0.971   6.703  0.00  0.00    +0.046 A 
ATOM     21  S   UNL     1      -0.906   1.242   5.765  0.00  0.00    -0.104 S 
ATOM     22  C   UNL     1      -1.239   0.311   4.410  0.00  0.00    +0.053 A 
ENDBRANCH  17  18
ENDBRANCH  10  16
TORSDOF 4
