REMARK  Name = ZINC08712837
REMARK  9 active torsions:
REMARK  status: ('A' for Active; 'I' for Inactive)
REMARK    1  A    between atoms: C_1  and  C_2
REMARK    2  A    between atoms: C_7  and  C_8
REMARK    3  A    between atoms: C_8  and  N_9
REMARK    4  A    between atoms: N_9  and  C_10
REMARK    5  A    between atoms: C_10  and  C_12
REMARK    6  A    between atoms: C_10  and  C_19
REMARK    7  A    between atoms: N_21  and  C_22
REMARK    8  A    between atoms: C_31  and  C_33
REMARK    9  A    between atoms: C_33  and  N_34
REMARK                            x       y       z     vdW  Elec       q    Type
REMARK                         _______ _______ _______ _____ _____    ______ ____
ROOT
ATOM      1  N   UNL     1      -3.751   1.902  -0.006  0.00  0.00    -0.284 N 
ATOM      2  C   UNL     1      -4.367   2.564   0.994  0.00  0.00    +0.234 C 
ATOM      3  O   UNL     1      -4.251   2.179   2.138  0.00  0.00    -0.274 OA
ENDROOT
BRANCH   1   4
ATOM      4  C   UNL     1      -3.881   2.374  -1.387  0.00  0.00    +0.144 C 
BRANCH   4  11
ATOM      5  C   UNL     1      -6.322   0.918  -1.906  0.00  0.00    +0.044 C 
ATOM      6  C   UNL     1      -5.037   0.498  -2.573  0.00  0.00    -0.046 A 
ATOM      7  C   UNL     1      -5.027  -0.582  -3.436  0.00  0.00    +0.003 A 
ATOM      8  C   UNL     1      -3.848  -0.970  -4.044  0.00  0.00    +0.000 A 
ATOM      9  C   UNL     1      -2.679  -0.276  -3.791  0.00  0.00    +0.000 A 
ATOM     10  C   UNL     1      -2.690   0.805  -2.931  0.00  0.00    +0.005 A 
ATOM     11  C   UNL     1      -3.869   1.194  -2.324  0.00  0.00    -0.027 A 
ENDBRANCH   4  11
ENDBRANCH   1   4
BRANCH   1  12
ATOM     12  C   UNL     1      -2.952   0.710   0.288  0.00  0.00    +0.166 C 
BRANCH  12  13
ATOM     13  C   UNL     1      -3.655  -0.527  -0.274  0.00  0.00    +0.023 C 
ATOM     14  C   UNL     1      -5.018  -0.701   0.408  0.00  0.00    +0.010 C 
ATOM     15  C   UNL     1      -5.769  -1.835  -0.292  0.00  0.00    +0.027 C 
ATOM     16  C   UNL     1      -4.885  -3.040  -0.425  0.00  0.00    -0.031 C 
ATOM     17  C   UNL     1      -3.597  -3.011  -0.301  0.00  0.00    -0.031 C 
ATOM     18  C   UNL     1      -2.809  -1.771   0.003  0.00  0.00    +0.032 C 
ENDBRANCH  12  13
BRANCH  12  19
ATOM     19  C   UNL     1      -1.593   0.847  -0.346  0.00  0.00    +0.238 C 
ATOM     20  O   UNL     1      -1.343   1.807  -1.045  0.00  0.00    -0.273 OA
ATOM     21  N   UNL     1      -0.653  -0.097  -0.138  0.00  0.00    -0.284 N 
ATOM     22  H   UNL     1      -0.872  -0.896   0.366  0.00  0.00    +0.155 HD
BRANCH  21  23
ATOM     23  C   UNL     1       0.638   0.074  -0.654  0.00  0.00    +0.037 A 
ATOM     24  C   UNL     1       0.819   0.707  -1.877  0.00  0.00    +0.027 A 
ATOM     25  C   UNL     1       2.092   0.876  -2.387  0.00  0.00    +0.051 A 
ATOM     26  C   UNL     1       3.191   0.416  -1.680  0.00  0.00    +0.166 A 
ATOM     27  C   UNL     1       3.013  -0.219  -0.453  0.00  0.00    +0.168 A 
ATOM     28  C   UNL     1       1.737  -0.384   0.060  0.00  0.00    +0.072 A 
ATOM     29  O   UNL     1       4.237  -0.574   0.037  0.00  0.00    -0.453 OA
ATOM     30  C   UNL     1       5.132  -0.518  -1.089  0.00  0.00    +0.466 C 
ATOM     31  O   UNL     1       4.528   0.458  -1.959  0.00  0.00    -0.453 OA
ENDBRANCH  21  23
ENDBRANCH  12  19
ENDBRANCH   1  12
BRANCH   2  32
ATOM     32  C   UNL     1      -5.199   3.784   0.689  0.00  0.00    +0.210 C 
BRANCH  32  33
ATOM     33  N   UNL     1      -5.524   4.477   1.938  0.00  0.00    -0.255 N 
ATOM     34  C   UNL     1      -6.607   4.157   2.754  0.00  0.00    +0.048 A 
ATOM     35  C   UNL     1      -7.586   3.179   2.639  0.00  0.00    +0.024 A 
ATOM     36  C   UNL     1      -8.568   3.060   3.604  0.00  0.00    +0.002 A 
ATOM     37  C   UNL     1      -8.588   3.907   4.700  0.00  0.00    +0.001 A 
ATOM     38  C   UNL     1      -7.622   4.883   4.837  0.00  0.00    +0.014 A 
ATOM     39  C   UNL     1      -6.627   5.011   3.869  0.00  0.00    +0.048 A 
ATOM     40  C   UNL     1      -5.478   5.924   3.720  0.00  0.00    +0.250 C 
ATOM     41  O   UNL     1      -5.141   6.817   4.468  0.00  0.00    -0.282 OA
ATOM     42  C   UNL     1      -4.819   5.505   2.439  0.00  0.00    +0.292 C 
ATOM     43  O   UNL     1      -3.829   6.004   1.946  0.00  0.00    -0.266 OA
ENDBRANCH  32  33
ENDBRANCH   2  32
TORSDOF 8
