REMARK  Name = ZINC09465398
REMARK  10 active torsions:
REMARK  status: ('A' for Active; 'I' for Inactive)
REMARK    1  A    between atoms: C_1  and  C_2
REMARK    2  A    between atoms: C_5  and  S_8
REMARK    3  A    between atoms: S_8  and  N_11
REMARK    4  A    between atoms: C_15  and  C_17
REMARK    5  A    between atoms: N_19  and  C_20
REMARK    6  A    between atoms: C_20  and  C_21
REMARK    7  A    between atoms: C_21  and  C_23
REMARK    8  A    between atoms: C_21  and  N_69
REMARK    9  A    between atoms: C_26  and  O_29
REMARK   10  A    between atoms: O_29  and  C_30
REMARK                            x       y       z     vdW  Elec       q    Type
REMARK                         _______ _______ _______ _____ _____    ______ ____
ROOT
ATOM      1  C   UNL     1       4.607   0.121   8.148  0.00  0.00    +0.232 C 
ATOM      2  O   UNL     1       4.324   1.226   7.738  0.00  0.00    -0.274 OA
ATOM      3  N   UNL     1       4.541  -0.942   7.322  0.00  0.00    -0.315 N 
ATOM      4  H   UNL     1       4.768  -1.826   7.651  0.00  0.00    +0.149 HD
ENDROOT
BRANCH   1   9
ATOM      5  N   UNL     1       5.930   1.029   9.996  0.00  0.00    -0.165 NA
ATOM      6  C   UNL     1       5.635   1.375  11.396  0.00  0.00    +0.110 C 
ATOM      7  C   UNL     1       4.481   0.462  11.861  0.00  0.00    +0.019 C 
ATOM      8  C   UNL     1       3.808   0.046  10.526  0.00  0.00    +0.031 C 
ATOM      9  C   UNL     1       5.032  -0.064   9.582  0.00  0.00    +0.165 C 
BRANCH   5  10
ATOM     10  S   UNL     1       7.079   1.748   9.044  0.00  0.00    +0.062 S 
ATOM     11  O   UNL     1       6.771   1.396   7.702  0.00  0.00    -0.153 OA
ATOM     12  O   UNL     1       7.175   3.099   9.474  0.00  0.00    -0.153 OA
BRANCH  10  17
ATOM     13  C   UNL     1      12.362  -0.860  10.345  0.00  0.00    +0.044 C 
ATOM     14  C   UNL     1      11.043  -0.208  10.019  0.00  0.00    -0.050 A 
ATOM     15  C   UNL     1      10.287  -0.669   8.957  0.00  0.00    +0.005 A 
ATOM     16  C   UNL     1       9.077  -0.071   8.659  0.00  0.00    +0.029 A 
ATOM     17  C   UNL     1       8.621   0.986   9.424  0.00  0.00    +0.106 A 
ATOM     18  C   UNL     1       9.379   1.450  10.483  0.00  0.00    +0.029 A 
ATOM     19  C   UNL     1      10.588   0.850  10.783  0.00  0.00    +0.005 A 
ENDBRANCH  10  17
ENDBRANCH   5  10
ENDBRANCH   1   9
BRANCH   3  20
ATOM     20  C   UNL     1       4.128  -0.762   5.928  0.00  0.00    +0.093 C 
BRANCH  20  21
ATOM     21  C   UNL     1       4.296  -2.082   5.172  0.00  0.00    -0.020 C 
BRANCH  21  27
ATOM     22  C   UNL     1       6.088  -3.337   6.208  0.00  0.00    -0.078 C 
ATOM     23  C   UNL     1       7.537  -3.796   6.030  0.00  0.00    -0.019 C 
ATOM     24  C   UNL     1       8.458  -2.572   6.021  0.00  0.00    -0.004 C 
ATOM     25  C   UNL     1       8.024  -1.624   4.900  0.00  0.00    -0.019 C 
ATOM     26  C   UNL     1       6.561  -1.228   5.111  0.00  0.00    -0.078 C 
ATOM     27  N   UNL     1       5.725  -2.447   5.085  0.00  0.00    +0.385 N 
ATOM     28  H   UNL     1       5.888  -2.944   4.201  0.00  0.00    -0.081 HD
ENDBRANCH  21  27
BRANCH  21  29
ATOM     29  C   UNL     1       3.755  -1.932   3.774  0.00  0.00    -0.059 A 
ATOM     30  C   UNL     1       2.472  -2.359   3.481  0.00  0.00    +0.005 A 
ATOM     31  C   UNL     1       1.974  -2.222   2.200  0.00  0.00    +0.046 A 
ATOM     32  C   UNL     1       2.761  -1.657   1.207  0.00  0.00    +0.120 A 
ATOM     33  C   UNL     1       4.049  -1.234   1.502  0.00  0.00    +0.046 A 
ATOM     34  C   UNL     1       4.541  -1.368   2.786  0.00  0.00    +0.005 A 
BRANCH  32  35
ATOM     35  O   UNL     1       2.272  -1.521  -0.054  0.00  0.00    -0.495 OA
ATOM     36  C   UNL     1       3.138  -0.930  -1.025  0.00  0.00    +0.277 C 
ENDBRANCH  32  35
ENDBRANCH  21  29
ENDBRANCH  20  21
ENDBRANCH   3  20
TORSDOF 8
