REMARK  Name = ZINC51095273
REMARK  6 active torsions:
REMARK  status: ('A' for Active; 'I' for Inactive)
REMARK    1  A    between atoms: C_1  and  C_2
REMARK    2  A    between atoms: C_2  and  C_4
REMARK    3  A    between atoms: C_2  and  N_10
REMARK    4  A    between atoms: C_11  and  C_13
REMARK    5  A    between atoms: C_17  and  N_19
REMARK    6  A    between atoms: N_19  and  N_20
REMARK                            x       y       z     vdW  Elec       q    Type
REMARK                         _______ _______ _______ _____ _____    ______ ____
ROOT
ATOM      1  N   UNL     1       0.688  -0.476  -1.203  0.00  0.00    -0.303 N 
ATOM      2  C   UNL     1       0.006  -0.608  -2.358  0.00  0.00    +0.264 C 
ATOM      3  O   UNL     1      -1.177  -0.335  -2.400  0.00  0.00    -0.268 OA
ATOM      4  H   UNL     1       1.632  -0.695  -1.170  0.00  0.00    +0.150 HD
ENDROOT
BRANCH   2   5
ATOM      5  C   UNL     1       0.699  -1.086  -3.577  0.00  0.00    +0.146 A 
ATOM      6  C   UNL     1      -0.010  -1.214  -4.768  0.00  0.00    +0.072 A 
ATOM      7  C   UNL     1       0.651  -1.662  -5.905  0.00  0.00    +0.026 A 
ATOM      8  C   UNL     1       1.996  -1.967  -5.811  0.00  0.00    +0.046 A 
ATOM      9  C   UNL     1       2.647  -1.816  -4.587  0.00  0.00    +0.133 A 
ATOM     10  N   UNL     1       1.993  -1.383  -3.524  0.00  0.00    -0.225 NA
ATOM     11 CL   UNL     1      -1.699  -0.819  -4.832  0.00  0.00    -0.081 Cl
BRANCH   9  12
ATOM     12  N   UNL     1       3.999  -2.121  -4.485  0.00  0.00    -0.268 N 
ATOM     13  H   UNL     1       4.485  -2.436  -5.263  0.00  0.00    +0.167 HD
BRANCH  12  14
ATOM     14  N   UNL     1       4.644  -1.976  -3.289  0.00  0.00    -0.255 NA
ATOM     15  H   UNL     1       5.616  -2.234  -3.369  0.00  0.00    +0.140 HD
ATOM     16  H   UNL     1       4.547  -1.035  -2.938  0.00  0.00    +0.140 HD
ENDBRANCH  12  14
ENDBRANCH   9  12
ENDBRANCH   2   5
BRANCH   1  18
ATOM     17  C   UNL     1      -0.019   1.526   0.010  0.00  0.00    +0.033 C 
ATOM     18  C   UNL     1       0.002  -0.004   0.002  0.00  0.00    +0.107 C 
BRANCH  18  19
ATOM     19  C   UNL     1       0.731  -0.503   1.223  0.00  0.00    +0.011 A 
ATOM     20  C   UNL     1       0.222  -0.979   2.385  0.00  0.00    +0.014 A 
ATOM     21  C   UNL     1       1.091  -1.386   3.381  0.00  0.00    +0.028 A 
ATOM     22  C   UNL     1       2.427  -1.297   3.164  0.00  0.00    +0.078 A 
ATOM     23  S   UNL     1       2.489  -0.629   1.510  0.00  0.00    -0.080 S 
ATOM     24 CL   UNL     1       3.737  -1.728   4.219  0.00  0.00    -0.076 Cl
ENDBRANCH  18  19
ENDBRANCH   1  18
TORSDOF 5
