REMARK  Name = ZINC44908326
REMARK  12 active torsions:
REMARK  status: ('A' for Active; 'I' for Inactive)
REMARK    1  A    between atoms: C_1  and  C_2
REMARK    2  A    between atoms: C_2  and  C_3
REMARK    3  A    between atoms: N_9  and  C_10
REMARK    4  A    between atoms: C_10  and  C_11
REMARK    5  A    between atoms: C_11  and  C_12
REMARK    6  A    between atoms: C_12  and  N_13
REMARK    7  A    between atoms: C_14  and  C_16
REMARK    8  A    between atoms: C_19  and  C_22
REMARK    9  A    between atoms: C_22  and  N_23
REMARK   10  A    between atoms: N_26  and  S_29
REMARK   11  A    between atoms: S_29  and  C_32
REMARK   12  A    between atoms: C_35  and  C_38
REMARK                            x       y       z     vdW  Elec       q    Type
REMARK                         _______ _______ _______ _____ _____    ______ ____
ROOT
ATOM      1  C   UNL     1      -3.135   5.728   5.731  0.00  0.00    +0.037 A 
ATOM      2  C   UNL     1      -3.621   4.807   6.660  0.00  0.00    +0.013 A 
ATOM      3  C   UNL     1      -4.046   5.240   7.899  0.00  0.00    +0.005 A 
ATOM      4  C   UNL     1      -3.992   6.585   8.221  0.00  0.00    -0.033 A 
ATOM      5  C   UNL     1      -3.513   7.503   7.305  0.00  0.00    +0.005 A 
ATOM      6  C   UNL     1      -3.079   7.082   6.065  0.00  0.00    +0.013 A 
ENDROOT
BRANCH   1   8
ATOM      7  N   UNL     1      -2.734   3.963   4.083  0.00  0.00    -0.311 N 
ATOM      8  C   UNL     1      -2.678   5.271   4.402  0.00  0.00    +0.244 C 
ATOM      9  O   UNL     1      -2.251   6.075   3.596  0.00  0.00    -0.270 OA
ATOM     10  H   UNL     1      -3.075   3.321   4.726  0.00  0.00    +0.149 HD
BRANCH   7  11
ATOM     11  C   UNL     1      -2.280   3.510   2.765  0.00  0.00    +0.102 C 
BRANCH  11  12
ATOM     12  C   UNL     1      -2.450   1.993   2.662  0.00  0.00    +0.000 C 
BRANCH  12  13
ATOM     13  C   UNL     1      -1.976   1.520   1.286  0.00  0.00    -0.077 C 
BRANCH  13  19
ATOM     14  C   UNL     1      -1.571  -0.405  -0.084  0.00  0.00    -0.069 C 
ATOM     15  C   UNL     1      -1.665  -1.931  -0.156  0.00  0.00    -0.015 C 
ATOM     16  C   UNL     1      -3.135  -2.351  -0.067  0.00  0.00    -0.003 C 
ATOM     17  C   UNL     1      -3.737  -1.793   1.226  0.00  0.00    -0.019 C 
ATOM     18  C   UNL     1      -3.567  -0.273   1.247  0.00  0.00    -0.078 C 
ATOM     19  N   UNL     1      -2.139   0.063   1.186  0.00  0.00    +0.382 N 
ATOM     20  H   UNL     1      -1.656  -0.380   1.953  0.00  0.00    -0.081 HD
BRANCH  14  22
ATOM     21  C   UNL     1       0.472  -0.418  -1.521  0.00  0.00    +0.002 C 
ATOM     22  C   UNL     1      -0.104   0.020  -0.173  0.00  0.00    -0.019 C 
ENDBRANCH  14  22
ENDBRANCH  13  19
ENDBRANCH  12  13
ENDBRANCH  11  12
ENDBRANCH   7  11
ENDBRANCH   1   8
BRANCH   4  23
ATOM     23  C   UNL     1      -4.459   7.051   9.576  0.00  0.00    +0.119 C 
BRANCH  23  24
ATOM     24  N   UNL     1      -3.330   7.031  10.516  0.00  0.00    -0.296 NA
ATOM     25  C   UNL     1      -2.865   5.658  10.752  0.00  0.00    +0.102 C 
ATOM     26  C   UNL     1      -1.582   5.693  11.589  0.00  0.00    +0.125 C 
ATOM     27  N   UNL     1      -1.838   6.480  12.804  0.00  0.00    -0.174 NA
ATOM     28  C   UNL     1      -2.433   7.817  12.655  0.00  0.00    +0.125 C 
ATOM     29  C   UNL     1      -3.683   7.698  11.777  0.00  0.00    +0.102 C 
BRANCH  27  30
ATOM     30  S   UNL     1      -1.465   5.878  14.301  0.00  0.00    +0.061 S 
ATOM     31  O   UNL     1      -2.298   6.557  15.231  0.00  0.00    -0.153 OA
ATOM     32  O   UNL     1      -1.457   4.462  14.179  0.00  0.00    -0.153 OA
BRANCH  30  33
ATOM     33  C   UNL     1       0.190   6.361  14.660  0.00  0.00    +0.105 A 
ATOM     34  C   UNL     1       1.244   5.547  14.290  0.00  0.00    +0.029 A 
ATOM     35  C   UNL     1       2.543   5.926  14.572  0.00  0.00    +0.005 A 
ATOM     36  C   UNL     1       2.788   7.121  15.223  0.00  0.00    -0.050 A 
ATOM     37  C   UNL     1       1.735   7.936  15.593  0.00  0.00    +0.005 A 
ATOM     38  C   UNL     1       0.436   7.558  15.307  0.00  0.00    +0.029 A 
ATOM     39  C   UNL     1       4.205   7.534  15.531  0.00  0.00    +0.044 C 
ENDBRANCH  30  33
ENDBRANCH  27  30
ENDBRANCH  23  24
ENDBRANCH   4  23
TORSDOF 10
