REMARK  Name = ZINC55179637
REMARK  4 active torsions:
REMARK  status: ('A' for Active; 'I' for Inactive)
REMARK    1  A    between atoms: C_1  and  C_2
REMARK    2  A    between atoms: C_10  and  C_11
REMARK    3  A    between atoms: C_11  and  C_13
REMARK    4  A    between atoms: C_11  and  N_14
REMARK                            x       y       z     vdW  Elec       q    Type
REMARK                         _______ _______ _______ _____ _____    ______ ____
ROOT
ATOM      1  N   UNL     1       0.949  -0.970   3.463  0.00  0.00    -0.278 N 
ATOM      2  C   UNL     1       0.853  -2.294   3.714  0.00  0.00    +0.263 A 
ATOM      3  O   UNL     1       0.015  -2.975   3.155  0.00  0.00    -0.267 OA
ATOM      4  C   UNL     1       1.790  -2.890   4.684  0.00  0.00    +0.063 A 
ATOM      5  C   UNL     1       1.754  -4.247   4.997  0.00  0.00    +0.015 A 
ATOM      6  C   UNL     1       2.653  -4.757   5.910  0.00  0.00    +0.001 A 
ATOM      7  C   UNL     1       3.586  -3.928   6.515  0.00  0.00    +0.002 A 
ATOM      8  C   UNL     1       3.631  -2.581   6.214  0.00  0.00    +0.026 A 
ATOM      9  C   UNL     1       2.736  -2.051   5.297  0.00  0.00    +0.053 A 
ATOM     10  N   UNL     1       2.748  -0.704   4.966  0.00  0.00    -0.335 N 
ATOM     11  H   UNL     1       3.395  -0.113   5.381  0.00  0.00    +0.168 HD
ATOM     12  C   UNL     1       1.874  -0.211   4.071  0.00  0.00    +0.162 A 
ATOM     13  S   UNL     1       1.940   1.458   3.695  0.00  0.00    -0.013 S 
ENDROOT
BRANCH   1  14
ATOM     14  C   UNL     1       0.030  -0.352   2.503  0.00  0.00    +0.155 C 
ATOM     15  C   UNL     1      -1.413  -0.659   2.909  0.00  0.00    +0.039 C 
BRANCH  14  25
ATOM     16  C   UNL     1       0.190   1.317  -0.114  0.00  0.00    +0.048 C 
ATOM     17  C   UNL     1       0.360  -0.176   0.006  0.00  0.00    +0.000 A 
ATOM     18  C   UNL     1       0.639  -1.121  -1.083  0.00  0.00    +0.023 A 
ATOM     19  C   UNL     1       0.824  -0.996  -2.458  0.00  0.00    +0.012 A 
ATOM     20  C   UNL     1       1.074  -2.109  -3.212  0.00  0.00    +0.001 A 
ATOM     21  C   UNL     1       1.144  -3.360  -2.616  0.00  0.00    +0.004 A 
ATOM     22  C   UNL     1       0.963  -3.503  -1.257  0.00  0.00    +0.047 A 
ATOM     23  C   UNL     1       0.708  -2.385  -0.473  0.00  0.00    +0.136 A 
ATOM     24  O   UNL     1       0.492  -2.206   0.846  0.00  0.00    -0.457 OA
ATOM     25  C   UNL     1       0.294  -0.906   1.127  0.00  0.00    +0.132 A 
ENDBRANCH  14  25
ENDBRANCH   1  14
TORSDOF 2
