REMARK  Name = ZINC35209420
REMARK  10 active torsions:
REMARK  status: ('A' for Active; 'I' for Inactive)
REMARK    1  A    between atoms: C_1  and  C_2
REMARK    2  A    between atoms: C_6  and  C_8
REMARK    3  A    between atoms: C_8  and  S_9
REMARK    4  A    between atoms: S_9  and  C_10
REMARK    5  A    between atoms: C_13  and  C_24
REMARK    6  A    between atoms: N_14  and  C_15
REMARK    7  A    between atoms: C_18  and  N_21
REMARK    8  A    between atoms: C_24  and  N_25
REMARK    9  A    between atoms: N_25  and  S_26
REMARK   10  A    between atoms: S_26  and  C_29
REMARK                            x       y       z     vdW  Elec       q    Type
REMARK                         _______ _______ _______ _____ _____    ______ ____
ROOT
ATOM      1  C   UNL     1       1.622  -4.015   4.517  0.00  0.00    +0.196 A 
ATOM      2  N   UNL     1       0.504  -4.376   5.104  0.00  0.00    -0.122 NA
ATOM      3  N   UNL     1       0.766  -5.007   6.192  0.00  0.00    -0.132 NA
ATOM      4  C   UNL     1       2.054  -5.088   6.366  0.00  0.00    +0.154 A 
ATOM      5  N   UNL     1       2.649  -4.463   5.301  0.00  0.00    -0.273 N 
ENDROOT
BRANCH   5   6
ATOM      6  C   UNL     1       4.023  -4.313   5.066  0.00  0.00    +0.050 A 
ATOM      7  C   UNL     1       4.813  -5.428   4.824  0.00  0.00    +0.028 A 
ATOM      8  C   UNL     1       6.167  -5.277   4.593  0.00  0.00    +0.035 A 
ATOM      9  C   UNL     1       6.734  -4.016   4.602  0.00  0.00    +0.126 A 
ATOM     10  C   UNL     1       5.950  -2.904   4.843  0.00  0.00    +0.035 A 
ATOM     11  C   UNL     1       4.595  -3.048   5.069  0.00  0.00    +0.028 A 
BRANCH   9  12
ATOM     12  N   UNL     1       8.185  -3.858   4.355  0.00  0.00    +0.056 N 
ATOM     13  O   UNL     1       8.873  -4.830   4.145  0.00  0.00    -0.126 OA
ATOM     14  O   UNL     1       8.683  -2.756   4.363  0.00  0.00    -0.126 OA
ENDBRANCH   9  12
ENDBRANCH   5   6
BRANCH   1  15
ATOM     15  S   UNL     1       1.770  -3.127   3.002  0.00  0.00    -0.081 S 
BRANCH  15  16
ATOM     16  C   UNL     1       0.054  -2.845   2.489  0.00  0.00    +0.112 C 
BRANCH  16  22
ATOM     17  C   UNL     1      -0.018   1.503   0.010  0.00  0.00    +0.044 C 
ATOM     18  C   UNL     1       0.002  -0.004   0.002  0.00  0.00    -0.050 A 
ATOM     19  C   UNL     1       0.006  -0.689  -1.199  0.00  0.00    +0.003 A 
ATOM     20  C   UNL     1       0.025  -2.071  -1.207  0.00  0.00    +0.001 A 
ATOM     21  C   UNL     1       0.040  -2.768  -0.013  0.00  0.00    +0.004 A 
ATOM     22  C   UNL     1       0.037  -2.084   1.188  0.00  0.00    -0.037 A 
ATOM     23  C   UNL     1       0.023  -0.702   1.195  0.00  0.00    +0.007 A 
ENDBRANCH  16  22
ENDBRANCH  15  16
ENDBRANCH   1  15
BRANCH   4  24
ATOM     24  C   UNL     1       2.761  -5.750   7.521  0.00  0.00    +0.182 C 
BRANCH  24  25
ATOM     25  N   UNL     1       3.009  -7.158   7.199  0.00  0.00    -0.183 NA
ATOM     26  H   UNL     1       2.545  -7.575   6.456  0.00  0.00    +0.148 HD
BRANCH  25  27
ATOM     27  S   UNL     1       4.083  -8.037   8.103  0.00  0.00    +0.059 S 
ATOM     28  O   UNL     1       4.083  -9.353   7.567  0.00  0.00    -0.153 OA
ATOM     29  O   UNL     1       5.265  -7.255   8.203  0.00  0.00    -0.153 OA
BRANCH  27  30
ATOM     30  C   UNL     1       3.418  -8.156   9.730  0.00  0.00    +0.105 A 
ATOM     31  C   UNL     1       3.721  -7.191  10.673  0.00  0.00    +0.028 A 
ATOM     32  C   UNL     1       3.200  -7.285  11.950  0.00  0.00    +0.002 A 
ATOM     33  C   UNL     1       2.376  -8.343  12.284  0.00  0.00    +0.000 A 
ATOM     34  C   UNL     1       2.072  -9.307  11.341  0.00  0.00    +0.002 A 
ATOM     35  C   UNL     1       2.590  -9.211  10.063  0.00  0.00    +0.028 A 
ENDBRANCH  27  30
ENDBRANCH  25  27
ENDBRANCH  24  25
ENDBRANCH   4  24
TORSDOF 9
