REMARK  Name = ZINC10028359
REMARK  13 active torsions:
REMARK  status: ('A' for Active; 'I' for Inactive)
REMARK    1  A    between atoms: C_1  and  C_2
REMARK    2  A    between atoms: C_2  and  N_61
REMARK    3  A    between atoms: C_3  and  C_4
REMARK    4  A    between atoms: C_3  and  N_61
REMARK    5  A    between atoms: C_5  and  C_6
REMARK    6  A    between atoms: C_5  and  N_61
REMARK    7  A    between atoms: C_6  and  N_7
REMARK    8  A    between atoms: C_18  and  C_20
REMARK    9  A    between atoms: C_20  and  C_21
REMARK   10  A    between atoms: C_21  and  S_22
REMARK   11  A    between atoms: S_22  and  C_25
REMARK   12  A    between atoms: C_28  and  O_31
REMARK   13  A    between atoms: O_31  and  C_32
REMARK                            x       y       z     vdW  Elec       q    Type
REMARK                         _______ _______ _______ _____ _____    ______ ____
ROOT
ATOM      1  N   UNL     1      -0.306  -5.032   0.125  0.00  0.00    -0.252 N 
ATOM      2  C   UNL     1       0.292  -3.789   0.256  0.00  0.00    +0.168 A 
ATOM      3  N   UNL     1       1.569  -3.493   0.324  0.00  0.00    -0.223 NA
ATOM      4  C   UNL     1       2.014  -2.224   0.453  0.00  0.00    +0.099 A 
ATOM      5  C   UNL     1       1.013  -1.227   0.512  0.00  0.00    +0.042 A 
ATOM      6  S   UNL     1      -0.479  -2.182   0.378  0.00  0.00    -0.052 S 
ATOM      7  C   UNL     1       1.304   0.108   0.642  0.00  0.00    +0.017 A 
ATOM      8  C   UNL     1       2.624   0.515   0.720  0.00  0.00    +0.003 A 
ATOM      9  C   UNL     1       3.632  -0.435   0.666  0.00  0.00    +0.022 A 
ATOM     10  C   UNL     1       3.352  -1.772   0.536  0.00  0.00    +0.067 A 
ATOM     11 CL   UNL     1       4.652  -2.920   0.473  0.00  0.00    -0.081 Cl
ATOM     12  C   UNL     1       0.456  -6.141   0.049  0.00  0.00    +0.223 C 
ATOM     13  O   UNL     1      -0.068  -7.229  -0.067  0.00  0.00    -0.275 OA
ENDROOT
BRANCH   1  14
ATOM     14  C   UNL     1      -1.766  -5.141   0.069  0.00  0.00    +0.097 C 
BRANCH  14  15
ATOM     15  C   UNL     1      -2.229  -5.048  -1.387  0.00  0.00    -0.059 C 
BRANCH  15  16
ATOM     16  N   UNL     1      -3.700  -5.181  -1.428  0.00  0.00    +0.380 N 
ATOM     17  H   UNL     1      -3.974  -6.023  -0.908  0.00  0.00    -0.082 HD
BRANCH  16  19
ATOM     18  C   UNL     1      -3.944  -2.723  -1.546  0.00  0.00    -0.017 C 
ATOM     19  C   UNL     1      -4.331  -4.001  -0.799  0.00  0.00    -0.082 C 
ENDBRANCH  16  19
BRANCH  16  20
ATOM     20  C   UNL     1      -4.156  -5.311  -2.828  0.00  0.00    -0.082 C 
ATOM     21  C   UNL     1      -5.607  -5.796  -2.829  0.00  0.00    -0.017 C 
ENDBRANCH  16  20
ENDBRANCH  15  16
ENDBRANCH  14  15
ENDBRANCH   1  14
BRANCH  12  22
ATOM     22  C   UNL     1       1.958  -6.030   0.106  0.00  0.00    +0.119 C 
BRANCH  22  23
ATOM     23  C   UNL     1       2.577  -7.425  -0.001  0.00  0.00    +0.181 C 
BRANCH  23  24
ATOM     24  S   UNL     1       4.385  -7.291   0.069  0.00  0.00    -0.003 S 
ATOM     25  O   UNL     1       4.872  -6.641  -1.097  0.00  0.00    -0.169 OA
ATOM     26  O   UNL     1       4.795  -6.864   1.361  0.00  0.00    -0.169 OA
BRANCH  24  27
ATOM     27  C   UNL     1       4.967  -8.948  -0.063  0.00  0.00    +0.088 A 
ATOM     28  C   UNL     1       5.163  -9.704   1.078  0.00  0.00    +0.030 A 
ATOM     29  C   UNL     1       5.614 -11.006   0.977  0.00  0.00    +0.047 A 
ATOM     30  C   UNL     1       5.882 -11.551  -0.270  0.00  0.00    +0.120 A 
ATOM     31  C   UNL     1       5.690 -10.789  -1.413  0.00  0.00    +0.047 A 
ATOM     32  C   UNL     1       5.233  -9.490  -1.307  0.00  0.00    +0.030 A 
BRANCH  30  33
ATOM     33  O   UNL     1       6.331 -12.830  -0.371  0.00  0.00    -0.495 OA
ATOM     34  C   UNL     1       6.505 -13.555   0.848  0.00  0.00    +0.277 C 
ENDBRANCH  30  33
ENDBRANCH  24  27
ENDBRANCH  23  24
ENDBRANCH  22  23
ENDBRANCH  12  22
TORSDOF 10
