REMARK  Name = ZINC04236957
REMARK  10 active torsions:
REMARK  status: ('A' for Active; 'I' for Inactive)
REMARK    1  A    between atoms: C_1  and  C_2
REMARK    2  A    between atoms: C_5  and  O_31
REMARK    3  A    between atoms: C_7  and  C_28
REMARK    4  A    between atoms: C_7  and  C_29
REMARK    5  A    between atoms: C_12  and  O_27
REMARK    6  A    between atoms: C_14  and  C_16
REMARK    7  A    between atoms: C_16  and  C_17
REMARK    8  A    between atoms: N_19  and  C_20
REMARK    9  A    between atoms: C_20  and  C_21
REMARK   10  A    between atoms: C_29  and  O_30
REMARK                            x       y       z     vdW  Elec       q    Type
REMARK                         _______ _______ _______ _____ _____    ______ ____
ROOT
ATOM      1  C   UNL     1       2.396  -0.373  -2.699  0.00  0.00    +0.012 C 
ATOM      2  C   UNL     1       1.665   0.232  -1.499  0.00  0.00    -0.023 C 
ATOM      3  C   UNL     1       2.309  -0.270  -0.204  0.00  0.00    +0.010 C 
ATOM      4  C   UNL     1       3.780   0.150  -0.170  0.00  0.00    +0.032 C 
ATOM      5  C   UNL     1       3.876   1.676  -0.231  0.00  0.00    +0.123 C 
ATOM      6  C   UNL     1       3.232   2.177  -1.525  0.00  0.00    +0.020 C 
ATOM      7  C   UNL     1       1.762   1.757  -1.559  0.00  0.00    +0.006 C 
ATOM      8  C   UNL     1       1.031   2.362  -0.359  0.00  0.00    +0.007 C 
ATOM      9  C   UNL     1      -0.440   1.942  -0.393  0.00  0.00    +0.032 C 
ATOM     10  C   UNL     1      -0.537   0.417  -0.333  0.00  0.00    +0.119 C 
ATOM     11  C   UNL     1       0.194  -0.188  -1.533  0.00  0.00    +0.032 C 
ATOM     12  C   UNL     1       3.329   3.703  -1.585  0.00  0.00    +0.016 C 
ENDROOT
BRANCH  10  13
ATOM     13  O   UNL     1      -1.911   0.025  -0.365  0.00  0.00    -0.391 OA
ATOM     14  H   UNL     1      -2.436   0.373   0.368  0.00  0.00    +0.210 HD
ENDBRANCH  10  13
BRANCH   5  15
ATOM     15  O   UNL     1       5.250   2.068  -0.199  0.00  0.00    -0.391 OA
ATOM     16  H   UNL     1       5.722   1.784   0.596  0.00  0.00    +0.210 HD
ENDBRANCH   5  15
BRANCH  11  17
ATOM     17  C   UNL     1      -0.449   0.313  -2.828  0.00  0.00    +0.102 C 
BRANCH  17  18
ATOM     18  C   UNL     1      -1.806  -0.323  -2.993  0.00  0.00    +0.214 C 
ATOM     19  O   UNL     1      -2.149  -1.220  -2.253  0.00  0.00    -0.276 OA
ATOM     20  N   UNL     1      -2.637   0.106  -3.963  0.00  0.00    -0.311 N 
ATOM     21  H   UNL     1      -2.362   0.824  -4.556  0.00  0.00    +0.149 HD
BRANCH  20  22
ATOM     22  C   UNL     1      -3.955  -0.511  -4.124  0.00  0.00    +0.139 C 
BRANCH  22  23
ATOM     23  C   UNL     1      -4.681   0.145  -5.271  0.00  0.00    -0.030 A 
ATOM     24  C   UNL     1      -5.486   1.244  -5.040  0.00  0.00    +0.005 A 
ATOM     25  C   UNL     1      -6.148   1.849  -6.093  0.00  0.00    +0.000 A 
ATOM     26  C   UNL     1      -6.013   1.347  -7.374  0.00  0.00    +0.000 A 
ATOM     27  C   UNL     1      -5.212   0.244  -7.603  0.00  0.00    +0.000 A 
ATOM     28  C   UNL     1      -4.546  -0.357  -6.552  0.00  0.00    +0.005 A 
ENDBRANCH  22  23
ENDBRANCH  20  22
ENDBRANCH  17  18
ENDBRANCH  11  17
BRANCH   6  29
ATOM     29  C   UNL     1       3.963   1.572  -2.725  0.00  0.00    +0.165 C 
BRANCH  29  30
ATOM     30  O   UNL     1       5.283   2.116  -2.803  0.00  0.00    -0.394 OA
ATOM     31  H   UNL     1       5.805   1.776  -3.542  0.00  0.00    +0.209 HD
ENDBRANCH  29  30
ENDBRANCH   6  29
TORSDOF 8
