REMARK  Name = ZINC36329966
REMARK  7 active torsions:
REMARK  status: ('A' for Active; 'I' for Inactive)
REMARK    1  A    between atoms: C_1  and  C_2
REMARK    2  A    between atoms: C_2  and  C_4
REMARK    3  A    between atoms: C_7  and  N_10
REMARK    4  A    between atoms: N_13  and  C_16
REMARK    5  A    between atoms: C_16  and  C_17
REMARK    6  A    between atoms: N_19  and  C_20
REMARK    7  A    between atoms: C_21  and  C_29
REMARK                            x       y       z     vdW  Elec       q    Type
REMARK                         _______ _______ _______ _____ _____    ______ ____
ROOT
ATOM      1  C   UNL     1      -1.524  -6.200  -8.300  0.00  0.00    +0.232 C 
ATOM      2  O   UNL     1      -0.516  -6.641  -7.791  0.00  0.00    -0.274 OA
ATOM      3  N   UNL     1      -2.257  -6.974  -9.124  0.00  0.00    -0.278 N 
ATOM      4  H   UNL     1      -3.064  -6.621  -9.532  0.00  0.00    +0.155 HD
ENDROOT
BRANCH   3   5
ATOM      5  C   UNL     1      -1.859  -8.275  -9.390  0.00  0.00    +0.084 A 
ATOM      6  C   UNL     1      -2.479  -9.206 -10.208  0.00  0.00    +0.068 A 
ATOM      7  C   UNL     1      -1.856 -10.513 -10.319  0.00  0.00    -0.023 A 
ATOM      8  C   UNL     1      -0.726 -10.650  -9.591  0.00  0.00    -0.004 A 
ATOM      9  S   UNL     1      -0.510  -9.083  -8.800  0.00  0.00    -0.077 S 
ATOM     10  C   UNL     1       0.140 -11.868  -9.495  0.00  0.00    +0.043 C 
ATOM     11  C   UNL     1      -0.648 -13.065 -10.049  0.00  0.00    +0.005 C 
ATOM     12  C   UNL     1      -1.268 -12.671 -11.392  0.00  0.00    +0.005 C 
ATOM     13  C   UNL     1      -2.392 -11.656 -11.169  0.00  0.00    +0.037 C 
BRANCH   6  14
ATOM     14  C   UNL     1      -3.714  -8.885 -10.931  0.00  0.00    +0.244 C 
ATOM     15  O   UNL     1      -3.658  -8.411 -12.051  0.00  0.00    -0.270 OA
ATOM     16  N   UNL     1      -4.911  -9.115 -10.356  0.00  0.00    -0.325 N 
ATOM     17  H   UNL     1      -4.956  -9.493  -9.464  0.00  0.00    +0.145 HD
ATOM     18  H   UNL     1      -5.728  -8.903 -10.834  0.00  0.00    +0.145 HD
ENDBRANCH   6  14
ENDBRANCH   3   5
BRANCH   1  19
ATOM     19  C   UNL     1      -1.957  -4.785  -8.012  0.00  0.00    +0.181 C 
BRANCH  19  23
ATOM     20  N   UNL     1      -0.005  -2.787  -4.879  0.00  0.00    -0.327 N 
ATOM     21  C   UNL     1      -0.126  -2.069  -6.157  0.00  0.00    +0.120 C 
ATOM     22  C   UNL     1      -1.250  -2.715  -6.975  0.00  0.00    +0.104 C 
ATOM     23  N   UNL     1      -0.998  -4.157  -7.094  0.00  0.00    -0.291 NA
ATOM     24  C   UNL     1      -1.021  -4.813  -5.779  0.00  0.00    +0.104 C 
ATOM     25  C   UNL     1       0.119  -4.252  -4.913  0.00  0.00    +0.120 C 
BRANCH  20  29
ATOM     26  C   UNL     1       0.002  -0.731  -1.273  0.00  0.00    +0.017 A 
ATOM     27  C   UNL     1      -0.001  -2.132  -1.283  0.00  0.00    +0.013 A 
ATOM     28  C   UNL     1      -0.004  -2.804  -2.471  0.00  0.00    +0.024 A 
ATOM     29  C   UNL     1      -0.003  -2.099  -3.673  0.00  0.00    +0.030 A 
ATOM     30  C   UNL     1      -0.001  -0.706  -3.667  0.00  0.00    +0.024 A 
ATOM     31  C   UNL     1      -0.003  -0.026  -2.484  0.00  0.00    +0.013 A 
BRANCH  26  33
ATOM     32  C   UNL     1       0.009  -0.765   1.303  0.00  0.00    +0.091 C 
ATOM     33  C   UNL     1       0.004  -0.004   0.002  0.00  0.00    +0.160 C 
ATOM     34  O   UNL     1       0.001   1.209   0.009  0.00  0.00    -0.292 OA
ENDBRANCH  26  33
ENDBRANCH  20  29
ENDBRANCH  19  23
ENDBRANCH   1  19
TORSDOF 6
