REMARK  Name = ZINC65074774
REMARK  4 active torsions:
REMARK  status: ('A' for Active; 'I' for Inactive)
REMARK    1  A    between atoms: C_5  and  C_7
REMARK    2  A    between atoms: C_7  and  N_8
REMARK    3  A    between atoms: N_17  and  S_20
REMARK    4  A    between atoms: S_20  and  C_23
REMARK                            x       y       z     vdW  Elec       q    Type
REMARK                         _______ _______ _______ _____ _____    ______ ____
ROOT
ATOM      1  N   UNL     1       1.489  -2.679   1.333  0.00  0.00    -0.329 N 
ATOM      2  C   UNL     1       1.553  -4.026   1.571  0.00  0.00    +0.089 C 
ATOM      3  N   UNL     1       1.385  -4.824   0.585  0.00  0.00    -0.374 N 
ATOM      4  C   UNL     1       1.418  -6.278   0.703  0.00  0.00    +0.129 C 
ATOM      5  C   UNL     1       2.080  -6.684   2.021  0.00  0.00    +0.102 C 
ATOM      6  N   UNL     1       1.463  -5.909   3.111  0.00  0.00    -0.303 NA
ATOM      7  C   UNL     1       1.822  -4.488   2.976  0.00  0.00    +0.075 C 
ATOM      8  C   UNL     1       0.983  -3.663   3.956  0.00  0.00    +0.047 C 
ATOM      9  C   UNL     1       1.232  -4.165   5.382  0.00  0.00    +0.112 C 
ATOM     10  N   UNL     1       2.677  -4.133   5.649  0.00  0.00    -0.176 NA
ATOM     11  C   UNL     1       3.583  -4.815   4.716  0.00  0.00    +0.112 C 
ATOM     12  C   UNL     1       3.307  -4.305   3.299  0.00  0.00    +0.047 C 
ATOM     13  H   UNL     1       1.615  -2.051   2.062  0.00  0.00    +0.147 HD
ATOM     14  H   UNL     1       0.462  -6.033   3.121  0.00  0.00    +0.123 HD
ATOM     15  H   UNL     1       1.227  -4.440  -0.291  0.00  0.00    +0.161 HD
ENDROOT
BRANCH  10  16
ATOM     16  S   UNL     1       3.271  -3.342   6.977  0.00  0.00    +0.067 S 
ATOM     17  O   UNL     1       4.620  -3.006   6.680  0.00  0.00    -0.152 OA
ATOM     18  O   UNL     1       2.304  -2.365   7.335  0.00  0.00    -0.152 OA
BRANCH  16  19
ATOM     19  C   UNL     1       3.323  -4.507   8.298  0.00  0.00    +0.143 A 
ATOM     20  C   UNL     1       4.329  -5.338   8.664  0.00  0.00    +0.036 A 
ATOM     21  C   UNL     1       4.145  -6.177   9.748  0.00  0.00    +0.010 A 
ATOM     22  C   UNL     1       2.963  -6.143  10.412  0.00  0.00    +0.047 A 
ATOM     23  S   UNL     1       2.066  -4.893   9.506  0.00  0.00    -0.077 S 
ENDBRANCH  16  19
ENDBRANCH  10  16
BRANCH   1  24
ATOM     24  C   UNL     1       1.229  -2.186  -0.022  0.00  0.00    +0.139 C 
BRANCH  24  29
ATOM     25  C   UNL     1      -0.017   1.378   0.010  0.00  0.00    +0.000 A 
ATOM     26  C   UNL     1       1.171   2.086   0.002  0.00  0.00    +0.001 A 
ATOM     27  C   UNL     1       2.377   1.412  -0.013  0.00  0.00    +0.020 A 
ATOM     28  C   UNL     1       2.397   0.029  -0.021  0.00  0.00    +0.046 A 
ATOM     29  C   UNL     1       1.208  -0.679  -0.013  0.00  0.00    -0.012 A 
ATOM     30  C   UNL     1       0.002  -0.004   0.002  0.00  0.00    +0.006 A 
ATOM     31 CL   UNL     1       3.912  -0.818  -0.041  0.00  0.00    -0.083 Cl
ENDBRANCH  24  29
ENDBRANCH   1  24
TORSDOF 4
