REMARK  Name = ZINC06499965
REMARK  5 active torsions:
REMARK  status: ('A' for Active; 'I' for Inactive)
REMARK    1  A    between atoms: N_8  and  C1*_13
REMARK    2  A    between atoms: C2*_15  and  O2*_25
REMARK    3  A    between atoms: C3*_17  and  O3*_24
REMARK    4  A    between atoms: C4*_19  and  C5*_22
REMARK    5  A    between atoms: C5*_22  and  O5*_23
REMARK                            x       y       z     vdW  Elec       q    Type
REMARK                         _______ _______ _______ _____ _____    ______ ____
ROOT
ATOM      1  C   UNL     1      -0.016   1.321   0.009  0.00  0.00    +0.126 A 
ATOM      2  C   UNL     1       1.201   1.995   0.001  0.00  0.00    +0.068 A 
ATOM      3  C   UNL     1       1.301   3.463   0.009  0.00  0.00    +0.125 A 
ATOM      4  S   UNL     1      -0.104   4.441   0.028  0.00  0.00    -0.030 S 
ATOM      5  N   UNL     1       2.528   4.014   0.000  0.00  0.00    -0.185 NA
ATOM      6  C   UNL     1       3.614   3.279  -0.014  0.00  0.00    +0.353 A 
ATOM      7  O   UNL     1       4.810   3.901  -0.022  0.00  0.00    -0.244 OA
ATOM      8  N   UNL     1       3.592   1.919  -0.021  0.00  0.00    -0.247 N 
ATOM      9  C   UNL     1       2.394   1.244  -0.014  0.00  0.00    +0.152 A 
ATOM     10  N   UNL     1       2.316  -0.079  -0.021  0.00  0.00    -0.217 NA
ATOM     11  C   UNL     1       1.139  -0.674  -0.012  0.00  0.00    +0.223 A 
ATOM     12  N   UNL     1       0.002  -0.004   0.002  0.00  0.00    -0.243 NA
ENDROOT
BRANCH   8  13
ATOM     13  C1* UNL     1       4.851   1.169  -0.037  0.00  0.00    +0.257 C 
ATOM     14  C2* UNL     1       5.654   1.479  -1.326  0.00  0.00    +0.195 C 
ATOM     15  C3* UNL     1       6.532   0.212  -1.473  0.00  0.00    +0.178 C 
ATOM     16  C4* UNL     1       5.795  -0.856  -0.642  0.00  0.00    +0.177 C 
ATOM     17  O4* UNL     1       4.597  -0.249  -0.127  0.00  0.00    -0.346 OA
BRANCH  15  18
ATOM     18  O3* UNL     1       6.614  -0.183  -2.843  0.00  0.00    -0.386 OA
ATOM     19  H3* UNL     1       7.152  -0.973  -2.994  0.00  0.00    +0.210 HD
ENDBRANCH  15  18
BRANCH  14  20
ATOM     20  O2* UNL     1       6.464   2.644  -1.155  0.00  0.00    -0.385 OA
ATOM     21  H2* UNL     1       6.986   2.879  -1.934  0.00  0.00    +0.210 HD
ENDBRANCH  14  20
BRANCH  16  22
ATOM     22  C5* UNL     1       5.438  -2.050  -1.531  0.00  0.00    +0.190 C 
BRANCH  22  23
ATOM     23  O5* UNL     1       4.860  -3.083  -0.730  0.00  0.00    -0.392 OA
ATOM     24  H5* UNL     1       4.609  -3.873  -1.229  0.00  0.00    +0.210 HD
ENDBRANCH  22  23
ENDBRANCH  16  22
ENDBRANCH   8  13
TORSDOF 5
