REMARK  Name = ZINC36358064
REMARK  7 active torsions:
REMARK  status: ('A' for Active; 'I' for Inactive)
REMARK    1  A    between atoms: C_1  and  N_2
REMARK    2  A    between atoms: N_21  and  C_22
REMARK    3  A    between atoms: C_22  and  C_23
REMARK    4  A    between atoms: C_23  and  C_25
REMARK    5  A    between atoms: C_23  and  N_30
REMARK    6  A    between atoms: N_30  and  C_31
REMARK    7  A    between atoms: N_30  and  C_32
REMARK                            x       y       z     vdW  Elec       q    Type
REMARK                         _______ _______ _______ _____ _____    ______ ____
ROOT
ATOM      1  C   UNL     1      -1.319  -0.022  -0.435  0.00  0.00    +0.138 C 
ATOM      2  N   UNL     1      -0.972  -1.339  -0.976  0.00  0.00    -0.271 N 
ATOM      3  C   UNL     1      -1.837  -2.122  -1.718  0.00  0.00    +0.043 A 
ATOM      4  C   UNL     1      -3.155  -1.868  -2.103  0.00  0.00    +0.024 A 
ATOM      5  C   UNL     1      -3.795  -2.841  -2.854  0.00  0.00    +0.002 A 
ATOM      6  C   UNL     1      -3.168  -4.016  -3.214  0.00  0.00    +0.001 A 
ATOM      7  C   UNL     1      -1.856  -4.282  -2.838  0.00  0.00    +0.010 A 
ATOM      8  C   UNL     1      -1.213  -3.319  -2.090  0.00  0.00    +0.024 A 
ATOM      9  C   UNL     1       0.171  -3.266  -1.522  0.00  0.00    +0.208 C 
ATOM     10  C   UNL     1       0.231  -1.927  -0.813  0.00  0.00    +0.266 C 
ATOM     11  O   UNL     1       1.180  -1.472  -0.211  0.00  0.00    -0.271 OA
ATOM     12  N   UNL     1       0.379  -4.347  -0.557  0.00  0.00    -0.312 N 
ATOM     13  C   UNL     1       0.716  -5.612  -1.027  0.00  0.00    +0.041 A 
ATOM     14  C   UNL     1       0.393  -6.760  -0.323  0.00  0.00    +0.024 A 
ATOM     15  C   UNL     1       0.759  -7.995  -0.822  0.00  0.00    +0.002 A 
ATOM     16  C   UNL     1       1.448  -8.094  -2.020  0.00  0.00    +0.001 A 
ATOM     17  C   UNL     1       1.773  -6.962  -2.737  0.00  0.00    +0.015 A 
ATOM     18  C   UNL     1       1.405  -5.710  -2.248  0.00  0.00    +0.058 A 
ATOM     19  C   UNL     1       1.710  -4.474  -2.991  0.00  0.00    +0.251 C 
ATOM     20  O   UNL     1       2.436  -4.507  -3.966  0.00  0.00    -0.270 OA
ATOM     21  N   UNL     1       1.175  -3.306  -2.581  0.00  0.00    -0.266 N 
ATOM     22  H   UNL     1       0.284  -4.184   0.394  0.00  0.00    +0.149 HD
ENDROOT
BRANCH  21  23
ATOM     23  C   UNL     1       1.608  -2.055  -3.210  0.00  0.00    +0.101 C 
BRANCH  23  24
ATOM     24  C   UNL     1       2.780  -1.468  -2.421  0.00  0.00    -0.014 C 
BRANCH  24  25
ATOM     25  C   UNL     1       3.323  -0.265  -3.149  0.00  0.00    -0.022 A 
ATOM     26  C   UNL     1       3.103   1.051  -2.906  0.00  0.00    +0.009 A 
ATOM     27  C   UNL     1       3.714   1.992  -3.713  0.00  0.00    +0.008 A 
ATOM     28  C   UNL     1       4.514   1.573  -4.723  0.00  0.00    +0.045 A 
ATOM     29  S   UNL     1       4.427  -0.202  -4.550  0.00  0.00    -0.103 S 
ENDBRANCH  24  25
BRANCH  24  30
ATOM     30  N   UNL     1       3.838  -2.479  -2.290  0.00  0.00    +0.382 N 
ATOM     31  C   UNL     1       5.129  -1.811  -2.075  0.00  0.00    -0.096 C 
ATOM     32  C   UNL     1       3.542  -3.352  -1.146  0.00  0.00    -0.096 C 
ATOM     33  H   UNL     1       3.881  -3.031  -3.133  0.00  0.00    -0.082 HD
ENDBRANCH  24  30
ENDBRANCH  23  24
ENDBRANCH  21  23
TORSDOF 4
