REMARK  Name = ZINC13031728
REMARK  14 active torsions:
REMARK  status: ('A' for Active; 'I' for Inactive)
REMARK    1  A    between atoms: C_1  and  C_2
REMARK    2  A    between atoms: C_2  and  O_3
REMARK    3  A    between atoms: O_3  and  C_4
REMARK    4  A    between atoms: C_7  and  N_10
REMARK    5  A    between atoms: N_10  and  C_11
REMARK    6  A    between atoms: C_11  and  C_13
REMARK    7  A    between atoms: C_11  and  C_18
REMARK    8  A    between atoms: N_20  and  C_21
REMARK    9  A    between atoms: C_21  and  C_22
REMARK   10  A    between atoms: C_22  and  C_23
REMARK   11  A    between atoms: C_23  and  C_24
REMARK   12  A    between atoms: C_23  and  C_25
REMARK   13  A    between atoms: C_26  and  C_28
REMARK   14  A    between atoms: C_28  and  N_29
REMARK                            x       y       z     vdW  Elec       q    Type
REMARK                         _______ _______ _______ _____ _____    ______ ____
ROOT
ATOM      1  N   UNL     1      -5.430   3.329  -1.620  0.00  0.00    -0.253 N 
ATOM      2  C   UNL     1      -4.161   3.741  -1.429  0.00  0.00    +0.242 C 
ATOM      3  O   UNL     1      -3.436   3.931  -2.383  0.00  0.00    -0.273 OA
ENDROOT
BRANCH   1   7
ATOM      4  C   UNL     1      -6.740   2.311  -5.446  0.00  0.00    +0.121 A 
ATOM      5  C   UNL     1      -5.410   2.643  -5.234  0.00  0.00    +0.047 A 
ATOM      6  C   UNL     1      -4.976   2.981  -3.967  0.00  0.00    +0.027 A 
ATOM      7  C   UNL     1      -5.870   2.987  -2.905  0.00  0.00    +0.038 A 
ATOM      8  C   UNL     1      -7.200   2.649  -3.117  0.00  0.00    +0.027 A 
ATOM      9  C   UNL     1      -7.634   2.317  -4.385  0.00  0.00    +0.047 A 
BRANCH   4  10
ATOM     10  O   UNL     1      -7.167   1.979  -6.693  0.00  0.00    -0.492 OA
BRANCH  10  12
ATOM     11  C   UNL     1      -8.840   1.304  -8.301  0.00  0.00    +0.048 C 
ATOM     12  C   UNL     1      -8.549   1.647  -6.839  0.00  0.00    +0.225 C 
ENDBRANCH  10  12
ENDBRANCH   4  10
ENDBRANCH   1   7
BRANCH   1  13
ATOM     13  C   UNL     1      -6.350   3.240  -0.483  0.00  0.00    +0.204 C 
BRANCH  13  14
ATOM     14  C   UNL     1      -7.424   4.287  -0.622  0.00  0.00    +0.019 A 
ATOM     15  C   UNL     1      -7.935   5.116   0.322  0.00  0.00    +0.013 A 
ATOM     16  C   UNL     1      -8.927   6.009  -0.037  0.00  0.00    +0.008 A 
ATOM     17  C   UNL     1      -9.359   6.030  -1.322  0.00  0.00    +0.045 A 
ATOM     18  S   UNL     1      -8.348   4.765  -2.073  0.00  0.00    -0.099 S 
ENDBRANCH  13  14
BRANCH  13  19
ATOM     19  C   UNL     1      -6.982   1.872  -0.455  0.00  0.00    +0.239 C 
ATOM     20  O   UNL     1      -6.630   1.025  -1.248  0.00  0.00    -0.273 OA
ATOM     21  N   UNL     1      -7.939   1.591   0.451  0.00  0.00    -0.313 N 
ATOM     22  H   UNL     1      -8.221   2.268   1.086  0.00  0.00    +0.149 HD
BRANCH  21  23
ATOM     23  C   UNL     1      -8.554   0.261   0.478  0.00  0.00    +0.104 C 
BRANCH  23  24
ATOM     24  C   UNL     1      -9.601   0.206   1.592  0.00  0.00    +0.022 C 
BRANCH  24  25
ATOM     25  C   UNL     1     -10.244  -1.182   1.621  0.00  0.00    -0.016 C 
ATOM     26  C   UNL     1      -9.190  -2.224   2.003  0.00  0.00    +0.007 C 
ATOM     27  C   UNL     1     -11.376  -1.199   2.650  0.00  0.00    +0.007 C 
ENDBRANCH  24  25
ENDBRANCH  23  24
ENDBRANCH  21  23
ENDBRANCH  13  19
ENDBRANCH   1  13
BRANCH   2  28
ATOM     28  C   UNL     1      -3.643   3.966  -0.032  0.00  0.00    +0.242 C 
BRANCH  28  29
ATOM     29  N   UNL     1      -2.216   4.290  -0.086  0.00  0.00    -0.235 N 
ATOM     30  C   UNL     1      -1.168   3.403  -0.037  0.00  0.00    +0.090 A 
ATOM     31  C   UNL     1      -1.078   2.019   0.066  0.00  0.00    +0.029 A 
ATOM     32  C   UNL     1       0.150   1.418   0.094  0.00  0.00    +0.002 A 
ATOM     33  C   UNL     1       1.310   2.177   0.011  0.00  0.00    +0.002 A 
ATOM     34  C   UNL     1       1.249   3.536  -0.096  0.00  0.00    +0.032 A 
ATOM     35  C   UNL     1       0.003   4.176  -0.122  0.00  0.00    +0.113 A 
ATOM     36  N   UNL     1      -0.367   5.469  -0.217  0.00  0.00    -0.129 NA
ATOM     37  N   UNL     1      -1.650   5.569  -0.199  0.00  0.00    -0.064 NA
ENDBRANCH  28  29
ENDBRANCH   2  28
TORSDOF 11
