REMARK  Name = ZINC08431894
REMARK  13 active torsions:
REMARK  status: ('A' for Active; 'I' for Inactive)
REMARK    1  A    between atoms: C_1  and  C_2
REMARK    2  A    between atoms: C_2  and  C_30
REMARK    3  A    between atoms: N_3  and  N_4
REMARK    4  A    between atoms: C_5  and  C_7
REMARK    5  A    between atoms: C_7  and  S_8
REMARK    6  A    between atoms: S_8  and  C_9
REMARK    7  A    between atoms: C_12  and  C_22
REMARK    8  A    between atoms: N_13  and  C_14
REMARK    9  A    between atoms: C_17  and  O_20
REMARK   10  A    between atoms: O_20  and  C_21
REMARK   11  A    between atoms: C_25  and  O_28
REMARK   12  A    between atoms: O_28  and  C_29
REMARK   13  A    between atoms: C_33  and  O_36
REMARK                            x       y       z     vdW  Elec       q    Type
REMARK                         _______ _______ _______ _____ _____    ______ ____
ROOT
ATOM      1  C   UNL     1      -4.620   0.485   0.068  0.00  0.00    +0.197 A 
ATOM      2  N   UNL     1      -3.887  -0.594   0.224  0.00  0.00    -0.122 NA
ATOM      3  N   UNL     1      -2.641  -0.302   0.107  0.00  0.00    -0.128 NA
ATOM      4  C   UNL     1      -2.500   0.981  -0.132  0.00  0.00    +0.169 A 
ATOM      5  N   UNL     1      -3.764   1.528  -0.159  0.00  0.00    -0.270 N 
ENDROOT
BRANCH   5   6
ATOM      6  C   UNL     1      -4.102   2.872  -0.377  0.00  0.00    +0.051 A 
ATOM      7  C   UNL     1      -3.779   3.832   0.573  0.00  0.00    +0.030 A 
ATOM      8  C   UNL     1      -4.106   5.156   0.355  0.00  0.00    +0.047 A 
ATOM      9  C   UNL     1      -4.770   5.525  -0.806  0.00  0.00    +0.120 A 
ATOM     10  C   UNL     1      -5.099   4.565  -1.752  0.00  0.00    +0.047 A 
ATOM     11  C   UNL     1      -4.766   3.242  -1.539  0.00  0.00    +0.030 A 
BRANCH   9  12
ATOM     12  O   UNL     1      -5.098   6.827  -1.017  0.00  0.00    -0.495 OA
ATOM     13  C   UNL     1      -4.728   7.762  -0.001  0.00  0.00    +0.277 C 
ENDBRANCH   9  12
ENDBRANCH   5   6
BRANCH   4  14
ATOM     14  C   UNL     1      -1.226   1.704  -0.329  0.00  0.00    +0.020 A 
ATOM     15  C   UNL     1      -1.221   2.963  -0.932  0.00  0.00    +0.015 A 
ATOM     16  C   UNL     1      -0.031   3.636  -1.108  0.00  0.00    +0.046 A 
ATOM     17  C   UNL     1       1.163   3.061  -0.693  0.00  0.00    +0.120 A 
ATOM     18  C   UNL     1       1.163   1.806  -0.098  0.00  0.00    +0.046 A 
ATOM     19  C   UNL     1      -0.023   1.126   0.083  0.00  0.00    +0.015 A 
BRANCH  17  20
ATOM     20  O   UNL     1       2.334   3.727  -0.868  0.00  0.00    -0.495 OA
ATOM     21  C   UNL     1       3.524   3.077  -0.418  0.00  0.00    +0.277 C 
ENDBRANCH  17  20
ENDBRANCH   4  14
BRANCH   1  22
ATOM     22  S   UNL     1      -6.379   0.574   0.143  0.00  0.00    -0.076 S 
BRANCH  22  23
ATOM     23  C   UNL     1      -6.767  -1.162   0.476  0.00  0.00    +0.174 C 
BRANCH  23  25
ATOM     24  N   UNL     1      -8.785  -2.548   0.831  0.00  0.00    -0.206 N 
ATOM     25  C   UNL     1      -8.261  -1.331   0.584  0.00  0.00    +0.242 C 
ATOM     26  O   UNL     1      -8.991  -0.371   0.449  0.00  0.00    -0.273 OA
ATOM     27  H   UNL     1      -8.201  -3.315   0.939  0.00  0.00    +0.177 HD
BRANCH  24  30
ATOM     28  C   UNL     1      -9.772  -5.068   1.337  0.00  0.00    +0.068 C 
ATOM     29  C   UNL     1     -10.679  -3.876   1.169  0.00  0.00    +0.063 C 
ATOM     30  N   UNL     1     -10.174  -2.704   0.931  0.00  0.00    -0.185 NA
BRANCH  29  31
ATOM     31  C   UNL     1     -12.140  -4.041   1.274  0.00  0.00    -0.002 A 
ATOM     32  C   UNL     1     -12.686  -5.303   1.524  0.00  0.00    +0.013 A 
ATOM     33  C   UNL     1     -14.052  -5.452   1.629  0.00  0.00    +0.046 A 
ATOM     34  C   UNL     1     -14.886  -4.352   1.473  0.00  0.00    +0.117 A 
ATOM     35  C   UNL     1     -14.348  -3.097   1.219  0.00  0.00    +0.046 A 
ATOM     36  C   UNL     1     -12.983  -2.938   1.119  0.00  0.00    +0.013 A 
BRANCH  34  37
ATOM     37  O   UNL     1     -16.233  -4.504   1.571  0.00  0.00    -0.507 OA
ATOM     38  H   UNL     1     -16.668  -4.705   0.731  0.00  0.00    +0.292 HD
ENDBRANCH  34  37
ENDBRANCH  29  31
ENDBRANCH  24  30
ENDBRANCH  23  25
ENDBRANCH  22  23
ENDBRANCH   1  22
TORSDOF 10
