REMARK  Name = ZINC00464199
REMARK  4 active torsions:
REMARK  status: ('A' for Active; 'I' for Inactive)
REMARK    1  A    between atoms: C_9  and  N_11
REMARK    2  A    between atoms: N_11  and  C_12
REMARK    3  A    between atoms: C_12  and  C_13
REMARK    4  A    between atoms: C_18  and  O_19
REMARK                            x       y       z     vdW  Elec       q    Type
REMARK                         _______ _______ _______ _____ _____    ______ ____
ROOT
ATOM      1  N   UNL     1       2.413   3.847   0.000  0.00  0.00    -0.338 N 
ATOM      2  H   UNL     1       2.417   4.817   0.006  0.00  0.00    +0.146 HD
ENDROOT
BRANCH   1  11
ATOM      3  C   UNL     1      -0.013   1.076   0.008  0.00  0.00    +0.003 A 
ATOM      4  C   UNL     1      -1.207   1.731   0.017  0.00  0.00    +0.010 A 
ATOM      5  C   UNL     1      -1.236   3.134   0.031  0.00  0.00    +0.002 A 
ATOM      6  C   UNL     1      -2.454   3.841   0.046  0.00  0.00    +0.011 A 
ATOM      7  C   UNL     1      -2.407   5.206   0.054  0.00  0.00    +0.020 A 
ATOM      8  C   UNL     1      -1.177   5.859   0.046  0.00  0.00    +0.111 A 
ATOM      9  N   UNL     1      -0.045   5.198   0.032  0.00  0.00    -0.253 NA
ATOM     10  C   UNL     1      -0.021   3.862   0.024  0.00  0.00    +0.092 A 
ATOM     11  C   UNL     1       1.202   3.156   0.008  0.00  0.00    +0.054 A 
ATOM     12  C   UNL     1       1.189   1.778   0.000  0.00  0.00    +0.025 A 
ENDBRANCH   1  11
BRANCH   1  13
ATOM     13  C   UNL     1       3.678   3.108  -0.016  0.00  0.00    +0.140 C 
BRANCH  13  14
ATOM     14  C   UNL     1       4.828   4.082  -0.022  0.00  0.00    +0.014 A 
ATOM     15  C   UNL     1       5.478   4.377  -1.205  0.00  0.00    +0.028 A 
ATOM     16  C   UNL     1       6.534   5.271  -1.212  0.00  0.00    +0.043 A 
ATOM     17  C   UNL     1       6.941   5.872  -0.034  0.00  0.00    +0.043 A 
ATOM     18  C   UNL     1       6.294   5.580   1.152  0.00  0.00    +0.084 A 
ATOM     19  C   UNL     1       5.231   4.687   1.159  0.00  0.00    +0.140 A 
ATOM     20 CL   UNL     1       6.804   6.334   2.630  0.00  0.00    -0.080 Cl
ATOM     21 CL   UNL     1       7.348   5.639  -2.700  0.00  0.00    -0.083 Cl
BRANCH  19  22
ATOM     22  O   UNL     1       4.588   4.402   2.323  0.00  0.00    -0.505 OA
ATOM     23  H   UNL     1       4.965   3.656   2.808  0.00  0.00    +0.292 HD
ENDBRANCH  19  22
ENDBRANCH  13  14
ENDBRANCH   1  13
TORSDOF 4
