REMARK  Name = ZINC04984277
REMARK  5 active torsions:
REMARK  status: ('A' for Active; 'I' for Inactive)
REMARK    1  A    between atoms: C_11  and  C_12
REMARK    2  A    between atoms: C_14  and  O_24
REMARK    3  A    between atoms: C_16  and  O_23
REMARK    4  A    between atoms: C_18  and  C_21
REMARK    5  A    between atoms: C_21  and  O_22
REMARK                            x       y       z     vdW  Elec       q    Type
REMARK                         _______ _______ _______ _____ _____    ______ ____
ROOT
ATOM      1  C   UNL     1       4.948   1.799  -0.036  0.00  0.00    +0.200 C 
ATOM      2  C   UNL     1       5.442   1.610  -1.492  0.00  0.00    +0.180 C 
ATOM      3  C   UNL     1       6.948   1.966  -1.340  0.00  0.00    +0.177 C 
ATOM      4  C   UNL     1       6.918   3.061  -0.252  0.00  0.00    +0.175 C 
ATOM      5  O   UNL     1       5.691   2.919   0.471  0.00  0.00    -0.360 OA
ENDROOT
BRANCH   1  16
ATOM      6  C   UNL     1       1.130  -0.702  -0.013  0.00  0.00    +0.223 A 
ATOM      7  N   UNL     1       2.320  -0.156  -0.021  0.00  0.00    -0.232 NA
ATOM      8  C   UNL     1       2.446   1.179  -0.015  0.00  0.00    +0.119 A 
ATOM      9  C   UNL     1       1.218   1.998   0.001  0.00  0.00    +0.148 A 
ATOM     10  C   UNL     1      -0.016   1.313   0.009  0.00  0.00    +0.160 A 
ATOM     11  N   UNL     1       0.002  -0.004   0.002  0.00  0.00    -0.222 NA
ATOM     12 CL   UNL     1      -1.518   2.183   0.021  0.00  0.00    -0.060 Cl
ATOM     13  N   UNL     1       1.619   3.251   0.003  0.00  0.00    -0.169 NA
ATOM     14  N   UNL     1       2.904   3.318  -0.009  0.00  0.00    -0.276 N 
ATOM     15  H   UNL     1       3.403   4.298  -0.010  0.00  0.00    +0.189 HD
ATOM     16  C   UNL     1       3.471   2.100  -0.020  0.00  0.00    +0.093 A 
ENDBRANCH   1  16
BRANCH   3  17
ATOM     17  O   UNL     1       7.698   0.832  -0.900  0.00  0.00    -0.386 OA
ATOM     18  H   UNL     1       8.784   0.918  -0.744  0.00  0.00    +0.210 HD
ENDBRANCH   3  17
BRANCH   2  19
ATOM     19  O   UNL     1       4.787   2.517  -2.381  0.00  0.00    -0.386 OA
ATOM     20  H   UNL     1       5.030   2.508  -3.454  0.00  0.00    +0.210 HD
ENDBRANCH   2  19
BRANCH   4  21
ATOM     21  C   UNL     1       8.104   2.881   0.698  0.00  0.00    +0.190 C 
BRANCH  21  22
ATOM     22  O   UNL     1       8.131   3.958   1.636  0.00  0.00    -0.392 OA
ATOM     23  H   UNL     1       8.918   4.000   2.403  0.00  0.00    +0.210 HD
ENDBRANCH  21  22
ENDBRANCH   4  21
TORSDOF 5
