REMARK  Name = ZINC11912330
REMARK  9 active torsions:
REMARK  status: ('A' for Active; 'I' for Inactive)
REMARK    1  A    between atoms: C_1  and  C_2
REMARK    2  A    between atoms: C_2  and  C_3
REMARK    3  A    between atoms: C_3  and  C_14
REMARK    4  A    between atoms: N_6  and  C_10
REMARK    5  A    between atoms: C_10  and  C_11
REMARK    6  A    between atoms: C_11  and  C_13
REMARK    7  A    between atoms: C_19  and  C_20
REMARK    8  A    between atoms: C_19  and  N_62
REMARK    9  A    between atoms: N_24  and  C_25
REMARK                            x       y       z     vdW  Elec       q    Type
REMARK                         _______ _______ _______ _____ _____    ______ ____
ROOT
ATOM      1  C   UNL     1      -5.443   0.799   3.637  0.00  0.00    +0.018 C 
ATOM      2  C   UNL     1      -5.635   0.213   5.038  0.00  0.00    -0.013 C 
ATOM      3  C   UNL     1      -7.109  -0.146   5.238  0.00  0.00    -0.078 C 
ATOM      4  C   UNL     1      -7.390  -0.561   2.867  0.00  0.00    -0.078 C 
ATOM      5  C   UNL     1      -5.924  -0.215   2.596  0.00  0.00    -0.013 C 
ATOM      6  N   UNL     1      -7.503  -1.144   4.221  0.00  0.00    +0.383 N 
ATOM      7  H   UNL     1      -6.876  -1.954   4.288  0.00  0.00    -0.081 HD
ENDROOT
BRANCH   1   8
ATOM      8  C   UNL     1      -3.961   1.102   3.409  0.00  0.00    +0.115 C 
ATOM      9  C   UNL     1      -3.739   1.665   2.019  0.00  0.00    +0.247 C 
ATOM     10  O   UNL     1      -4.199   2.690   1.562  0.00  0.00    -0.273 OA
ATOM     11  N   UNL     1      -2.925   0.790   1.396  0.00  0.00    -0.220 N 
ATOM     12  C   UNL     1      -2.609  -0.239   2.190  0.00  0.00    +0.310 C 
ATOM     13  O   UNL     1      -1.890  -1.159   1.849  0.00  0.00    -0.252 OA
ATOM     14  N   UNL     1      -3.171  -0.142   3.408  0.00  0.00    -0.285 N 
ATOM     15  H   UNL     1      -3.078  -0.769   4.141  0.00  0.00    +0.151 HD
BRANCH   8  17
ATOM     16  C   UNL     1      -1.947   2.317   4.252  0.00  0.00    +0.006 C 
ATOM     17  C   UNL     1      -3.441   2.072   4.471  0.00  0.00    +0.032 C 
ENDBRANCH   8  17
BRANCH  11  18
ATOM     18  C   UNL     1      -2.451   0.944   0.019  0.00  0.00    +0.148 C 
BRANCH  18  19
ATOM     19  C   UNL     1      -1.156   1.715   0.017  0.00  0.00    -0.062 C 
ATOM     20  C   UNL     1      -0.013   1.076   0.008  0.00  0.00    +0.009 C 
ATOM     21  C   UNL     1      -1.176   3.222   0.025  0.00  0.00    +0.040 C 
ENDBRANCH  18  19
ENDBRANCH  11  18
ENDBRANCH   1   8
BRANCH   6  22
ATOM     22  C   UNL     1      -8.891  -1.590   4.463  0.00  0.00    -0.024 C 
BRANCH  22  23
ATOM     23  C   UNL     1      -9.053  -1.927   5.923  0.00  0.00    +0.007 A 
ATOM     24  C   UNL     1      -9.539  -1.104   6.875  0.00  0.00    +0.021 A 
ATOM     25  C   UNL     1      -9.523  -1.811   8.094  0.00  0.00    +0.020 A 
ATOM     26  C   UNL     1      -9.020  -3.037   7.844  0.00  0.00    +0.091 A 
ATOM     27  N   UNL     1      -8.729  -3.115   6.512  0.00  0.00    -0.320 N 
BRANCH  27  28
ATOM     28  C   UNL     1      -8.186  -4.231   5.858  0.00  0.00    +0.064 A 
ATOM     29  C   UNL     1      -7.054  -4.864   6.363  0.00  0.00    +0.029 A 
ATOM     30  C   UNL     1      -6.555  -5.962   5.681  0.00  0.00    +0.022 A 
ATOM     31  C   UNL     1      -7.193  -6.390   4.532  0.00  0.00    +0.111 A 
ATOM     32  N   UNL     1      -8.264  -5.768   4.080  0.00  0.00    -0.261 NA
ATOM     33  C   UNL     1      -8.774  -4.723   4.700  0.00  0.00    +0.136 A 
ENDBRANCH  27  28
ENDBRANCH  22  23
ENDBRANCH   6  22
TORSDOF 7
