REMARK  Name = ZINC22836269
REMARK  10 active torsions:
REMARK  status: ('A' for Active; 'I' for Inactive)
REMARK    1  A    between atoms: C_4  and  C_7
REMARK    2  A    between atoms: C_7  and  C_8
REMARK    3  A    between atoms: C_7  and  N_14
REMARK    4  A    between atoms: N_17  and  C_20
REMARK    5  A    between atoms: C_20  and  C_21
REMARK    6  A    between atoms: C_21  and  C_22
REMARK    7  A    between atoms: N_24  and  N_25
REMARK    8  A    between atoms: C_26  and  C_27
REMARK    9  A    between atoms: C_32  and  O_33
REMARK   10  A    between atoms: O_33  and  C_34
REMARK                            x       y       z     vdW  Elec       q    Type
REMARK                         _______ _______ _______ _____ _____    ______ ____
ROOT
ATOM      1  N   UNL     1     -12.290   0.275  -0.748  0.00  0.00    -0.295 NA
ATOM      2  C   UNL     1     -12.201   1.071   0.484  0.00  0.00    +0.067 C 
ATOM      3  C   UNL     1     -10.836   1.761   0.546  0.00  0.00    -0.063 C 
ATOM      4  N   UNL     1      -9.774   0.746   0.500  0.00  0.00    +0.382 N 
ATOM      5  C   UNL     1      -9.863  -0.050  -0.732  0.00  0.00    -0.063 C 
ATOM      6  C   UNL     1     -11.228  -0.740  -0.793  0.00  0.00    +0.067 C 
ATOM      7  H   UNL     1      -9.916   0.067   1.354  0.00  0.00    -0.082 HD
ENDROOT
BRANCH   1   8
ATOM      8  C   UNL     1     -13.615  -0.344  -0.881  0.00  0.00    +0.117 C 
BRANCH   8  12
ATOM      9  C   UNL     1     -16.617   2.694  -0.811  0.00  0.00    +0.000 A 
ATOM     10  C   UNL     1     -16.792   1.533  -0.081  0.00  0.00    +0.000 A 
ATOM     11  C   UNL     1     -15.820   0.550  -0.104  0.00  0.00    +0.005 A 
ATOM     12  C   UNL     1     -14.675   0.728  -0.856  0.00  0.00    -0.026 A 
ATOM     13  C   UNL     1     -14.498   1.891  -1.582  0.00  0.00    +0.005 A 
ATOM     14  C   UNL     1     -15.471   2.872  -1.563  0.00  0.00    +0.000 A 
ENDBRANCH   8  12
BRANCH   8  15
ATOM     15  C   UNL     1     -13.691  -1.095  -2.185  0.00  0.00    -0.026 A 
ATOM     16  C   UNL     1     -13.206  -0.518  -3.344  0.00  0.00    +0.005 A 
ATOM     17  C   UNL     1     -13.271  -1.209  -4.539  0.00  0.00    +0.000 A 
ATOM     18  C   UNL     1     -13.829  -2.473  -4.578  0.00  0.00    +0.000 A 
ATOM     19  C   UNL     1     -14.319  -3.048  -3.420  0.00  0.00    +0.000 A 
ATOM     20  C   UNL     1     -14.249  -2.359  -2.223  0.00  0.00    +0.005 A 
ENDBRANCH   8  15
ENDBRANCH   1   8
BRANCH   4  21
ATOM     21  C   UNL     1      -8.449   1.365   0.633  0.00  0.00    -0.069 C 
BRANCH  21  22
ATOM     22  C   UNL     1      -7.394   0.274   0.832  0.00  0.00    +0.079 C 
BRANCH  22  23
ATOM     23  C   UNL     1      -6.034   0.908   0.968  0.00  0.00    +0.230 C 
ATOM     24  O   UNL     1      -5.920   2.115   0.912  0.00  0.00    -0.274 OA
ATOM     25  N   UNL     1      -4.946   0.136   1.153  0.00  0.00    -0.207 N 
ATOM     26  H   UNL     1      -5.050  -0.958   1.204  0.00  0.00    +0.177 HD
BRANCH  25  27
ATOM     27  N   UNL     1      -3.681   0.726   1.279  0.00  0.00    -0.188 NA
ATOM     28  C   UNL     1      -2.633  -0.018   1.457  0.00  0.00    +0.142 C 
BRANCH  28  29
ATOM     29  C   UNL     1      -1.303   0.602   1.590  0.00  0.00    +0.036 A 
ATOM     30  C   UNL     1      -0.172  -0.195   1.781  0.00  0.00    +0.013 A 
ATOM     31  C   UNL     1       1.071   0.392   1.900  0.00  0.00    +0.001 A 
ATOM     32  C   UNL     1       1.201   1.769   1.835  0.00  0.00    +0.004 A 
ATOM     33  C   UNL     1       0.089   2.569   1.652  0.00  0.00    +0.046 A 
ATOM     34  C   UNL     1      -1.166   1.996   1.531  0.00  0.00    +0.135 A 
BRANCH  34  35
ATOM     35  O   UNL     1      -2.260   2.781   1.351  0.00  0.00    -0.434 OA
BRANCH  35  36
ATOM     36  C   UNL     1      -2.043   4.192   1.296  0.00  0.00    +0.541 C 
ATOM     37  F   UNL     1      -1.464   4.623   2.494  0.00  0.00    -0.166 F 
ATOM     38  F   UNL     1      -1.186   4.491   0.231  0.00  0.00    -0.166 F 
ENDBRANCH  35  36
ENDBRANCH  34  35
ENDBRANCH  28  29
ENDBRANCH  25  27
ENDBRANCH  22  23
ENDBRANCH  21  22
ENDBRANCH   4  21
TORSDOF 10
