REMARK  Name = ZINC63517521
REMARK  11 active torsions:
REMARK  status: ('A' for Active; 'I' for Inactive)
REMARK    1  A    between atoms: C_1  and  C_2
REMARK    2  A    between atoms: C_2  and  C_3
REMARK    3  A    between atoms: C_2  and  N_13
REMARK    4  A    between atoms: C_6  and  S_9
REMARK    5  A    between atoms: S_9  and  N_12
REMARK    6  A    between atoms: N_13  and  C_14
REMARK    7  A    between atoms: N_13  and  C_15
REMARK    8  A    between atoms: C_15  and  C_16
REMARK    9  A    between atoms: C_16  and  C_17
REMARK   10  A    between atoms: C_17  and  N_18
REMARK   11  A    between atoms: C_26  and  N_27
REMARK                            x       y       z     vdW  Elec       q    Type
REMARK                         _______ _______ _______ _____ _____    ______ ____
ROOT
ATOM      1  N   UNL     1      -1.376  -0.512   0.012  0.00  0.00    +0.382 N 
ATOM      2  C   UNL     1      -1.356  -1.981   0.004  0.00  0.00    -0.095 C 
ATOM      3  H   UNL     1      -1.864  -0.178  -0.805  0.00  0.00    -0.081 HD
ENDROOT
BRANCH   1   5
ATOM      4  C   UNL     1      -0.019   1.526   0.010  0.00  0.00    -0.008 C 
ATOM      5  C   UNL     1       0.002  -0.004   0.002  0.00  0.00    -0.041 C 
BRANCH   5   6
ATOM      6  C   UNL     1       0.707  -0.490  -1.238  0.00  0.00    -0.061 A 
ATOM      7  C   UNL     1       0.038  -0.522  -2.447  0.00  0.00    +0.004 A 
ATOM      8  C   UNL     1       0.685  -0.967  -3.584  0.00  0.00    +0.029 A 
ATOM      9  C   UNL     1       2.002  -1.381  -3.513  0.00  0.00    +0.105 A 
ATOM     10  C   UNL     1       2.672  -1.349  -2.304  0.00  0.00    +0.029 A 
ATOM     11  C   UNL     1       2.026  -0.899  -1.167  0.00  0.00    +0.004 A 
BRANCH   9  12
ATOM     12  S   UNL     1       2.826  -1.951  -4.962  0.00  0.00    +0.056 S 
ATOM     13  O   UNL     1       3.882  -2.794  -4.524  0.00  0.00    -0.153 OA
ATOM     14  O   UNL     1       1.815  -2.397  -5.855  0.00  0.00    -0.153 OA
BRANCH  12  15
ATOM     15  N   UNL     1       3.535  -0.633  -5.671  0.00  0.00    -0.204 NA
ATOM     16  H   UNL     1       4.352  -0.739  -6.184  0.00  0.00    +0.144 HD
ATOM     17  H   UNL     1       3.135   0.245  -5.574  0.00  0.00    +0.144 HD
ENDBRANCH  12  15
ENDBRANCH   9  12
ENDBRANCH   5   6
ENDBRANCH   1   5
BRANCH   1  18
ATOM     18  C   UNL     1      -2.064  -0.039   1.221  0.00  0.00    -0.077 C 
BRANCH  18  19
ATOM     19  C   UNL     1      -3.533  -0.463   1.171  0.00  0.00    +0.003 C 
BRANCH  19  20
ATOM     20  C   UNL     1      -4.249   0.030   2.430  0.00  0.00    +0.123 C 
BRANCH  20  21
ATOM     21  N   UNL     1      -5.656  -0.376   2.383  0.00  0.00    -0.315 N 
ATOM     22  C   UNL     1      -6.697   0.375   1.926  0.00  0.00    +0.201 A 
ATOM     23  N   UNL     1      -7.808  -0.296   2.028  0.00  0.00    -0.231 NA
ATOM     24  C   UNL     1      -7.550  -1.516   2.556  0.00  0.00    +0.147 A 
ATOM     25  C   UNL     1      -6.165  -1.585   2.785  0.00  0.00    +0.165 A 
ATOM     26  N   UNL     1      -5.650  -2.696   3.301  0.00  0.00    -0.216 NA
ATOM     27  C   UNL     1      -6.422  -3.722   3.592  0.00  0.00    +0.225 A 
ATOM     28  N   UNL     1      -7.727  -3.705   3.391  0.00  0.00    -0.219 NA
ATOM     29  C   UNL     1      -8.333  -2.635   2.888  0.00  0.00    +0.147 A 
BRANCH  29  30
ATOM     30  N   UNL     1      -9.702  -2.628   2.680  0.00  0.00    -0.341 N 
ATOM     31  H   UNL     1     -10.131  -1.845   2.302  0.00  0.00    +0.144 HD
ATOM     32  H   UNL     1     -10.232  -3.406   2.914  0.00  0.00    +0.144 HD
ENDBRANCH  29  30
ENDBRANCH  20  21
ENDBRANCH  19  20
ENDBRANCH  18  19
ENDBRANCH   1  18
TORSDOF 9
