REMARK  Name = ZINC22125022
REMARK  3 active torsions:
REMARK  status: ('A' for Active; 'I' for Inactive)
REMARK    1  A    between atoms: N_11  and  N_12
REMARK    2  A    between atoms: N_12  and  C_13
REMARK    3  A    between atoms: C_13  and  N_15
REMARK                            x       y       z     vdW  Elec       q    Type
REMARK                         _______ _______ _______ _____ _____    ______ ____
ROOT
ATOM      1  C   UNL     1      -2.874   7.875   0.060  0.00  0.00    +0.017 A 
ATOM      2  C   UNL     1      -3.182   6.539   0.054  0.00  0.00    +0.030 A 
ATOM      3  C   UNL     1      -2.160   5.562   0.043  0.00  0.00    +0.080 A 
ATOM      4  C   UNL     1      -0.832   6.048   0.040  0.00  0.00    +0.042 A 
ATOM      5  C   UNL     1      -0.533   7.386   0.047  0.00  0.00    +0.032 A 
ATOM      6  C   UNL     1      -1.559   8.316   0.057  0.00  0.00    +0.019 A 
ATOM      7 BR   UNL     1      -1.171  10.166   0.067  0.00  0.00    -0.050 Br
ATOM      8  S   UNL     1       0.119   4.547   0.034  0.00  0.00    -0.051 S 
ATOM      9  C   UNL     1      -1.258   3.408   0.026  0.00  0.00    +0.176 A 
ATOM     10  N   UNL     1      -2.292   4.217   0.036  0.00  0.00    -0.224 NA
ATOM     11  N   UNL     1      -1.239   2.027   0.019  0.00  0.00    -0.243 N 
ATOM     12  H   UNL     1      -2.184   1.465   0.020  0.00  0.00    +0.172 HD
ENDROOT
BRANCH  11  13
ATOM     13  N   UNL     1      -0.016   1.344   0.009  0.00  0.00    -0.247 N 
ATOM     14  H   UNL     1       0.929   1.907   0.008  0.00  0.00    +0.172 HD
BRANCH  13  15
ATOM     15  C   UNL     1       0.002  -0.004   0.002  0.00  0.00    +0.144 C 
ATOM     16  S   UNL     1       1.496  -0.840  -0.017  0.00  0.00    -0.018 S 
BRANCH  15  17
ATOM     17  N   UNL     1      -1.156  -0.694   0.009  0.00  0.00    -0.340 N 
ATOM     18  H   UNL     1      -1.141  -1.794   0.003  0.00  0.00    +0.144 HD
ATOM     19  H   UNL     1      -2.116  -0.157   0.021  0.00  0.00    +0.144 HD
ENDBRANCH  15  17
ENDBRANCH  13  15
ENDBRANCH  11  13
TORSDOF 3
