REMARK  Name = ZINC22018019
REMARK  8 active torsions:
REMARK  status: ('A' for Active; 'I' for Inactive)
REMARK    1  A    between atoms: C_4  and  C_7
REMARK    2  A    between atoms: C_7  and  C_13
REMARK    3  A    between atoms: N_8  and  N_9
REMARK    4  A    between atoms: N_9  and  C_10
REMARK    5  A    between atoms: C_10  and  N_12
REMARK    6  A    between atoms: C_13  and  C_14
REMARK    7  A    between atoms: C_14  and  C_16
REMARK    8  A    between atoms: C_14  and  C_27
REMARK                            x       y       z     vdW  Elec       q    Type
REMARK                         _______ _______ _______ _____ _____    ______ ____
ROOT
ATOM      1  C   UNL     1      -0.070   5.319   0.044  0.00  0.00    +0.067 C 
ATOM      2  N   UNL     1       1.041   5.983   0.123  0.00  0.00    -0.185 NA
ENDROOT
BRANCH   1   6
ATOM      3  C   UNL     1      -0.025   1.078   0.206  0.00  0.00    +0.000 A 
ATOM      4  C   UNL     1      -0.888   1.724  -0.662  0.00  0.00    +0.001 A 
ATOM      5  C   UNL     1      -0.912   3.103  -0.715  0.00  0.00    +0.010 A 
ATOM      6  C   UNL     1      -0.054   3.845   0.100  0.00  0.00    -0.002 A 
ATOM      7  C   UNL     1       0.818   3.185   0.969  0.00  0.00    +0.010 A 
ATOM      8  C   UNL     1       0.827   1.807   1.016  0.00  0.00    +0.001 A 
ENDBRANCH   1   6
BRANCH   2   9
ATOM      9  N   UNL     1       2.266   5.303   0.108  0.00  0.00    -0.218 N 
ATOM     10  H   UNL     1       2.290   4.217  -0.064  0.00  0.00    +0.176 HD
BRANCH   9  11
ATOM     11  C   UNL     1       3.415   5.980   0.304  0.00  0.00    +0.147 C 
ATOM     12  S   UNL     1       4.912   5.149   0.285  0.00  0.00    -0.017 S 
BRANCH  11  13
ATOM     13  N   UNL     1       3.386   7.311   0.514  0.00  0.00    -0.339 N 
ATOM     14  H   UNL     1       4.323   7.864   0.674  0.00  0.00    +0.144 HD
ATOM     15  H   UNL     1       2.424   7.845   0.526  0.00  0.00    +0.144 HD
ENDBRANCH  11  13
ENDBRANCH   9  11
ENDBRANCH   2   9
BRANCH   1  16
ATOM     16  C   UNL     1      -1.378   6.053  -0.104  0.00  0.00    +0.073 C 
BRANCH  16  17
ATOM     17  C   UNL     1      -1.116   7.560  -0.135  0.00  0.00    +0.117 C 
BRANCH  17  18
ATOM     18  C   UNL     1      -2.407   8.289  -0.406  0.00  0.00    +0.053 C 
ATOM     19  C   UNL     1      -2.632   9.080  -1.427  0.00  0.00    +0.083 C 
ATOM     20  N   UNL     1      -3.901   9.623  -1.445  0.00  0.00    -0.288 NA
ATOM     21  C   UNL     1      -4.651   9.150  -0.273  0.00  0.00    +0.135 C 
ATOM     22  C   UNL     1      -3.645   8.228   0.459  0.00  0.00    +0.049 C 
ATOM     23  C   UNL     1      -3.221   8.633   1.853  0.00  0.00    -0.020 C 
ATOM     24  C   UNL     1      -3.703   9.741   2.395  0.00  0.00    -0.004 C 
ATOM     25  C   UNL     1      -4.647  10.622   1.710  0.00  0.00    -0.002 C 
ATOM     26  C   UNL     1      -5.103  10.389   0.490  0.00  0.00    -0.000 C 
ENDBRANCH  17  18
BRANCH  17  27
ATOM     27  C   UNL     1      -0.560   8.001   1.194  0.00  0.00    +0.360 C 
ATOM     28  O   UNL     1      -0.391   7.193   2.076  0.00  0.00    -0.246 OA
ATOM     29  O   UNL     1      -0.253   9.291   1.399  0.00  0.00    -0.246 OA
ENDBRANCH  17  27
ENDBRANCH  16  17
ENDBRANCH   1  16
TORSDOF 8
