REMARK  Name = ZINC19767181
REMARK  6 active torsions:
REMARK  status: ('A' for Active; 'I' for Inactive)
REMARK    1  A    between atoms: C_1  and  C_2
REMARK    2  A    between atoms: C_5  and  C_9
REMARK    3  A    between atoms: C_7  and  C_8
REMARK    4  A    between atoms: C_10  and  C_24
REMARK    5  A    between atoms: C_15  and  C_17
REMARK    6  A    between atoms: C_21  and  N_23
REMARK                            x       y       z     vdW  Elec       q    Type
REMARK                         _______ _______ _______ _____ _____    ______ ____
ROOT
ATOM      1  C   UNL     1      -1.351   8.693   0.060  0.00  0.00    +0.065 A 
ATOM      2  C   UNL     1      -0.577   9.796   0.059  0.00  0.00    +0.014 A 
ATOM      3  S   UNL     1       1.065   9.095   0.039  0.00  0.00    -0.054 S 
ATOM      4  C   UNL     1       0.596   7.380   0.034  0.00  0.00    +0.179 A 
ATOM      5  N   UNL     1      -0.773   7.435   0.047  0.00  0.00    -0.292 N 
ATOM      6  C   UNL     1      -1.188   6.109   0.039  0.00  0.00    +0.122 A 
ATOM      7  C   UNL     1      -0.078   5.332   0.030  0.00  0.00    +0.090 A 
ATOM      8  N   UNL     1       1.000   6.144   0.025  0.00  0.00    -0.221 NA
ATOM      9  C   UNL     1      -0.990  11.245   0.070  0.00  0.00    +0.054 C 
ENDROOT
BRANCH   1  14
ATOM     10  C   UNL     1      -7.082   9.216   0.112  0.00  0.00    +0.044 C 
ATOM     11  C   UNL     1      -5.581   9.079   0.099  0.00  0.00    -0.047 A 
ATOM     12  C   UNL     1      -4.979   8.177  -0.761  0.00  0.00    +0.004 A 
ATOM     13  C   UNL     1      -3.606   8.050  -0.782  0.00  0.00    +0.010 A 
ATOM     14  C   UNL     1      -2.823   8.827   0.073  0.00  0.00    -0.000 A 
ATOM     15  C   UNL     1      -3.436   9.736   0.938  0.00  0.00    +0.013 A 
ATOM     16  C   UNL     1      -4.811   9.856   0.945  0.00  0.00    -0.047 A 
ATOM     17  C   UNL     1      -5.474  10.836   1.878  0.00  0.00    +0.044 C 
ENDBRANCH   1  14
BRANCH   7  18
ATOM     18  C   UNL     1      -0.052   3.849   0.022  0.00  0.00    +0.004 A 
ATOM     19  C   UNL     1      -1.246   3.129   0.030  0.00  0.00    +0.010 A 
ATOM     20  C   UNL     1      -1.220   1.749   0.017  0.00  0.00    +0.002 A 
ATOM     21  C   UNL     1      -0.013   1.076   0.008  0.00  0.00    +0.023 A 
ATOM     22  C   UNL     1       1.183   1.785   0.000  0.00  0.00    +0.025 A 
ATOM     23  C   UNL     1       1.165   3.172   0.007  0.00  0.00    +0.032 A 
BRANCH  22  24
ATOM     24  N   UNL     1       2.401   1.102  -0.014  0.00  0.00    -0.358 N 
ATOM     25  H   UNL     1       3.346   1.663  -0.020  0.00  0.00    +0.142 HD
ATOM     26  H   UNL     1       2.414   0.002  -0.019  0.00  0.00    +0.142 HD
ENDBRANCH  22  24
ENDBRANCH   7  18
TORSDOF 3
