REMARK  Name = ZINC39533945
REMARK  8 active torsions:
REMARK  status: ('A' for Active; 'I' for Inactive)
REMARK    1  A    between atoms: C_4  and  C_7
REMARK    2  A    between atoms: C_7  and  C_8
REMARK    3  A    between atoms: N_11  and  C_15
REMARK    4  A    between atoms: C_15  and  C_17
REMARK    5  A    between atoms: C_15  and  C_20
REMARK    6  A    between atoms: C_17  and  N_18
REMARK    7  A    between atoms: C_23  and  C_26
REMARK    8  A    between atoms: C_31  and  O_32
REMARK                            x       y       z     vdW  Elec       q    Type
REMARK                         _______ _______ _______ _____ _____    ______ ____
ROOT
ATOM      1  C   UNL     1       7.356  -2.416   2.801  0.00  0.00    +0.102 C 
ENDROOT
BRANCH   1   4
ATOM      2  C   UNL     1       4.158  -0.721   1.758  0.00  0.00    -0.053 C 
ATOM      3  C   UNL     1       5.503  -1.431   1.591  0.00  0.00    +0.069 C 
ATOM      4  N   UNL     1       6.036  -1.781   2.916  0.00  0.00    -0.297 NA
ATOM      5  C   UNL     1       5.098  -2.646   3.644  0.00  0.00    +0.066 C 
ATOM      6  C   UNL     1       3.756  -1.926   3.794  0.00  0.00    -0.067 C 
ATOM      7  N   UNL     1       3.221  -1.606   2.464  0.00  0.00    +0.383 N 
ATOM      8  H   UNL     1       2.331  -1.142   2.563  0.00  0.00    -0.085 HD
ATOM      9  H   UNL     1       3.100  -2.457   1.936  0.00  0.00    -0.085 HD
BRANCH   2  10
ATOM     10  C   UNL     1       3.591  -0.374   0.380  0.00  0.00    +0.020 C 
BRANCH  10  14
ATOM     11  C   UNL     1       0.012   1.913   0.847  0.00  0.00    +0.000 A 
ATOM     12  C   UNL     1       1.235   2.552   0.762  0.00  0.00    +0.000 A 
ATOM     13  C   UNL     1       2.393   1.812   0.611  0.00  0.00    +0.003 A 
ATOM     14  C   UNL     1       2.328   0.433   0.546  0.00  0.00    -0.049 A 
ATOM     15  C   UNL     1       1.106  -0.207   0.631  0.00  0.00    +0.003 A 
ATOM     16  C   UNL     1      -0.052   0.533   0.780  0.00  0.00    +0.000 A 
ENDBRANCH  10  14
ENDBRANCH   2  10
ENDBRANCH   1   4
BRANCH   1  17
ATOM     17  C   UNL     1       7.906  -2.684   4.178  0.00  0.00    -0.029 A 
ATOM     18  C   UNL     1       7.729  -1.752   5.184  0.00  0.00    +0.006 A 
ATOM     19  C   UNL     1       8.231  -1.992   6.447  0.00  0.00    +0.009 A 
ATOM     20  C   UNL     1       8.917  -3.178   6.708  0.00  0.00    -0.014 A 
ATOM     21  C   UNL     1       9.091  -4.114   5.690  0.00  0.00    +0.009 A 
ATOM     22  C   UNL     1       8.581  -3.865   4.432  0.00  0.00    +0.006 A 
BRANCH  20  23
ATOM     23  C   UNL     1       9.459  -3.442   8.063  0.00  0.00    +0.024 A 
ATOM     24  C   UNL     1      10.227  -2.476   8.710  0.00  0.00    +0.012 A 
ATOM     25  C   UNL     1      10.729  -2.727   9.970  0.00  0.00    +0.001 A 
ATOM     26  C   UNL     1      10.472  -3.934  10.596  0.00  0.00    +0.004 A 
ATOM     27  C   UNL     1       9.712  -4.899   9.963  0.00  0.00    +0.046 A 
ATOM     28  C   UNL     1       9.196  -4.658   8.699  0.00  0.00    +0.125 A 
BRANCH  28  29
ATOM     29  O   UNL     1       8.443  -5.604   8.079  0.00  0.00    -0.506 OA
ATOM     30  H   UNL     1       8.955  -6.223   7.540  0.00  0.00    +0.292 HD
ENDBRANCH  28  29
ENDBRANCH  20  23
ENDBRANCH   1  17
BRANCH   1  31
ATOM     31  C   UNL     1       8.306  -1.484   2.045  0.00  0.00    +0.122 C 
BRANCH  31  32
ATOM     32  N   UNL     1       9.604  -2.147   1.866  0.00  0.00    -0.231 NA
ATOM     33 CL   UNL     1      10.742  -1.087   1.157  0.00  0.00    -0.024 Cl
ATOM     34  H   UNL     1       9.507  -2.991   1.321  0.00  0.00    +0.141 HD
ENDBRANCH  31  32
ENDBRANCH   1  31
TORSDOF 8
