REMARK  Name = ZINC17315907
REMARK  11 active torsions:
REMARK  status: ('A' for Active; 'I' for Inactive)
REMARK    1  A    between atoms: C_1  and  C_2
REMARK    2  A    between atoms: C_2  and  O_3
REMARK    3  A    between atoms: O_3  and  C_4
REMARK    4  A    between atoms: C_9  and  C_10
REMARK    5  A    between atoms: C_12  and  C_24
REMARK    6  A    between atoms: C_13  and  C_23
REMARK    7  A    between atoms: C_18  and  S_20
REMARK    8  A    between atoms: S_20  and  C_21
REMARK    9  A    between atoms: C_21  and  C_22
REMARK   10  A    between atoms: N_26  and  C_27
REMARK   11  A    between atoms: C_32  and  C_33
REMARK                            x       y       z     vdW  Elec       q    Type
REMARK                         _______ _______ _______ _____ _____    ______ ____
ROOT
ATOM      1  C   UNL     1      -0.035   4.599  -0.054  0.00  0.00    +0.181 C 
ATOM      2  C   UNL     1      -0.387   5.307   1.227  0.00  0.00    +0.060 C 
ATOM      3  C   UNL     1      -1.445   6.122   1.346  0.00  0.00    +0.018 C 
ATOM      4  N   UNL     1      -2.289   6.383   0.294  0.00  0.00    -0.287 N 
ATOM      5  C   UNL     1      -1.874   5.991  -0.971  0.00  0.00    +0.219 A 
ATOM      6  N   UNL     1      -0.818   5.160  -1.151  0.00  0.00    -0.220 N 
ATOM      7  N   UNL     1      -0.677   4.986  -2.527  0.00  0.00    -0.141 NA
ATOM      8  C   UNL     1      -1.628   5.693  -3.098  0.00  0.00    +0.210 A 
ATOM      9  N   UNL     1      -2.352   6.300  -2.146  0.00  0.00    -0.187 NA
ATOM     10  C   UNL     1      -1.718   6.772   2.678  0.00  0.00    +0.061 C 
ATOM     11  H   UNL     1      -3.142   6.825   0.430  0.00  0.00    +0.155 HD
ENDROOT
BRANCH   1  17
ATOM     12  C   UNL     1       0.686   2.199   0.049  0.00  0.00    +0.126 A 
ATOM     13  C   UNL     1       0.400   0.848   0.174  0.00  0.00    +0.046 A 
ATOM     14  C   UNL     1      -0.907   0.432   0.334  0.00  0.00    +0.004 A 
ATOM     15  C   UNL     1      -1.931   1.361   0.362  0.00  0.00    +0.001 A 
ATOM     16  C   UNL     1      -1.648   2.709   0.243  0.00  0.00    +0.009 A 
ATOM     17  C   UNL     1      -0.342   3.130   0.083  0.00  0.00    +0.023 A 
BRANCH  12  18
ATOM     18  O   UNL     1       1.972   2.611  -0.108  0.00  0.00    -0.492 OA
BRANCH  18  20
ATOM     19  C   UNL     1       4.365   2.275  -0.099  0.00  0.00    +0.048 C 
ATOM     20  C   UNL     1       2.989   1.611  -0.020  0.00  0.00    +0.225 C 
ENDBRANCH  18  20
ENDBRANCH  12  18
ENDBRANCH   1  17
BRANCH   2  21
ATOM     21  C   UNL     1       0.436   5.102   2.359  0.00  0.00    +0.248 C 
ATOM     22  O   UNL     1       1.471   5.732   2.481  0.00  0.00    -0.270 OA
ATOM     23  N   UNL     1       0.075   4.210   3.303  0.00  0.00    -0.281 N 
ATOM     24  H   UNL     1      -0.709   3.655   3.171  0.00  0.00    +0.155 HD
BRANCH  23  25
ATOM     25  C   UNL     1       0.831   4.085   4.473  0.00  0.00    +0.037 A 
ATOM     26  C   UNL     1       1.677   5.113   4.868  0.00  0.00    +0.023 A 
ATOM     27  C   UNL     1       2.422   4.986   6.024  0.00  0.00    +0.002 A 
ATOM     28  C   UNL     1       2.326   3.838   6.788  0.00  0.00    +0.000 A 
ATOM     29  C   UNL     1       1.485   2.812   6.397  0.00  0.00    +0.005 A 
ATOM     30  C   UNL     1       0.734   2.935   5.245  0.00  0.00    -0.029 A 
ATOM     31  C   UNL     1      -0.188   1.819   4.823  0.00  0.00    +0.045 C 
ENDBRANCH  23  25
ENDBRANCH   2  21
BRANCH   8  32
ATOM     32  S   UNL     1      -1.907   5.822  -4.833  0.00  0.00    -0.085 S 
BRANCH  32  33
ATOM     33  C   UNL     1      -3.341   6.925  -4.966  0.00  0.00    +0.074 C 
ATOM     34  C   UNL     1      -3.695   7.125  -6.441  0.00  0.00    +0.016 C 
ENDBRANCH  32  33
ENDBRANCH   8  32
TORSDOF 7
