REMARK  Name = ZINC44876320
REMARK  8 active torsions:
REMARK  status: ('A' for Active; 'I' for Inactive)
REMARK    1  A    between atoms: C_1  and  C_2
REMARK    2  A    between atoms: C_2  and  C_3
REMARK    3  A    between atoms: C_3  and  C_5
REMARK    4  A    between atoms: C_3  and  C_9
REMARK    5  A    between atoms: N_6  and  O_7
REMARK    6  A    between atoms: N_11  and  C_12
REMARK    7  A    between atoms: C_12  and  C_14
REMARK    8  A    between atoms: C_12  and  C_15
REMARK                            x       y       z     vdW  Elec       q    Type
REMARK                         _______ _______ _______ _____ _____    ______ ____
ROOT
ATOM      1  C   UNL     1       2.208  -0.296  -1.092  0.00  0.00    +0.224 C 
ATOM      2  O   UNL     1       3.021  -1.196  -1.129  0.00  0.00    -0.275 OA
ATOM      3  N   UNL     1       2.620   0.980  -0.963  0.00  0.00    -0.308 N 
ATOM      4  H   UNL     1       1.977   1.704  -1.010  0.00  0.00    +0.149 HD
ENDROOT
BRANCH   3   5
ATOM      5  C   UNL     1       4.040   1.274  -0.751  0.00  0.00    +0.100 C 
ATOM      6  C   UNL     1       4.364   1.172   0.741  0.00  0.00    +0.033 C 
BRANCH   5   7
ATOM      7  C   UNL     1       4.342   2.668  -1.236  0.00  0.00    -0.027 A 
ATOM      8  C   UNL     1       3.444   3.692  -1.000  0.00  0.00    +0.006 A 
ATOM      9  C   UNL     1       3.721   4.971  -1.445  0.00  0.00    +0.015 A 
ATOM     10  C   UNL     1       4.897   5.226  -2.127  0.00  0.00    +0.018 A 
ATOM     11  C   UNL     1       5.796   4.201  -2.363  0.00  0.00    +0.015 A 
ATOM     12  C   UNL     1       5.520   2.924  -1.913  0.00  0.00    +0.006 A 
ATOM     13 BR   UNL     1       5.277   6.976  -2.736  0.00  0.00    -0.050 Br
ENDBRANCH   5   7
ENDBRANCH   3   5
BRANCH   1  14
ATOM     14  C   UNL     1       0.737  -0.607  -1.192  0.00  0.00    +0.141 C 
BRANCH  14  15
ATOM     15  C   UNL     1       0.533  -1.782  -2.114  0.00  0.00    +0.144 C 
ATOM     16  N   UNL     1       0.437  -2.975  -1.627  0.00  0.00    -0.076 NA
ATOM     17  N   UNL     1       0.449  -1.584  -3.474  0.00  0.00    -0.343 N 
ATOM     18  H   UNL     1       0.520  -0.688  -3.839  0.00  0.00    +0.144 HD
ATOM     19  H   UNL     1       0.317  -2.340  -4.067  0.00  0.00    +0.144 HD
BRANCH  16  20
ATOM     20  O   UNL     1       0.245  -4.079  -2.493  0.00  0.00    -0.408 OA
ATOM     21  H   UNL     1       0.185  -4.930  -2.038  0.00  0.00    +0.328 HD
ENDBRANCH  16  20
ENDBRANCH  14  15
BRANCH  14  23
ATOM     22  C   UNL     1      -1.326  -1.125   0.119  0.00  0.00    +0.005 C 
ATOM     23  C   UNL     1       0.192  -0.947   0.197  0.00  0.00    +0.017 C 
ENDBRANCH  14  23
ENDBRANCH   1  14
TORSDOF 6
