REMARK  Name = ZINC13073726
REMARK  12 active torsions:
REMARK  status: ('A' for Active; 'I' for Inactive)
REMARK    1  A    between atoms: C_1  and  N_52
REMARK    2  A    between atoms: C_2  and  C_3
REMARK    3  A    between atoms: C_2  and  N_52
REMARK    4  A    between atoms: C_6  and  O_13
REMARK    5  A    between atoms: C_7  and  O_11
REMARK    6  A    between atoms: C_8  and  O_9
REMARK    7  A    between atoms: O_9  and  C_10
REMARK    8  A    between atoms: O_11  and  C_12
REMARK    9  A    between atoms: O_13  and  C_14
REMARK   10  A    between atoms: C_15  and  N_16
REMARK   11  A    between atoms: C_15  and  N_52
REMARK   12  A    between atoms: C_21  and  C_23
REMARK                            x       y       z     vdW  Elec       q    Type
REMARK                         _______ _______ _______ _____ _____    ______ ____
ROOT
ATOM      1  C   UNL     1      -0.018   1.461   0.010  0.00  0.00    +0.072 C 
ENDROOT
BRANCH   1   2
ATOM      2  N   UNL     1       0.002  -0.004   0.002  0.00  0.00    -0.257 N 
ATOM      3  C   UNL     1      -0.003  -0.796  -1.090  0.00  0.00    +0.174 A 
ATOM      4  S   UNL     1      -0.033  -0.270  -2.719  0.00  0.00    -0.012 S 
ATOM      5  N   UNL     1       0.023  -2.075  -0.667  0.00  0.00    -0.317 N 
ATOM      6  H   UNL     1       0.028  -2.861  -1.235  0.00  0.00    +0.169 HD
ATOM      7  C   UNL     1       0.036  -2.075   0.714  0.00  0.00    +0.162 A 
ATOM      8  N   UNL     1       0.024  -0.839   1.128  0.00  0.00    -0.153 NA
BRANCH   7   9
ATOM      9  C   UNL     1       0.059  -3.275   1.578  0.00  0.00    +0.037 A 
ATOM     10  C   UNL     1       0.065  -4.549   1.008  0.00  0.00    +0.014 A 
ATOM     11  C   UNL     1       0.092  -5.665   1.818  0.00  0.00    +0.021 A 
ATOM     12  C   UNL     1       0.103  -5.524   3.196  0.00  0.00    +0.042 A 
ATOM     13  C   UNL     1       0.092  -4.263   3.768  0.00  0.00    +0.040 A 
ATOM     14  C   UNL     1       0.070  -3.139   2.967  0.00  0.00    +0.053 A 
ATOM     15 CL   UNL     1       0.056  -1.558   3.686  0.00  0.00    -0.083 Cl
ATOM     16 CL   UNL     1       0.130  -6.933   4.209  0.00  0.00    -0.083 Cl
ENDBRANCH   7   9
ENDBRANCH   1   2
BRANCH   1  18
ATOM     17  C   UNL     1       2.059   1.622   1.244  0.00  0.00    -0.093 C 
ATOM     18  N   UNL     1       1.374   1.957  -0.022  0.00  0.00    +0.394 N 
ATOM     19  H   UNL     1       1.871   1.505  -0.799  0.00  0.00    -0.079 HD
BRANCH  18  20
ATOM     20  C   UNL     1       1.385   3.420  -0.231  0.00  0.00    -0.037 C 
BRANCH  20  21
ATOM     21  C   UNL     1       2.803   3.865  -0.479  0.00  0.00    -0.018 A 
ATOM     22  C   UNL     1       3.532   4.447   0.541  0.00  0.00    +0.009 A 
ATOM     23  C   UNL     1       4.833   4.856   0.318  0.00  0.00    +0.050 A 
ATOM     24  C   UNL     1       5.412   4.686  -0.931  0.00  0.00    +0.165 A 
ATOM     25  C   UNL     1       4.682   4.102  -1.959  0.00  0.00    +0.204 A 
ATOM     26  C   UNL     1       3.376   3.686  -1.729  0.00  0.00    +0.167 A 
BRANCH  26  27
ATOM     27  O   UNL     1       2.659   3.109  -2.731  0.00  0.00    -0.491 OA
ATOM     28  C   UNL     1       1.894   3.981  -3.566  0.00  0.00    +0.277 C 
ENDBRANCH  26  27
BRANCH  25  29
ATOM     29  O   UNL     1       5.246   3.933  -3.186  0.00  0.00    -0.488 OA
ATOM     30  C   UNL     1       5.937   2.703  -3.418  0.00  0.00    +0.277 C 
ENDBRANCH  25  29
BRANCH  24  31
ATOM     31  O   UNL     1       6.692   5.089  -1.149  0.00  0.00    -0.491 OA
ATOM     32  C   UNL     1       7.383   5.682  -0.046  0.00  0.00    +0.277 C 
ENDBRANCH  24  31
ENDBRANCH  20  21
ENDBRANCH  18  20
ENDBRANCH   1  18
TORSDOF 8
