REMARK  Name = ZINC38872532
REMARK  9 active torsions:
REMARK  status: ('A' for Active; 'I' for Inactive)
REMARK    1  A    between atoms: C_1  and  C_2
REMARK    2  A    between atoms: C_5  and  C_8
REMARK    3  A    between atoms: C_8  and  C_9
REMARK    4  A    between atoms: C_9  and  C_10
REMARK    5  A    between atoms: C_10  and  N_11
REMARK    6  A    between atoms: C_12  and  C_14
REMARK    7  A    between atoms: N_17  and  C_20
REMARK    8  A    between atoms: C_20  and  C_21
REMARK    9  A    between atoms: C_23  and  C_26
REMARK                            x       y       z     vdW  Elec       q    Type
REMARK                         _______ _______ _______ _____ _____    ______ ____
ROOT
ATOM      1  C   UNL     1       4.606  -8.573  -0.070  0.00  0.00    +0.071 C 
ATOM      2  C   UNL     1       5.313  -8.055  -1.326  0.00  0.00    -0.006 C 
ATOM      3  C   UNL     1       6.736  -8.615  -1.371  0.00  0.00    -0.077 C 
ATOM      4  N   UNL     1       6.688 -10.081  -1.404  0.00  0.00    +0.386 N 
ATOM      5  C   UNL     1       6.076 -10.588  -0.169  0.00  0.00    -0.077 C 
ATOM      6  C   UNL     1       4.628 -10.104  -0.079  0.00  0.00    -0.006 C 
ATOM      7  H   UNL     1       6.141 -10.381  -2.197  0.00  0.00    -0.081 HD
ENDROOT
BRANCH   1   9
ATOM      8  N   UNL     1       2.916  -6.767  -0.051  0.00  0.00    -0.315 N 
ATOM      9  C   UNL     1       3.179  -8.089  -0.059  0.00  0.00    +0.216 C 
ATOM     10  O   UNL     1       2.267  -8.889  -0.059  0.00  0.00    -0.276 OA
ATOM     11  H   UNL     1       3.645  -6.127  -0.051  0.00  0.00    +0.149 HD
BRANCH   8  12
ATOM     12  C   UNL     1       1.528  -6.296  -0.041  0.00  0.00    +0.104 C 
BRANCH  12  13
ATOM     13  C   UNL     1       1.508  -4.767  -0.032  0.00  0.00    +0.023 C 
BRANCH  13  14
ATOM     14  C   UNL     1       0.059  -4.275  -0.021  0.00  0.00    +0.036 C 
BRANCH  14  19
ATOM     15  C   UNL     1      -0.018   1.503   0.010  0.00  0.00    +0.044 C 
ATOM     16  C   UNL     1       0.002  -0.004   0.002  0.00  0.00    -0.050 A 
ATOM     17  C   UNL     1       0.006  -0.689  -1.199  0.00  0.00    +0.003 A 
ATOM     18  C   UNL     1       0.025  -2.071  -1.206  0.00  0.00    +0.004 A 
ATOM     19  C   UNL     1       0.040  -2.768  -0.013  0.00  0.00    -0.047 A 
ATOM     20  C   UNL     1       0.037  -2.084   1.188  0.00  0.00    +0.004 A 
ATOM     21  C   UNL     1       0.023  -0.702   1.195  0.00  0.00    +0.003 A 
ENDBRANCH  14  19
ENDBRANCH  13  14
ENDBRANCH  12  13
ENDBRANCH   8  12
ENDBRANCH   1   9
BRANCH   4  22
ATOM     22  C   UNL     1       8.053 -10.612  -1.525  0.00  0.00    +0.022 C 
BRANCH  22  23
ATOM     23  C   UNL     1       7.997 -12.110  -1.683  0.00  0.00    +0.211 A 
ATOM     24  N   UNL     1       7.925 -12.754  -2.812  0.00  0.00    -0.193 NA
ATOM     25  C   UNL     1       7.893 -14.079  -2.585  0.00  0.00    +0.203 A 
ATOM     26  N   UNL     1       7.945 -14.284  -1.292  0.00  0.00    -0.056 NA
ATOM     27  O   UNL     1       8.020 -13.003  -0.685  0.00  0.00    -0.340 OA
BRANCH  25  28
ATOM     28  C   UNL     1       7.811 -15.134  -3.626  0.00  0.00    +0.041 A 
ATOM     29  C   UNL     1       7.766 -14.784  -4.974  0.00  0.00    +0.014 A 
ATOM     30  C   UNL     1       7.691 -15.768  -5.938  0.00  0.00    +0.021 A 
ATOM     31  C   UNL     1       7.659 -17.103  -5.568  0.00  0.00    +0.042 A 
ATOM     32  C   UNL     1       7.703 -17.456  -4.231  0.00  0.00    +0.040 A 
ATOM     33  C   UNL     1       7.785 -16.479  -3.258  0.00  0.00    +0.053 A 
ATOM     34 CL   UNL     1       7.847 -16.924  -1.581  0.00  0.00    -0.083 Cl
ATOM     35 CL   UNL     1       7.563 -18.336  -6.786  0.00  0.00    -0.083 Cl
ENDBRANCH  25  28
ENDBRANCH  22  23
ENDBRANCH   4  22
TORSDOF 8
