REMARK  Name = ZINC44750413
REMARK  6 active torsions:
REMARK  status: ('A' for Active; 'I' for Inactive)
REMARK    1  A    between atoms: C_1  and  C_2
REMARK    2  A    between atoms: C_2  and  N_3
REMARK    3  A    between atoms: C_4  and  C_16
REMARK    4  A    between atoms: C_7  and  C_8
REMARK    5  A    between atoms: C_11  and  N_15
REMARK    6  A    between atoms: C_13  and  C_14
REMARK                            x       y       z     vdW  Elec       q    Type
REMARK                         _______ _______ _______ _____ _____    ______ ____
ROOT
ATOM      1  C   UNL     1      -1.975  -0.544  -2.527  0.00  0.00    +0.022 A 
ATOM      2  C   UNL     1      -0.699  -0.172  -2.955  0.00  0.00    +0.013 A 
ATOM      3  C   UNL     1      -0.452   0.019  -4.297  0.00  0.00    +0.023 A 
ATOM      4  C   UNL     1      -1.473  -0.158  -5.225  0.00  0.00    +0.025 A 
ATOM      5  C   UNL     1      -2.745  -0.527  -4.801  0.00  0.00    +0.026 A 
ATOM      6  C   UNL     1      -2.996  -0.726  -3.461  0.00  0.00    -0.038 A 
ATOM      7  C   UNL     1      -4.372  -1.134  -3.003  0.00  0.00    +0.044 C 
ENDROOT
BRANCH   1  12
ATOM      8  N   UNL     1      -1.928   0.110  -0.069  0.00  0.00    -0.311 N 
ATOM      9  C   UNL     1      -2.366  -0.491   1.072  0.00  0.00    +0.131 A 
ATOM     10  N   UNL     1      -2.897  -1.635   0.732  0.00  0.00    -0.134 NA
ATOM     11  N   UNL     1      -2.824  -1.795  -0.541  0.00  0.00    -0.129 NA
ATOM     12  C   UNL     1      -2.242  -0.750  -1.087  0.00  0.00    +0.164 A 
ATOM     13  C   UNL     1      -2.258   0.062   2.469  0.00  0.00    +0.088 C 
BRANCH   8  15
ATOM     14  C   UNL     1      -2.305   2.489  -0.494  0.00  0.00    +0.027 C 
ATOM     15  C   UNL     1      -1.264   1.411  -0.184  0.00  0.00    +0.122 C 
ENDBRANCH   8  15
ENDBRANCH   1  12
BRANCH   4  16
ATOM     16  N   UNL     1      -1.221   0.037  -6.582  0.00  0.00    -0.358 N 
ATOM     17  H   UNL     1      -0.334   0.295  -6.879  0.00  0.00    +0.142 HD
ATOM     18  H   UNL     1      -1.932  -0.086  -7.231  0.00  0.00    +0.142 HD
ENDBRANCH   4  16
TORSDOF 3
