REMARK  Name = ZINC14547983
REMARK  5 active torsions:
REMARK  status: ('A' for Active; 'I' for Inactive)
REMARK    1  A    between atoms: C_1  and  N_2
REMARK    2  A    between atoms: N_5  and  S_8
REMARK    3  A    between atoms: S_8  and  C_11
REMARK    4  A    between atoms: C_24  and  C_27
REMARK    5  A    between atoms: C_36  and  O_37
REMARK                            x       y       z     vdW  Elec       q    Type
REMARK                         _______ _______ _______ _____ _____    ______ ____
ROOT
ATOM      1  C   UNL     1       3.926  -3.660   1.250  0.00  0.00    +0.106 A 
ATOM      2  C   UNL     1       4.060  -3.388  -0.100  0.00  0.00    +0.030 A 
ATOM      3  C   UNL     1       5.155  -2.686  -0.560  0.00  0.00    +0.025 A 
ATOM      4  C   UNL     1       6.130  -2.245   0.327  0.00  0.00    +0.031 A 
ATOM      5  C   UNL     1       5.982  -2.514   1.692  0.00  0.00    -0.018 A 
ATOM      6  C   UNL     1       4.886  -3.218   2.142  0.00  0.00    +0.034 A 
ATOM      7  C   UNL     1       7.021  -1.993   2.607  0.00  0.00    +0.049 C 
ATOM      8  C   UNL     1       7.324  -2.649   3.905  0.00  0.00    -0.023 C 
ATOM      9  C   UNL     1       8.610  -2.468   4.181  0.00  0.00    -0.030 C 
ATOM     10  C   UNL     1       9.284  -1.691   3.049  0.00  0.00    +0.033 C 
ATOM     11  C   UNL     1       8.389  -2.066   1.865  0.00  0.00    +0.029 C 
ATOM     12  C   UNL     1       8.296  -1.050   0.742  0.00  0.00    +0.109 C 
ATOM     13  N   UNL     1       7.243  -1.554  -0.166  0.00  0.00    -0.336 N 
ATOM     14  H   UNL     1       7.326  -1.404  -1.121  0.00  0.00    +0.147 HD
ENDROOT
BRANCH  12  15
ATOM     15  C   UNL     1       7.910   0.300   1.292  0.00  0.00    +0.022 A 
ATOM     16  C   UNL     1       8.887   1.139   1.852  0.00  0.00    -0.009 A 
ATOM     17  C   UNL     1      10.236   0.749   1.914  0.00  0.00    +0.009 A 
ATOM     18  C   UNL     1      11.155   1.588   2.464  0.00  0.00    +0.001 A 
ATOM     19  C   UNL     1      10.780   2.832   2.968  0.00  0.00    +0.001 A 
ATOM     20  C   UNL     1       9.484   3.244   2.924  0.00  0.00    +0.008 A 
ATOM     21  C   UNL     1       8.505   2.405   2.364  0.00  0.00    -0.017 A 
ATOM     22  C   UNL     1       7.157   2.798   2.302  0.00  0.00    +0.012 A 
ATOM     23  C   UNL     1       6.236   1.962   1.753  0.00  0.00    +0.046 A 
ATOM     24  C   UNL     1       6.610   0.715   1.243  0.00  0.00    +0.122 A 
BRANCH  24  25
ATOM     25  O   UNL     1       5.667  -0.096   0.695  0.00  0.00    -0.506 OA
ATOM     26  H   UNL     1       5.172  -0.617   1.343  0.00  0.00    +0.292 HD
ENDBRANCH  24  25
ENDBRANCH  12  15
BRANCH   1  27
ATOM     27  S   UNL     1       2.531  -4.564   1.832  0.00  0.00    +0.061 S 
ATOM     28  O   UNL     1       2.915  -5.152   3.067  0.00  0.00    -0.153 OA
ATOM     29  O   UNL     1       2.059  -5.334   0.736  0.00  0.00    -0.153 OA
BRANCH  27  34
ATOM     30  C   UNL     1      -0.126   0.462   2.415  0.00  0.00    +0.105 C 
ATOM     31  N   UNL     1       0.084  -0.992   2.451  0.00  0.00    -0.303 NA
ATOM     32  C   UNL     1       0.337  -1.521   1.105  0.00  0.00    +0.101 C 
ATOM     33  C   UNL     1       0.370  -3.052   1.159  0.00  0.00    +0.125 C 
ATOM     34  N   UNL     1       1.345  -3.462   2.182  0.00  0.00    -0.174 NA
ATOM     35  C   UNL     1       1.238  -2.867   3.522  0.00  0.00    +0.125 C 
ATOM     36  C   UNL     1       1.171  -1.343   3.375  0.00  0.00    +0.101 C 
ENDBRANCH  27  34
ENDBRANCH   1  27
TORSDOF 4
