REMARK  Name = ZINC22324923
REMARK  15 active torsions:
REMARK  status: ('A' for Active; 'I' for Inactive)
REMARK    1  A    between atoms: C_1  and  C_2
REMARK    2  A    between atoms: C_2  and  O_3
REMARK    3  A    between atoms: O_3  and  C_4
REMARK    4  A    between atoms: C_7  and  C_13
REMARK    5  A    between atoms: C_9  and  O_10
REMARK    6  A    between atoms: O_10  and  C_11
REMARK    7  A    between atoms: C_11  and  C_12
REMARK    8  A    between atoms: C_13  and  N_14
REMARK    9  A    between atoms: C_15  and  C_17
REMARK   10  A    between atoms: C_17  and  N_18
REMARK   11  A    between atoms: N_18  and  C_19
REMARK   12  A    between atoms: N_18  and  S_27
REMARK   13  A    between atoms: C_24  and  C_25
REMARK   14  A    between atoms: S_27  and  C_30
REMARK   15  A    between atoms: C_33  and  C_36
REMARK                            x       y       z     vdW  Elec       q    Type
REMARK                         _______ _______ _______ _____ _____    ______ ____
ROOT
ATOM      1  N   UNL     1       7.499  -0.764   3.833  0.00  0.00    -0.194 N 
ENDROOT
BRANCH   1   2
ATOM      2  C   UNL     1       7.750  -1.046   5.179  0.00  0.00    +0.055 A 
ATOM      3  C   UNL     1       7.075  -2.083   5.810  0.00  0.00    +0.026 A 
ATOM      4  C   UNL     1       7.326  -2.360   7.140  0.00  0.00    +0.022 A 
ATOM      5  C   UNL     1       8.248  -1.605   7.843  0.00  0.00    +0.041 A 
ATOM      6  C   UNL     1       8.921  -0.571   7.217  0.00  0.00    +0.025 A 
ATOM      7  C   UNL     1       8.679  -0.294   5.886  0.00  0.00    -0.026 A 
ATOM      8  C   UNL     1       9.418   0.828   5.202  0.00  0.00    +0.046 C 
ATOM      9 CL   UNL     1       8.560  -1.955   9.515  0.00  0.00    -0.084 Cl
ENDBRANCH   1   2
BRANCH   1  10
ATOM     10  S   UNL     1       8.430  -1.459   2.654  0.00  0.00    +0.075 S 
ATOM     11  O   UNL     1       9.113  -2.546   3.263  0.00  0.00    -0.150 OA
ATOM     12  O   UNL     1       7.590  -1.627   1.520  0.00  0.00    -0.150 OA
BRANCH  10  13
ATOM     13  C   UNL     1       9.660  -0.282   2.200  0.00  0.00    +0.109 A 
ATOM     14  C   UNL     1       9.363   0.710   1.284  0.00  0.00    +0.029 A 
ATOM     15  C   UNL     1      10.327   1.636   0.931  0.00  0.00    +0.005 A 
ATOM     16  C   UNL     1      11.591   1.564   1.487  0.00  0.00    -0.050 A 
ATOM     17  C   UNL     1      11.889   0.569   2.399  0.00  0.00    +0.005 A 
ATOM     18  C   UNL     1      10.924  -0.354   2.755  0.00  0.00    +0.029 A 
ATOM     19  C   UNL     1      12.643   2.571   1.099  0.00  0.00    +0.044 C 
ENDBRANCH  10  13
ENDBRANCH   1  10
BRANCH   1  20
ATOM     20  C   UNL     1       6.412   0.147   3.467  0.00  0.00    +0.227 C 
BRANCH  20  22
ATOM     21  N   UNL     1       3.972   0.017   3.077  0.00  0.00    -0.310 N 
ATOM     22  C   UNL     1       5.116  -0.620   3.399  0.00  0.00    +0.232 C 
ATOM     23  O   UNL     1       5.102  -1.810   3.633  0.00  0.00    -0.274 OA
ATOM     24  H   UNL     1       3.985   1.096   2.864  0.00  0.00    +0.149 HD
BRANCH  21  25
ATOM     25  C   UNL     1       2.713  -0.728   3.011  0.00  0.00    +0.139 C 
BRANCH  25  29
ATOM     26  C   UNL     1      -0.458   1.936   1.946  0.00  0.00    +0.162 A 
ATOM     27  C   UNL     1      -0.142   1.729   3.279  0.00  0.00    +0.050 A 
ATOM     28  C   UNL     1       0.885   0.868   3.620  0.00  0.00    +0.009 A 
ATOM     29  C   UNL     1       1.594   0.208   2.634  0.00  0.00    -0.027 A 
ATOM     30  C   UNL     1       1.280   0.406   1.302  0.00  0.00    +0.054 A 
ATOM     31  C   UNL     1       0.252   1.267   0.953  0.00  0.00    +0.162 A 
BRANCH  26  32
ATOM     32  O   UNL     1      -1.464   2.787   1.608  0.00  0.00    -0.489 OA
BRANCH  32  34
ATOM     33  C   UNL     1      -3.239   4.348   2.110  0.00  0.00    +0.048 C 
ATOM     34  C   UNL     1      -2.150   3.438   2.680  0.00  0.00    +0.226 C 
ENDBRANCH  32  34
ENDBRANCH  26  32
BRANCH  31  35
ATOM     35  O   UNL     1      -0.059   1.463  -0.356  0.00  0.00    -0.489 OA
BRANCH  35  36
ATOM     36  C   UNL     1       0.716   0.748  -1.321  0.00  0.00    +0.226 C 
ATOM     37  C   UNL     1       0.224   1.093  -2.728  0.00  0.00    +0.048 C 
ENDBRANCH  35  36
ENDBRANCH  31  35
ENDBRANCH  25  29
ENDBRANCH  21  25
ENDBRANCH  20  22
ENDBRANCH   1  20
TORSDOF 11
