REMARK  Name = ZINC28910039
REMARK  9 active torsions:
REMARK  status: ('A' for Active; 'I' for Inactive)
REMARK    1  A    between atoms: C_1  and  C_2
REMARK    2  A    between atoms: C_2  and  C_4
REMARK    3  A    between atoms: C_2  and  N_16
REMARK    4  A    between atoms: N_9  and  C_10
REMARK    5  A    between atoms: N_16  and  C_17
REMARK    6  A    between atoms: C_20  and  N_23
REMARK    7  A    between atoms: C_24  and  C_26
REMARK    8  A    between atoms: C_26  and  C_27
REMARK    9  A    between atoms: C_26  and  C_28
REMARK                            x       y       z     vdW  Elec       q    Type
REMARK                         _______ _______ _______ _____ _____    ______ ____
ROOT
ATOM      1  C   UNL     1      -0.289   1.701   0.139  0.00  0.00    +0.038 C 
ATOM      2  C   UNL     1      -0.074   0.191   0.021  0.00  0.00    +0.154 C 
ENDROOT
BRANCH   2   3
ATOM      3  C   UNL     1       0.736  -0.293   1.195  0.00  0.00    +0.240 C 
ATOM      4  O   UNL     1       0.275  -1.124   1.948  0.00  0.00    -0.273 OA
ATOM      5  N   UNL     1       1.974   0.196   1.409  0.00  0.00    -0.239 N 
ATOM      6  C   UNL     1       2.698  -0.237   2.459  0.00  0.00    +0.306 C 
ATOM      7  O   UNL     1       2.236  -1.070   3.214  0.00  0.00    -0.252 OA
ATOM      8  N   UNL     1       3.936   0.253   2.672  0.00  0.00    -0.296 N 
ATOM      9  H   UNL     1       2.343   0.861   0.806  0.00  0.00    +0.159 HD
ATOM     10  H   UNL     1       4.305   0.917   2.070  0.00  0.00    +0.151 HD
BRANCH   8  11
ATOM     11  C   UNL     1       4.723  -0.218   3.814  0.00  0.00    +0.074 C 
ATOM     12  C   UNL     1       4.349   0.587   5.059  0.00  0.00    +0.022 C 
ATOM     13  C   UNL     1       5.171   0.095   6.252  0.00  0.00    +0.002 C 
ATOM     14  C   UNL     1       6.661   0.279   5.955  0.00  0.00    +0.000 C 
ATOM     15  C   UNL     1       7.036  -0.527   4.709  0.00  0.00    +0.002 C 
ATOM     16  C   UNL     1       6.213  -0.035   3.517  0.00  0.00    +0.022 C 
ENDBRANCH   8  11
ENDBRANCH   2   3
BRANCH   2  17
ATOM     17  N   UNL     1      -1.372  -0.488   0.009  0.00  0.00    -0.333 N 
ATOM     18  H   UNL     1      -1.743  -0.839   0.834  0.00  0.00    +0.147 HD
BRANCH  17  19
ATOM     19  C   UNL     1      -2.076  -0.630  -1.191  0.00  0.00    +0.028 A 
ATOM     20  C   UNL     1      -1.542  -0.133  -2.373  0.00  0.00    +0.025 A 
ATOM     21  C   UNL     1      -2.238  -0.273  -3.557  0.00  0.00    +0.025 A 
ATOM     22  C   UNL     1      -3.471  -0.912  -3.567  0.00  0.00    +0.034 A 
ATOM     23  C   UNL     1      -4.005  -1.409  -2.385  0.00  0.00    +0.025 A 
ATOM     24  C   UNL     1      -3.307  -1.274  -1.202  0.00  0.00    +0.025 A 
BRANCH  22  25
ATOM     25  N   UNL     1      -4.177  -1.054  -4.769  0.00  0.00    -0.285 N 
ATOM     26  C   UNL     1      -3.508  -1.223  -5.927  0.00  0.00    +0.220 C 
ATOM     27  O   UNL     1      -2.302  -1.348  -5.918  0.00  0.00    -0.275 OA
ATOM     28  H   UNL     1      -5.146  -1.031  -4.768  0.00  0.00    +0.155 HD
BRANCH  26  29
ATOM     29  C   UNL     1      -4.260  -1.256  -7.233  0.00  0.00    +0.069 C 
ATOM     30  C   UNL     1      -5.006   0.065  -7.426  0.00  0.00    +0.017 C 
ATOM     31  C   UNL     1      -3.272  -1.458  -8.384  0.00  0.00    +0.017 C 
ENDBRANCH  26  29
ENDBRANCH  22  25
ENDBRANCH  17  19
ENDBRANCH   2  17
TORSDOF 6
