REMARK  Name = ZINC38575031
REMARK  12 active torsions:
REMARK  status: ('A' for Active; 'I' for Inactive)
REMARK    1  A    between atoms: C_1  and  C_2
REMARK    2  A    between atoms: C_2  and  C_3
REMARK    3  A    between atoms: C_2  and  C_4
REMARK    4  A    between atoms: C_7  and  N_10
REMARK    5  A    between atoms: C_11  and  C_13
REMARK    6  A    between atoms: C_13  and  S_14
REMARK    7  A    between atoms: S_14  and  C_15
REMARK    8  A    between atoms: C_21  and  C_24
REMARK    9  A    between atoms: C_27  and  O_32
REMARK   10  A    between atoms: C_28  and  O_30
REMARK   11  A    between atoms: O_30  and  C_31
REMARK   12  A    between atoms: O_32  and  C_33
REMARK                            x       y       z     vdW  Elec       q    Type
REMARK                         _______ _______ _______ _____ _____    ______ ____
ROOT
ATOM      1  C   UNL     1      -9.265  -4.419  -2.483  0.00  0.00    +0.118 A 
ATOM      2  C   UNL     1      -9.866  -5.151  -3.527  0.00  0.00    +0.040 A 
ATOM      3  C   UNL     1     -11.183  -5.481  -3.457  0.00  0.00    +0.053 A 
ATOM      4  C   UNL     1     -11.931  -5.084  -2.334  0.00  0.00    +0.178 A 
ATOM      5  N   UNL     1     -13.197  -5.244  -1.975  0.00  0.00    -0.128 NA
ATOM      6  N   UNL     1     -13.396  -4.683  -0.834  0.00  0.00    -0.127 NA
ATOM      7  C   UNL     1     -12.278  -4.134  -0.397  0.00  0.00    +0.185 A 
ATOM      8  N   UNL     1     -11.317  -4.372  -1.333  0.00  0.00    -0.192 N 
ATOM      9  N   UNL     1      -9.961  -4.052  -1.432  0.00  0.00    -0.157 NA
ENDROOT
BRANCH   7  10
ATOM     10  C   UNL     1     -12.101  -3.399   0.873  0.00  0.00    +0.025 A 
ATOM     11  C   UNL     1     -10.970  -2.604   1.069  0.00  0.00    +0.015 A 
ATOM     12  C   UNL     1     -10.807  -1.919   2.255  0.00  0.00    +0.050 A 
ATOM     13  C   UNL     1     -11.763  -2.017   3.255  0.00  0.00    +0.162 A 
ATOM     14  C   UNL     1     -12.893  -2.809   3.066  0.00  0.00    +0.162 A 
ATOM     15  C   UNL     1     -13.067  -3.494   1.877  0.00  0.00    +0.061 A 
BRANCH  14  16
ATOM     16  O   UNL     1     -13.829  -2.904   4.048  0.00  0.00    -0.491 OA
ATOM     17  C   UNL     1     -14.963  -3.733   3.786  0.00  0.00    +0.277 C 
ENDBRANCH  14  16
BRANCH  13  18
ATOM     18  O   UNL     1     -11.598  -1.339   4.422  0.00  0.00    -0.491 OA
ATOM     19  C   UNL     1     -10.415  -0.546   4.549  0.00  0.00    +0.277 C 
ENDBRANCH  13  18
ENDBRANCH   7  10
BRANCH   1  20
ATOM     20  S   UNL     1      -7.557  -3.997  -2.587  0.00  0.00    -0.095 S 
BRANCH  20  21
ATOM     21  C   UNL     1      -7.236  -3.087  -1.052  0.00  0.00    +0.172 C 
BRANCH  21  23
ATOM     22  N   UNL     1      -5.320  -1.968   0.042  0.00  0.00    -0.285 N 
ATOM     23  C   UNL     1      -5.790  -2.663  -1.013  0.00  0.00    +0.227 C 
ATOM     24  O   UNL     1      -5.050  -2.946  -1.931  0.00  0.00    -0.275 OA
ATOM     25  H   UNL     1      -5.891  -1.807   0.810  0.00  0.00    +0.155 HD
BRANCH  22  29
ATOM     26  C   UNL     1      -1.418  -0.509   0.005  0.00  0.00    -0.045 A 
ATOM     27  C   UNL     1      -2.137  -0.586  -1.174  0.00  0.00    +0.006 A 
ATOM     28  C   UNL     1      -3.431  -1.069  -1.165  0.00  0.00    +0.023 A 
ATOM     29  C   UNL     1      -4.010  -1.478   0.030  0.00  0.00    +0.033 A 
ATOM     30  C   UNL     1      -3.284  -1.400   1.212  0.00  0.00    +0.023 A 
ATOM     31  C   UNL     1      -1.989  -0.920   1.195  0.00  0.00    +0.006 A 
BRANCH  26  33
ATOM     32  C   UNL     1       0.857  -0.856  -0.919  0.00  0.00    +0.012 C 
ATOM     33  C   UNL     1      -0.007   0.019  -0.009  0.00  0.00    +0.013 C 
ATOM     34  C   UNL     1      -0.005   1.457  -0.532  0.00  0.00    +0.012 C 
ENDBRANCH  26  33
ENDBRANCH  22  29
ENDBRANCH  21  23
ENDBRANCH  20  21
ENDBRANCH   1  20
TORSDOF 8
