REMARK  Name = ZINC12927686
REMARK  8 active torsions:
REMARK  status: ('A' for Active; 'I' for Inactive)
REMARK    1  A    between atoms: C_4  and  N_7
REMARK    2  A    between atoms: N_10  and  C_11
REMARK    3  A    between atoms: C_11  and  C_12
REMARK    4  A    between atoms: N_14  and  C_15
REMARK    5  A    between atoms: C_15  and  C_16
REMARK    6  A    between atoms: C_16  and  S_17
REMARK    7  A    between atoms: S_17  and  C_18
REMARK    8  A    between atoms: C_18  and  C_19
REMARK                            x       y       z     vdW  Elec       q    Type
REMARK                         _______ _______ _______ _____ _____    ______ ____
ROOT
ATOM      1  C   UNL     1       8.779  -2.038  -3.979  0.00  0.00    +0.230 C 
ATOM      2  O   UNL     1       8.288  -1.881  -5.077  0.00  0.00    -0.274 OA
ATOM      3  N   UNL     1       8.047  -1.800  -2.873  0.00  0.00    -0.313 N 
ATOM      4  H   UNL     1       8.440  -1.925  -1.995  0.00  0.00    +0.149 HD
ENDROOT
BRANCH   1   5
ATOM      5  C   UNL     1      10.209  -2.498  -3.852  0.00  0.00    +0.201 C 
BRANCH   5   9
ATOM      6  N   UNL     1      12.586  -3.268  -6.549  0.00  0.00    -0.269 N 
ATOM      7  C   UNL     1      12.059  -3.096  -5.321  0.00  0.00    +0.304 C 
ATOM      8  O   UNL     1      12.735  -3.311  -4.333  0.00  0.00    -0.252 OA
ATOM      9  N   UNL     1      10.782  -2.685  -5.187  0.00  0.00    -0.291 N 
ATOM     10  H   UNL     1      12.029  -3.161  -7.336  0.00  0.00    +0.156 HD
ATOM     11  H   UNL     1      10.243  -2.513  -5.975  0.00  0.00    +0.151 HD
BRANCH   6  15
ATOM     12  C   UNL     1      16.611  -4.259  -6.968  0.00  0.00    +0.000 A 
ATOM     13  C   UNL     1      15.886  -4.754  -5.900  0.00  0.00    +0.002 A 
ATOM     14  C   UNL     1      14.552  -4.427  -5.758  0.00  0.00    +0.023 A 
ATOM     15  C   UNL     1      13.938  -3.600  -6.690  0.00  0.00    +0.035 A 
ATOM     16  C   UNL     1      14.667  -3.110  -7.765  0.00  0.00    +0.023 A 
ATOM     17  C   UNL     1      16.003  -3.436  -7.898  0.00  0.00    +0.002 A 
ENDBRANCH   6  15
ENDBRANCH   5   9
ENDBRANCH   1   5
BRANCH   3  18
ATOM     18  C   UNL     1       6.657  -1.353  -2.996  0.00  0.00    +0.115 C 
BRANCH  18  19
ATOM     19  C   UNL     1       6.059  -1.158  -1.602  0.00  0.00    +0.088 C 
BRANCH  19  20
ATOM     20  S   UNL     1       4.338  -0.604  -1.755  0.00  0.00    -0.154 S 
BRANCH  20  21
ATOM     21  C   UNL     1       3.782  -0.422  -0.038  0.00  0.00    +0.111 C 
BRANCH  21  22
ATOM     22  C   UNL     1       2.347   0.040  -0.021  0.00  0.00    +0.001 A 
ATOM     23  C   UNL     1       1.212  -0.701  -0.010  0.00  0.00    +0.013 A 
ATOM     24  C   UNL     1      -0.010  -0.055   0.004  0.00  0.00    +0.023 A 
ATOM     25  C   UNL     1      -0.037   1.301   0.006  0.00  0.00    +0.055 A 
ATOM     26  S   UNL     1       1.702   1.705  -0.012  0.00  0.00    -0.086 S 
ATOM     27 BR   UNL     1      -1.529   2.463   0.017  0.00  0.00    -0.043 Br
ENDBRANCH  21  22
ENDBRANCH  20  21
ENDBRANCH  19  20
ENDBRANCH  18  19
ENDBRANCH   3  18
TORSDOF 8
