REMARK  Name = ZINC36610783
REMARK  14 active torsions:
REMARK  status: ('A' for Active; 'I' for Inactive)
REMARK    1  A    between atoms: C_1  and  C_2
REMARK    2  A    between atoms: C_2  and  C_3
REMARK    3  A    between atoms: C_2  and  C_4
REMARK    4  A    between atoms: C_2  and  N_5
REMARK    5  A    between atoms: C_6  and  C_8
REMARK    6  A    between atoms: C_8  and  C_10
REMARK    7  A    between atoms: C_8  and  N_19
REMARK    8  A    between atoms: C_13  and  N_16
REMARK    9  A    between atoms: N_19  and  C_20
REMARK   10  A    between atoms: C_26  and  C_28
REMARK   11  A    between atoms: C_28  and  C_29
REMARK   12  A    between atoms: C_29  and  C_30
REMARK   13  A    between atoms: C_33  and  O_36
REMARK   14  A    between atoms: O_36  and  C_37
REMARK                            x       y       z     vdW  Elec       q    Type
REMARK                         _______ _______ _______ _____ _____    ______ ____
ROOT
ATOM      1  N   UNL     1       4.100  -0.583  -2.991  0.00  0.00    -0.255 N 
ATOM      2  C   UNL     1       4.401   0.165  -4.072  0.00  0.00    +0.221 C 
ATOM      3  O   UNL     1       3.516   0.707  -4.699  0.00  0.00    -0.275 OA
ENDROOT
BRANCH   1   4
ATOM      4  C   UNL     1       5.109  -1.286  -2.325  0.00  0.00    +0.037 A 
ATOM      5  C   UNL     1       5.154  -2.672  -2.395  0.00  0.00    +0.023 A 
ATOM      6  C   UNL     1       6.152  -3.363  -1.736  0.00  0.00    +0.002 A 
ATOM      7  C   UNL     1       7.106  -2.676  -1.007  0.00  0.00    +0.000 A 
ATOM      8  C   UNL     1       7.064  -1.296  -0.935  0.00  0.00    +0.002 A 
ATOM      9  C   UNL     1       6.071  -0.599  -1.596  0.00  0.00    +0.023 A 
ENDBRANCH   1   4
BRANCH   1  10
ATOM     10  C   UNL     1       2.717  -0.659  -2.515  0.00  0.00    +0.197 C 
BRANCH  10  11
ATOM     11  C   UNL     1       2.628  -1.654  -1.387  0.00  0.00    -0.018 A 
ATOM     12  C   UNL     1       3.408  -1.490  -0.258  0.00  0.00    +0.008 A 
ATOM     13  C   UNL     1       3.327  -2.402   0.777  0.00  0.00    +0.033 A 
ATOM     14  C   UNL     1       2.465  -3.479   0.683  0.00  0.00    +0.126 A 
ATOM     15  C   UNL     1       1.684  -3.643  -0.446  0.00  0.00    +0.033 A 
ATOM     16  C   UNL     1       1.762  -2.728  -1.479  0.00  0.00    +0.008 A 
BRANCH  14  17
ATOM     17  N   UNL     1       2.378  -4.457   1.791  0.00  0.00    +0.056 N 
ATOM     18  O   UNL     1       3.061  -4.314   2.778  0.00  0.00    -0.126 OA
ATOM     19  O   UNL     1       1.625  -5.399   1.709  0.00  0.00    -0.126 OA
ENDBRANCH  14  17
ENDBRANCH  10  11
BRANCH  10  21
ATOM     20  N   UNL     1       1.034   0.868  -1.537  0.00  0.00    -0.309 N 
ATOM     21  C   UNL     1       2.279   0.697  -2.025  0.00  0.00    +0.239 C 
ATOM     22  O   UNL     1       3.047   1.635  -2.068  0.00  0.00    -0.273 OA
ATOM     23  H   UNL     1       0.420   0.118  -1.502  0.00  0.00    +0.149 HD
BRANCH  20  25
ATOM     24  C   UNL     1       0.699   3.197  -2.206  0.00  0.00    +0.031 C 
ATOM     25  C   UNL     1       0.609   2.186  -1.060  0.00  0.00    +0.026 C 
ATOM     26  C   UNL     1       1.519   2.632   0.086  0.00  0.00    +0.031 C 
ATOM     27  C   UNL     1      -0.836   2.107  -0.563  0.00  0.00    +0.031 C 
ENDBRANCH  20  25
ENDBRANCH  10  21
ENDBRANCH   1  10
BRANCH   2  28
ATOM     28  C   UNL     1       5.836   0.327  -4.500  0.00  0.00    +0.101 C 
BRANCH  28  29
ATOM     29  C   UNL     1       5.909   1.295  -5.683  0.00  0.00    +0.044 C 
BRANCH  29  30
ATOM     30  C   UNL     1       7.345   1.457  -6.112  0.00  0.00    -0.047 A 
ATOM     31  C   UNL     1       8.127   2.446  -5.544  0.00  0.00    +0.007 A 
ATOM     32  C   UNL     1       9.444   2.597  -5.936  0.00  0.00    +0.046 A 
ATOM     33  C   UNL     1       9.980   1.755  -6.899  0.00  0.00    +0.120 A 
ATOM     34  C   UNL     1       9.194   0.763  -7.466  0.00  0.00    +0.046 A 
ATOM     35  C   UNL     1       7.880   0.613  -7.067  0.00  0.00    +0.007 A 
BRANCH  33  36
ATOM     36  O   UNL     1      11.275   1.901  -7.286  0.00  0.00    -0.495 OA
ATOM     37  C   UNL     1      11.760   0.999  -8.281  0.00  0.00    +0.277 C 
ENDBRANCH  33  36
ENDBRANCH  29  30
ENDBRANCH  28  29
ENDBRANCH   2  28
TORSDOF 10
