REMARK  Name = ZINC63515593
REMARK  14 active torsions:
REMARK  status: ('A' for Active; 'I' for Inactive)
REMARK    1  A    between atoms: C_1  and  C_2
REMARK    2  A    between atoms: C_4  and  C_33
REMARK    3  A    between atoms: C_5  and  C_31
REMARK    4  A    between atoms: C_6  and  S_8
REMARK    5  A    between atoms: S_8  and  C_9
REMARK    6  A    between atoms: C_9  and  C_10
REMARK    7  A    between atoms: N_12  and  C_13
REMARK    8  A    between atoms: C_13  and  C_14
REMARK    9  A    between atoms: C_14  and  C_15
REMARK   10  A    between atoms: C_18  and  O_26
REMARK   11  A    between atoms: C_23  and  C_25
REMARK   12  A    between atoms: O_26  and  C_27
REMARK   13  A    between atoms: C_33  and  O_34
REMARK   14  A    between atoms: O_34  and  C_35
REMARK                            x       y       z     vdW  Elec       q    Type
REMARK                         _______ _______ _______ _____ _____    ______ ____
ROOT
ATOM      1  C   UNL     1       0.056  -2.020   5.357  0.00  0.00    +0.223 C 
ATOM      2  O   UNL     1       0.074  -3.221   5.520  0.00  0.00    -0.275 OA
ATOM      3  N   UNL     1       0.050  -1.195   6.423  0.00  0.00    -0.314 N 
ATOM      4  H   UNL     1       0.036  -0.234   6.293  0.00  0.00    +0.149 HD
ENDROOT
BRANCH   1   5
ATOM      5  C   UNL     1       0.042  -1.448   3.963  0.00  0.00    +0.171 C 
BRANCH   5   6
ATOM      6  S   UNL     1       0.054  -2.801   2.754  0.00  0.00    -0.095 S 
BRANCH   6  12
ATOM      7  C   UNL     1      -0.018   1.503   0.010  0.00  0.00    +0.065 C 
ATOM      8  C   UNL     1       0.002  -0.004   0.002  0.00  0.00    +0.040 A 
ATOM      9  C   UNL     1       0.005  -0.676  -1.207  0.00  0.00    +0.030 A 
ATOM     10  C   UNL     1       0.025  -2.060  -1.218  0.00  0.00    -0.000 A 
ATOM     11  C   UNL     1       0.040  -2.735   0.008  0.00  0.00    +0.089 A 
ATOM     12  C   UNL     1       0.035  -1.981   1.195  0.00  0.00    +0.115 A 
ATOM     13  N   UNL     1       0.022  -0.657   1.147  0.00  0.00    -0.244 NA
BRANCH  11  14
ATOM     14  C   UNL     1       0.060  -4.166   0.053  0.00  0.00    +0.102 C 
ATOM     15  N   UNL     1       0.075  -5.301   0.088  0.00  0.00    -0.191 NA
ENDBRANCH  11  14
BRANCH  10  16
ATOM     16  C   UNL     1       0.029  -2.822  -2.518  0.00  0.00    +0.196 C 
BRANCH  16  17
ATOM     17  O   UNL     1       0.010  -1.900  -3.611  0.00  0.00    -0.378 OA
ATOM     18  C   UNL     1       0.012  -2.523  -4.897  0.00  0.00    +0.194 C 
ENDBRANCH  16  17
ENDBRANCH  10  16
ENDBRANCH   6  12
ENDBRANCH   5   6
ENDBRANCH   1   5
BRANCH   3  19
ATOM     19  C   UNL     1       0.065  -1.751   7.779  0.00  0.00    +0.108 C 
BRANCH  19  20
ATOM     20  C   UNL     1       0.054  -0.610   8.798  0.00  0.00    +0.052 C 
BRANCH  20  21
ATOM     21  C   UNL     1       0.068  -1.181  10.192  0.00  0.00    -0.037 C 
ATOM     22  C   UNL     1       0.094  -2.489  10.534  0.00  0.00    +0.003 A 
ATOM     23  C   UNL     1       0.115  -3.724   9.744  0.00  0.00    +0.056 A 
ATOM     24  C   UNL     1       0.139  -4.921  10.377  0.00  0.00    +0.129 A 
ATOM     25  C   UNL     1       0.144  -5.029  11.779  0.00  0.00    +0.048 A 
ATOM     26  C   UNL     1       0.127  -3.950  12.591  0.00  0.00    +0.029 A 
ATOM     27  C   UNL     1       0.101  -2.603  12.011  0.00  0.00    +0.043 A 
ATOM     28  N   UNL     1       0.080  -1.414  12.559  0.00  0.00    -0.378 N 
ATOM     29  C   UNL     1       0.064  -0.407  11.492  0.00  0.00    +0.103 C 
ATOM     30  C   UNL     1      -1.202   0.445  11.594  0.00  0.00    +0.035 C 
ATOM     31  H   UNL     1       0.078  -1.229  13.511  0.00  0.00    +0.160 HD
BRANCH  24  32
ATOM     32  O   UNL     1       0.157  -6.058   9.632  0.00  0.00    -0.420 OA
BRANCH  32  33
ATOM     33  C   UNL     1       0.182  -7.298  10.341  0.00  0.00    +0.489 C 
ATOM     34  F   UNL     1       1.328  -7.355  11.142  0.00  0.00    -0.149 F 
ATOM     35  F   UNL     1      -0.956  -7.397  11.149  0.00  0.00    -0.149 F 
ATOM     36 CL   UNL     1       0.203  -8.664   9.164  0.00  0.00    +0.000 Cl
ENDBRANCH  32  33
ENDBRANCH  24  32
ENDBRANCH  20  21
ENDBRANCH  19  20
ENDBRANCH   3  19
TORSDOF 11
