REMARK  Name = ZINC13774800
REMARK  8 active torsions:
REMARK  status: ('A' for Active; 'I' for Inactive)
REMARK    1  A    between atoms: C_4  and  C_7
REMARK    2  A    between atoms: C_7  and  C_8
REMARK    3  A    between atoms: C_7  and  C_14
REMARK    4  A    between atoms: N_16  and  C_17
REMARK    5  A    between atoms: C_17  and  C_18
REMARK    6  A    between atoms: N_20  and  N_21
REMARK    7  A    between atoms: N_29  and  C_32
REMARK    8  A    between atoms: C_32  and  C_33
REMARK                            x       y       z     vdW  Elec       q    Type
REMARK                         _______ _______ _______ _____ _____    ______ ____
ROOT
ATOM      1  C   UNL     1       3.398  -1.342  -4.875  0.00  0.00    +0.249 C 
ATOM      2  O   UNL     1       3.303  -0.133  -4.845  0.00  0.00    -0.272 OA
ATOM      3  N   UNL     1       3.361  -1.991  -6.056  0.00  0.00    -0.205 N 
ATOM      4  H   UNL     1       3.437  -2.958  -6.080  0.00  0.00    +0.177 HD
ENDROOT
BRANCH   3   5
ATOM      5  N   UNL     1       3.213  -1.270  -7.248  0.00  0.00    -0.174 NA
ATOM      6  C   UNL     1       3.178  -1.902  -8.396  0.00  0.00    +0.153 C 
ATOM      7  C   UNL     1       3.034  -1.311  -9.747  0.00  0.00    +0.028 A 
ATOM      8  C   UNL     1       2.902  -0.005 -10.206  0.00  0.00    +0.012 A 
ATOM      9  C   UNL     1       2.785   0.236 -11.560  0.00  0.00    +0.001 A 
ATOM     10  C   UNL     1       2.800  -0.819 -12.457  0.00  0.00    +0.002 A 
ATOM     11  C   UNL     1       2.931  -2.118 -12.011  0.00  0.00    +0.024 A 
ATOM     12  C   UNL     1       3.050  -2.381 -10.650  0.00  0.00    +0.047 A 
ATOM     13  N   UNL     1       3.191  -3.573  -9.949  0.00  0.00    -0.257 N 
ATOM     14  C   UNL     1       3.277  -3.357  -8.625  0.00  0.00    +0.272 C 
ATOM     15  O   UNL     1       3.411  -4.210  -7.767  0.00  0.00    -0.268 OA
BRANCH  13  16
ATOM     16  C   UNL     1       3.245  -4.897 -10.574  0.00  0.00    +0.209 C 
BRANCH  16  17
ATOM     17  C   UNL     1       4.677  -5.244 -10.891  0.00  0.00    +0.228 C 
ATOM     18  O   UNL     1       5.565  -4.463 -10.622  0.00  0.00    -0.274 OA
ATOM     19  N   UNL     1       4.971  -6.423 -11.475  0.00  0.00    -0.328 N 
ATOM     20  H   UNL     1       4.262  -7.048 -11.691  0.00  0.00    +0.145 HD
ATOM     21  H   UNL     1       5.893  -6.646 -11.679  0.00  0.00    +0.145 HD
ENDBRANCH  16  17
ENDBRANCH  13  16
ENDBRANCH   3   5
BRANCH   1  22
ATOM     22  C   UNL     1       3.557  -2.117  -3.593  0.00  0.00    +0.201 C 
BRANCH  22  25
ATOM     23  C   UNL     1       3.700  -1.661  -1.204  0.00  0.00    +0.225 C 
ATOM     24  O   UNL     1       3.810  -2.854  -1.013  0.00  0.00    -0.275 OA
ATOM     25  N   UNL     1       3.567  -1.190  -2.459  0.00  0.00    -0.306 N 
ATOM     26  H   UNL     1       3.479  -0.236  -2.612  0.00  0.00    +0.149 HD
BRANCH  23  27
ATOM     27  C   UNL     1       3.711  -0.707  -0.038  0.00  0.00    +0.135 C 
BRANCH  27  31
ATOM     28  C   UNL     1       0.035   1.467   0.061  0.00  0.00    +0.000 A 
ATOM     29  C   UNL     1       0.020   0.087  -0.022  0.00  0.00    +0.000 A 
ATOM     30  C   UNL     1       1.210  -0.617  -0.054  0.00  0.00    +0.005 A 
ATOM     31  C   UNL     1       2.414   0.060  -0.004  0.00  0.00    -0.031 A 
ATOM     32  C   UNL     1       2.429   1.440   0.079  0.00  0.00    +0.005 A 
ATOM     33  C   UNL     1       1.240   2.143   0.112  0.00  0.00    +0.000 A 
ENDBRANCH  27  31
BRANCH  27  34
ATOM     34  C   UNL     1       3.870  -1.483   1.245  0.00  0.00    -0.031 A 
ATOM     35  C   UNL     1       3.012  -2.528   1.531  0.00  0.00    +0.005 A 
ATOM     36  C   UNL     1       3.158  -3.240   2.707  0.00  0.00    +0.000 A 
ATOM     37  C   UNL     1       4.161  -2.906   3.597  0.00  0.00    +0.000 A 
ATOM     38  C   UNL     1       5.020  -1.861   3.310  0.00  0.00    +0.000 A 
ATOM     39  C   UNL     1       4.877  -1.153   2.132  0.00  0.00    +0.005 A 
ENDBRANCH  27  34
ENDBRANCH  23  27
ENDBRANCH  22  25
ENDBRANCH   1  22
TORSDOF 8
