REMARK  Name = ZINC09915811
REMARK  12 active torsions:
REMARK  status: ('A' for Active; 'I' for Inactive)
REMARK    1  A    between atoms: C_1  and  C_2
REMARK    2  A    between atoms: C_2  and  C_17
REMARK    3  A    between atoms: C_3  and  C_15
REMARK    4  A    between atoms: C_3  and  O_16
REMARK    5  A    between atoms: C_4  and  C_13
REMARK    6  A    between atoms: C_4  and  O_14
REMARK    7  A    between atoms: C_5  and  C_11
REMARK    8  A    between atoms: C_5  and  O_12
REMARK    9  A    between atoms: C_6  and  C_8
REMARK   10  A    between atoms: C_6  and  S_9
REMARK   11  A    between atoms: S_9  and  C_10
REMARK   12  A    between atoms: C_17  and  O_18
REMARK                            x       y       z     vdW  Elec       q    Type
REMARK                         _______ _______ _______ _____ _____    ______ ____
ROOT
ATOM      1  C   UNL     1       3.567   1.163  -0.954  0.00  0.00    +0.047 C 
ATOM      2  C   UNL     1       2.060   1.081  -1.226  0.00  0.00    +0.122 C 
ATOM      3  C   UNL     1       1.290   1.563  -0.002  0.00  0.00    +0.125 C 
ATOM      4  C   UNL     1       1.170   3.080   0.051  0.00  0.00    +0.126 C 
ATOM      5  C   UNL     1       0.697   3.677  -1.267  0.00  0.00    +0.132 C 
ATOM      6  C   UNL     1       1.479   3.149  -2.466  0.00  0.00    +0.144 C 
ATOM      7  O   UNL     1       1.716   1.764  -2.405  0.00  0.00    -0.349 OA
ATOM      8  C   UNL     1       2.799   3.925  -2.593  0.00  0.00    +0.057 C 
ATOM      9  C   UNL     1      -0.797   3.402  -1.471  0.00  0.00    +0.048 C 
ATOM     10  C   UNL     1       0.147   3.447   1.144  0.00  0.00    +0.047 C 
ATOM     11  C   UNL     1       2.035   1.087   1.259  0.00  0.00    +0.047 C 
ENDROOT
BRANCH   6  12
ATOM     12  S   UNL     1       0.498   3.497  -3.968  0.00  0.00    -0.127 S 
ATOM     13  C   UNL     1       1.438   2.702  -5.300  0.00  0.00    +0.087 C 
ENDBRANCH   6  12
BRANCH   5  14
ATOM     14  O   UNL     1       0.876   5.105  -1.208  0.00  0.00    -0.382 OA
ATOM     15  H   UNL     1       0.599   5.569  -2.010  0.00  0.00    +0.210 HD
ENDBRANCH   5  14
BRANCH   4  16
ATOM     16  O   UNL     1       2.427   3.657   0.426  0.00  0.00    -0.383 OA
ATOM     17  H   UNL     1       2.417   4.622   0.478  0.00  0.00    +0.210 HD
ENDBRANCH   4  16
BRANCH   3  18
ATOM     18  O   UNL     1      -0.011   0.963   0.007  0.00  0.00    -0.383 OA
ATOM     19  H   UNL     1       0.002  -0.004   0.002  0.00  0.00    +0.210 HD
ENDBRANCH   3  18
BRANCH   2  20
ATOM     20  C   UNL     1       1.720  -0.415  -1.426  0.00  0.00    +0.193 C 
BRANCH  20  21
ATOM     21  O   UNL     1       2.508  -0.945  -2.494  0.00  0.00    -0.392 OA
ATOM     22  H   UNL     1       2.346  -1.881  -2.675  0.00  0.00    +0.210 HD
ENDBRANCH  20  21
ENDBRANCH   2  20
TORSDOF 6
