REMARK  Name = ZINC16150571
REMARK  7 active torsions:
REMARK  status: ('A' for Active; 'I' for Inactive)
REMARK    1  A    between atoms: C_4  and  N_18
REMARK    2  A    between atoms: C_5  and  N_7
REMARK    3  A    between atoms: N_7  and  S_8
REMARK    4  A    between atoms: S_8  and  C_11
REMARK    5  A    between atoms: N_18  and  S_19
REMARK    6  A    between atoms: S_19  and  C_22
REMARK    7  A    between atoms: C_26  and  N_28
REMARK                            x       y       z     vdW  Elec       q    Type
REMARK                         _______ _______ _______ _____ _____    ______ ____
ROOT
ATOM      1  C   UNL     1       4.594  -2.103  -2.864  0.00  0.00    +0.002 A 
ATOM      2  C   UNL     1       4.319  -1.822  -4.189  0.00  0.00    +0.002 A 
ATOM      3  C   UNL     1       3.016  -1.846  -4.649  0.00  0.00    +0.026 A 
ATOM      4  C   UNL     1       1.980  -2.156  -3.781  0.00  0.00    +0.070 A 
ATOM      5  C   UNL     1       2.256  -2.433  -2.443  0.00  0.00    +0.070 A 
ATOM      6  C   UNL     1       3.567  -2.408  -1.990  0.00  0.00    +0.026 A 
ENDROOT
BRANCH   5   7
ATOM      7  N   UNL     1       1.214  -2.743  -1.560  0.00  0.00    -0.214 N 
ATOM      8  H   UNL     1       0.449  -3.250  -1.872  0.00  0.00    +0.174 HD
BRANCH   7   9
ATOM      9  S   UNL     1       1.289  -2.241   0.017  0.00  0.00    +0.072 S 
ATOM     10  O   UNL     1       2.533  -2.699   0.530  0.00  0.00    -0.150 OA
ATOM     11  O   UNL     1       0.046  -2.587   0.612  0.00  0.00    -0.150 OA
BRANCH   9  12
ATOM     12  C   UNL     1       1.367  -0.481   0.001  0.00  0.00    +0.109 A 
ATOM     13  C   UNL     1       0.202   0.262   0.034  0.00  0.00    +0.031 A 
ATOM     14  C   UNL     1       0.262   1.643   0.022  0.00  0.00    +0.040 A 
ATOM     15  C   UNL     1       1.490   2.281  -0.023  0.00  0.00    +0.124 A 
ATOM     16  C   UNL     1       2.656   1.536  -0.057  0.00  0.00    +0.040 A 
ATOM     17  C   UNL     1       2.594   0.155  -0.045  0.00  0.00    +0.031 A 
ATOM     18  F   UNL     1       1.550   3.631  -0.035  0.00  0.00    -0.205 F 
ENDBRANCH   9  12
ENDBRANCH   7   9
ENDBRANCH   5   7
BRANCH   4  19
ATOM     19  N   UNL     1       0.659  -2.186  -4.246  0.00  0.00    -0.214 N 
ATOM     20  H   UNL     1      -0.064  -1.892  -3.671  0.00  0.00    +0.174 HD
BRANCH  19  21
ATOM     21  S   UNL     1       0.333  -2.724  -5.778  0.00  0.00    +0.072 S 
ATOM     22  O   UNL     1      -1.082  -2.759  -5.903  0.00  0.00    -0.150 OA
ATOM     23  O   UNL     1       1.157  -1.970  -6.657  0.00  0.00    -0.150 OA
BRANCH  21  24
ATOM     24  C   UNL     1       0.889  -4.393  -5.874  0.00  0.00    +0.111 A 
ATOM     25  C   UNL     1       2.182  -4.669  -6.279  0.00  0.00    +0.030 A 
ATOM     26  C   UNL     1       2.620  -5.978  -6.350  0.00  0.00    +0.024 A 
ATOM     27  C   UNL     1       1.761  -7.013  -6.025  0.00  0.00    +0.071 A 
ATOM     28  C   UNL     1       0.466  -6.737  -5.624  0.00  0.00    +0.146 A 
ATOM     29  C   UNL     1       0.031  -5.427  -5.549  0.00  0.00    +0.063 A 
ATOM     30 CL   UNL     1       2.309  -8.657  -6.119  0.00  0.00    -0.081 Cl
BRANCH  28  31
ATOM     31  N   UNL     1      -0.453  -7.843  -5.276  0.00  0.00    +0.058 N 
ATOM     32  O   UNL     1      -1.593  -7.600  -4.923  0.00  0.00    -0.126 OA
ATOM     33  O   UNL     1      -0.069  -8.997  -5.342  0.00  0.00    -0.126 OA
ENDBRANCH  28  31
ENDBRANCH  21  24
ENDBRANCH  19  21
ENDBRANCH   4  19
TORSDOF 7
