REMARK  Name = ZINC24105127
REMARK  10 active torsions:
REMARK  status: ('A' for Active; 'I' for Inactive)
REMARK    1  A    between atoms: C_1  and  C_2
REMARK    2  A    between atoms: C_2  and  O_3
REMARK    3  A    between atoms: O_3  and  C_4
REMARK    4  A    between atoms: C_4  and  C_5
REMARK    5  A    between atoms: C_5  and  C_6
REMARK    6  A    between atoms: C_6  and  N_7
REMARK    7  A    between atoms: C_17  and  S_18
REMARK    8  A    between atoms: S_18  and  C_19
REMARK    9  A    between atoms: C_19  and  C_20
REMARK   10  A    between atoms: C_26  and  C_31
REMARK                            x       y       z     vdW  Elec       q    Type
REMARK                         _______ _______ _______ _____ _____    ______ ____
ROOT
ATOM      1  S   UNL     1       4.476  -4.065  -2.387  0.00  0.00    -0.080 S 
ENDROOT
BRANCH   1  12
ATOM      2  N   UNL     1       2.259  -4.151  -3.917  0.00  0.00    -0.287 N 
ATOM      3  C   UNL     1       1.558  -4.322  -5.062  0.00  0.00    +0.262 A 
ATOM      4  O   UNL     1       0.350  -4.181  -5.090  0.00  0.00    -0.267 OA
ATOM      5  C   UNL     1       2.312  -4.683  -6.271  0.00  0.00    +0.065 A 
ATOM      6  C   UNL     1       1.683  -4.881  -7.499  0.00  0.00    +0.015 A 
ATOM      7  C   UNL     1       2.432  -5.216  -8.593  0.00  0.00    +0.001 A 
ATOM      8  C   UNL     1       3.810  -5.361  -8.493  0.00  0.00    +0.002 A 
ATOM      9  C   UNL     1       4.452  -5.173  -7.302  0.00  0.00    +0.028 A 
ATOM     10  C   UNL     1       3.714  -4.830  -6.165  0.00  0.00    +0.079 A 
ATOM     11  N   UNL     1       4.307  -4.634  -4.970  0.00  0.00    -0.223 NA
ATOM     12  C   UNL     1       3.616  -4.307  -3.906  0.00  0.00    +0.173 A 
BRANCH   2  13
ATOM     13  C   UNL     1       1.558  -3.789  -2.683  0.00  0.00    +0.129 C 
BRANCH  13  14
ATOM     14  C   UNL     1       1.478  -2.265  -2.569  0.00  0.00    +0.050 C 
BRANCH  14  15
ATOM     15  C   UNL     1       0.746  -1.888  -1.280  0.00  0.00    +0.161 C 
BRANCH  15  16
ATOM     16  O   UNL     1       0.671  -0.465  -1.174  0.00  0.00    -0.380 OA
BRANCH  16  18
ATOM     17  C   UNL     1      -0.019   1.526   0.010  0.00  0.00    +0.034 C 
ATOM     18  C   UNL     1       0.002  -0.004   0.002  0.00  0.00    +0.156 C 
ENDBRANCH  16  18
ENDBRANCH  15  16
ENDBRANCH  14  15
ENDBRANCH  13  14
ENDBRANCH   2  13
ENDBRANCH   1  12
BRANCH   1  19
ATOM     19  C   UNL     1       6.213  -4.366  -2.815  0.00  0.00    +0.151 C 
BRANCH  19  20
ATOM     20  C   UNL     1       7.070  -4.189  -1.588  0.00  0.00    +0.121 A 
ATOM     21  N   UNL     1       8.414  -4.362  -1.681  0.00  0.00    -0.310 N 
ATOM     22  H   UNL     1       8.804  -4.597  -2.538  0.00  0.00    +0.170 HD
ATOM     23  C   UNL     1       9.214  -4.213  -0.610  0.00  0.00    +0.260 A 
ATOM     24  O   UNL     1      10.419  -4.371  -0.711  0.00  0.00    -0.267 OA
ATOM     25  C   UNL     1       8.630  -3.866   0.650  0.00  0.00    +0.083 A 
ATOM     26  C   UNL     1       9.278  -3.651   1.939  0.00  0.00    +0.039 A 
ATOM     27  C   UNL     1       8.507  -3.325   3.008  0.00  0.00    +0.059 A 
ATOM     28  S   UNL     1       6.858  -3.290   2.333  0.00  0.00    -0.076 S 
ATOM     29  C   UNL     1       7.235  -3.709   0.650  0.00  0.00    +0.116 A 
ATOM     30  N   UNL     1       6.509  -3.867  -0.453  0.00  0.00    -0.226 NA
BRANCH  26  31
ATOM     31  C   UNL     1      10.742  -3.786   2.079  0.00  0.00    +0.136 A 
ATOM     32  C   UNL     1      11.574  -2.883   2.664  0.00  0.00    +0.050 A 
ATOM     33  C   UNL     1      12.877  -3.415   2.575  0.00  0.00    +0.042 A 
ATOM     34  C   UNL     1      12.777  -4.602   1.948  0.00  0.00    +0.196 A 
ATOM     35  O   UNL     1      11.484  -4.826   1.654  0.00  0.00    -0.463 OA
ENDBRANCH  26  31
ENDBRANCH  19  20
ENDBRANCH   1  19
TORSDOF 9
