REMARK  Name = ZINC39448828
REMARK  5 active torsions:
REMARK  status: ('A' for Active; 'I' for Inactive)
REMARK    1  A    between atoms: C_1  and  C_2
REMARK    2  A    between atoms: C_7  and  C_8
REMARK    3  A    between atoms: C_13  and  S_15
REMARK    4  A    between atoms: S_15  and  C_16
REMARK    5  A    between atoms: C_16  and  C_17
REMARK                            x       y       z     vdW  Elec       q    Type
REMARK                         _______ _______ _______ _____ _____    ______ ____
ROOT
ATOM      1  S   UNL     1      -2.398  -2.971   4.237  0.00  0.00    -0.081 S 
ENDROOT
BRANCH   1   6
ATOM      2  C   UNL     1      -0.078  -0.126   2.592  0.00  0.00    +0.200 C 
ATOM      3  N   UNL     1      -1.055   0.969   2.575  0.00  0.00    -0.336 N 
ATOM      4  C   UNL     1      -2.293   0.755   2.934  0.00  0.00    +0.190 C 
ATOM      5  N   UNL     1      -2.711  -0.445   3.370  0.00  0.00    -0.195 NA
ATOM      6  C   UNL     1      -1.845  -1.388   3.696  0.00  0.00    +0.159 C 
ATOM      7  N   UNL     1      -0.500  -1.107   3.604  0.00  0.00    -0.300 N 
ATOM      8  N   UNL     1      -3.199   1.794   2.862  0.00  0.00    -0.329 N 
ATOM      9  H   UNL     1      -2.913   2.666   2.550  0.00  0.00    +0.145 HD
ATOM     10  H   UNL     1      -4.122   1.651   3.125  0.00  0.00    +0.145 HD
ATOM     11  H   UNL     1       0.145  -1.540   4.184  0.00  0.00    +0.150 HD
ATOM     12  H   UNL     1      -0.780   1.856   2.295  0.00  0.00    +0.164 HD
BRANCH   2  19
ATOM     13  C   UNL     1       2.288  -1.570   1.776  0.00  0.00    +0.044 C 
ATOM     14  C   UNL     1       1.105  -1.474   0.847  0.00  0.00    -0.044 A 
ATOM     15  C   UNL     1       1.150  -2.082  -0.394  0.00  0.00    +0.004 A 
ATOM     16  C   UNL     1       0.066  -1.994  -1.246  0.00  0.00    +0.000 A 
ATOM     17  C   UNL     1      -1.064  -1.298  -0.858  0.00  0.00    +0.000 A 
ATOM     18  C   UNL     1      -1.110  -0.692   0.383  0.00  0.00    +0.007 A 
ATOM     19  C   UNL     1      -0.026  -0.783   1.237  0.00  0.00    -0.004 A 
ENDBRANCH   2  19
ENDBRANCH   1   6
BRANCH   1  20
ATOM     20  C   UNL     1      -4.207  -2.843   4.188  0.00  0.00    +0.173 C 
BRANCH  20  21
ATOM     21  C   UNL     1      -4.815  -4.148   4.634  0.00  0.00    +0.234 C 
ATOM     22  O   UNL     1      -4.098  -5.073   4.953  0.00  0.00    -0.274 OA
ATOM     23  N   UNL     1      -6.155  -4.287   4.678  0.00  0.00    -0.239 N 
ATOM     24  C   UNL     1      -7.004  -3.235   4.309  0.00  0.00    +0.044 A 
ATOM     25  C   UNL     1      -6.855  -2.693   3.037  0.00  0.00    +0.024 A 
ATOM     26  C   UNL     1      -7.686  -1.681   2.605  0.00  0.00    +0.002 A 
ATOM     27  C   UNL     1      -8.673  -1.211   3.452  0.00  0.00    +0.000 A 
ATOM     28  C   UNL     1      -8.811  -1.737   4.715  0.00  0.00    +0.005 A 
ATOM     29  C   UNL     1      -7.968  -2.749   5.180  0.00  0.00    -0.025 A 
ATOM     30  C   UNL     1      -8.196  -3.153   6.619  0.00  0.00    +0.042 C 
ATOM     31  C   UNL     1      -7.213  -4.198   7.114  0.00  0.00    +0.042 C 
ATOM     32  C   UNL     1      -7.333  -5.482   6.331  0.00  0.00    -0.025 A 
ATOM     33  C   UNL     1      -6.744  -5.491   5.089  0.00  0.00    +0.044 A 
ATOM     34  C   UNL     1      -6.753  -6.630   4.304  0.00  0.00    +0.024 A 
ATOM     35  C   UNL     1      -7.394  -7.762   4.783  0.00  0.00    +0.002 A 
ATOM     36  C   UNL     1      -8.011  -7.747   6.020  0.00  0.00    +0.000 A 
ATOM     37  C   UNL     1      -7.983  -6.593   6.815  0.00  0.00    +0.005 A 
ENDBRANCH  20  21
ENDBRANCH   1  20
TORSDOF 4
