REMARK  Name = ZINC14271601
REMARK  8 active torsions:
REMARK  status: ('A' for Active; 'I' for Inactive)
REMARK    1  A    between atoms: C_1  and  C_2
REMARK    2  A    between atoms: C_9  and  N_14
REMARK    3  A    between atoms: C_10  and  C_11
REMARK    4  A    between atoms: N_14  and  C_15
REMARK    5  A    between atoms: C_15  and  N_17
REMARK    6  A    between atoms: C_18  and  C_20
REMARK    7  A    between atoms: C_20  and  C_21
REMARK    8  A    between atoms: C_20  and  C_27
REMARK                            x       y       z     vdW  Elec       q    Type
REMARK                         _______ _______ _______ _____ _____    ______ ____
ROOT
ATOM      1  C   UNL     1       1.229   1.986   0.112  0.00  0.00    +0.141 C 
ATOM      2  S   UNL     1       1.364   3.692   0.153  0.00  0.00    -0.018 S 
ENDROOT
BRANCH   1   3
ATOM      3  N   UNL     1       2.339   1.224   0.053  0.00  0.00    -0.267 N 
ATOM      4  C   UNL     1       3.555   1.804   0.027  0.00  0.00    +0.230 C 
ATOM      5  O   UNL     1       3.651   3.013   0.057  0.00  0.00    -0.274 OA
ATOM      6  H   UNL     1       2.263   0.257   0.029  0.00  0.00    +0.157 HD
BRANCH   4   7
ATOM      7  C   UNL     1       4.796   0.952  -0.039  0.00  0.00    +0.135 C 
BRANCH   7   8
ATOM      8  C   UNL     1       6.014   1.838  -0.056  0.00  0.00    -0.031 A 
ATOM      9  C   UNL     1       6.190   2.792   0.929  0.00  0.00    +0.005 A 
ATOM     10  C   UNL     1       7.310   3.602   0.916  0.00  0.00    +0.000 A 
ATOM     11  C   UNL     1       8.249   3.466  -0.089  0.00  0.00    +0.000 A 
ATOM     12  C   UNL     1       8.071   2.516  -1.077  0.00  0.00    +0.000 A 
ATOM     13  C   UNL     1       6.954   1.702  -1.061  0.00  0.00    +0.005 A 
ENDBRANCH   7   8
BRANCH   7  14
ATOM     14  C   UNL     1       4.849   0.049   1.167  0.00  0.00    -0.031 A 
ATOM     15  C   UNL     1       4.711   0.580   2.435  0.00  0.00    +0.005 A 
ATOM     16  C   UNL     1       4.755  -0.249   3.541  0.00  0.00    +0.000 A 
ATOM     17  C   UNL     1       4.948  -1.608   3.378  0.00  0.00    +0.000 A 
ATOM     18  C   UNL     1       5.092  -2.139   2.110  0.00  0.00    +0.000 A 
ATOM     19  C   UNL     1       5.042  -1.310   1.004  0.00  0.00    +0.005 A 
ENDBRANCH   7  14
ENDBRANCH   4   7
ENDBRANCH   1   3
BRANCH   1  20
ATOM     20  N   UNL     1       0.013   1.405   0.137  0.00  0.00    -0.291 N 
ATOM     21  H   UNL     1      -0.063   0.439   0.114  0.00  0.00    +0.154 HD
BRANCH  20  29
ATOM     22  C   UNL     1      -6.175   6.184   0.353  0.00  0.00    +0.008 C 
ATOM     23  C   UNL     1      -5.272   4.997   0.011  0.00  0.00    -0.009 C 
ATOM     24  C   UNL     1      -5.697   3.774   0.828  0.00  0.00    +0.008 C 
ATOM     25  C   UNL     1      -4.970   2.529   0.315  0.00  0.00    +0.037 C 
ATOM     26  C   UNL     1      -3.474   2.815   0.278  0.00  0.00    -0.023 A 
ATOM     27  C   UNL     1      -3.007   4.082   0.298  0.00  0.00    -0.004 A 
ATOM     28  S   UNL     1      -1.245   3.917   0.249  0.00  0.00    -0.077 S 
ATOM     29  C   UNL     1      -1.128   2.189   0.192  0.00  0.00    +0.084 A 
ATOM     30  C   UNL     1      -2.454   1.781   0.220  0.00  0.00    +0.068 A 
ATOM     31  C   UNL     1      -3.816   5.341   0.356  0.00  0.00    +0.046 C 
BRANCH  30  32
ATOM     32  C   UNL     1      -2.813   0.360   0.193  0.00  0.00    +0.244 C 
ATOM     33  O   UNL     1      -2.931  -0.258   1.234  0.00  0.00    -0.270 OA
ATOM     34  N   UNL     1      -3.013  -0.262  -0.986  0.00  0.00    -0.325 N 
ATOM     35  H   UNL     1      -2.919   0.231  -1.817  0.00  0.00    +0.145 HD
ATOM     36  H   UNL     1      -3.250  -1.202  -1.004  0.00  0.00    +0.145 HD
ENDBRANCH  30  32
ENDBRANCH  20  29
ENDBRANCH   1  20
TORSDOF 7
