REMARK  Name = ZINC59155929
REMARK  7 active torsions:
REMARK  status: ('A' for Active; 'I' for Inactive)
REMARK    1  A    between atoms: C_1  and  O_2
REMARK    2  A    between atoms: O_2  and  C_3
REMARK    3  A    between atoms: C_8  and  C_9
REMARK    4  A    between atoms: N_11  and  N_12
REMARK    5  A    between atoms: N_20  and  C_23
REMARK    6  A    between atoms: C_23  and  C_24
REMARK    7  A    between atoms: C_25  and  C_26
REMARK                            x       y       z     vdW  Elec       q    Type
REMARK                         _______ _______ _______ _____ _____    ______ ____
ROOT
ATOM      1  N   UNL     1       1.106  -4.931  -0.035  0.00  0.00    -0.174 NA
ATOM      2  C   UNL     1       1.047  -6.241  -0.041  0.00  0.00    +0.153 C 
ATOM      3  C   UNL     1       2.180  -7.195  -0.051  0.00  0.00    +0.028 A 
ATOM      4  C   UNL     1       3.561  -7.033  -0.057  0.00  0.00    +0.012 A 
ATOM      5  C   UNL     1       4.381  -8.144  -0.067  0.00  0.00    +0.001 A 
ATOM      6  C   UNL     1       3.829  -9.414  -0.071  0.00  0.00    +0.002 A 
ATOM      7  C   UNL     1       2.459  -9.585  -0.066  0.00  0.00    +0.024 A 
ATOM      8  C   UNL     1       1.618  -8.478  -0.055  0.00  0.00    +0.046 A 
ATOM      9  N   UNL     1       0.231  -8.372  -0.049  0.00  0.00    -0.262 N 
ATOM     10  C   UNL     1      -0.163  -7.087  -0.034  0.00  0.00    +0.272 C 
ATOM     11  O   UNL     1      -1.314  -6.691  -0.020  0.00  0.00    -0.268 OA
ENDROOT
BRANCH   1  14
ATOM     12  C   UNL     1      -0.014  -2.831  -0.013  0.00  0.00    +0.267 C 
ATOM     13  O   UNL     1       1.065  -2.271  -0.020  0.00  0.00    -0.268 OA
ATOM     14  N   UNL     1      -0.074  -4.177  -0.020  0.00  0.00    -0.202 N 
ATOM     15  H   UNL     1      -0.935  -4.624  -0.014  0.00  0.00    +0.178 HD
BRANCH  12  21
ATOM     16  C   UNL     1      -1.198  -0.636   0.010  0.00  0.00    +0.132 A 
ATOM     17  C   UNL     1      -2.373   0.100   0.019  0.00  0.00    +0.046 A 
ATOM     18  C   UNL     1      -3.594  -0.545   0.027  0.00  0.00    +0.004 A 
ATOM     19  C   UNL     1      -3.656  -1.929   0.026  0.00  0.00    +0.001 A 
ATOM     20  C   UNL     1      -2.499  -2.677   0.017  0.00  0.00    +0.017 A 
ATOM     21  C   UNL     1      -1.256  -2.037   0.003  0.00  0.00    +0.080 A 
BRANCH  16  23
ATOM     22  C   UNL     1      -0.017   1.425   0.010  0.00  0.00    +0.277 C 
ATOM     23  O   UNL     1       0.002  -0.004   0.002  0.00  0.00    -0.494 OA
ENDBRANCH  16  23
ENDBRANCH  12  21
ENDBRANCH   1  14
BRANCH   9  24
ATOM     24  C   UNL     1      -0.684  -9.516  -0.051  0.00  0.00    +0.141 C 
BRANCH  24  25
ATOM     25  C   UNL     1      -0.992  -9.916   1.369  0.00  0.00    -0.007 C 
ATOM     26  C   UNL     1      -2.250  -9.988   1.779  0.00  0.00    +0.005 C 
BRANCH  26  27
ATOM     27  C   UNL     1      -2.552 -10.381   3.172  0.00  0.00    -0.025 A 
ATOM     28  C   UNL     1      -1.514 -10.671   4.058  0.00  0.00    +0.008 A 
ATOM     29  C   UNL     1      -1.802 -11.037   5.357  0.00  0.00    +0.001 A 
ATOM     30  C   UNL     1      -3.117 -11.117   5.781  0.00  0.00    +0.000 A 
ATOM     31  C   UNL     1      -4.150 -10.832   4.906  0.00  0.00    +0.001 A 
ATOM     32  C   UNL     1      -3.875 -10.458   3.607  0.00  0.00    +0.008 A 
ENDBRANCH  26  27
ENDBRANCH  24  25
ENDBRANCH   9  24
TORSDOF 6
