REMARK  Name = ZINC05871349
REMARK  8 active torsions:
REMARK  status: ('A' for Active; 'I' for Inactive)
REMARK    1  A    between atoms: C_4  and  C_7
REMARK    2  A    between atoms: C_7  and  O_9
REMARK    3  A    between atoms: O_9  and  C_10
REMARK    4  A    between atoms: C_13  and  C_16
REMARK    5  A    between atoms: N_17  and  N_18
REMARK    6  A    between atoms: C_19  and  C_21
REMARK    7  A    between atoms: C_21  and  O_22
REMARK    8  A    between atoms: O_22  and  C_23
REMARK                            x       y       z     vdW  Elec       q    Type
REMARK                         _______ _______ _______ _____ _____    ______ ____
ROOT
ATOM      1  C   UNL     1       5.048   0.652   0.912  0.00  0.00    +0.132 A 
ATOM      2  C   UNL     1       4.860   2.022   0.773  0.00  0.00    +0.047 A 
ATOM      3  C   UNL     1       3.605   2.524   0.508  0.00  0.00    +0.013 A 
ATOM      4  C   UNL     1       2.519   1.653   0.379  0.00  0.00    -0.005 A 
ATOM      5  C   UNL     1       2.712   0.277   0.525  0.00  0.00    +0.013 A 
ATOM      6  C   UNL     1       3.972  -0.217   0.784  0.00  0.00    +0.047 A 
ENDROOT
BRANCH   4   7
ATOM      7  C   UNL     1       1.174   2.186   0.096  0.00  0.00    +0.138 C 
ATOM      8  N   UNL     1       1.031   3.417  -0.288  0.00  0.00    -0.188 NA
BRANCH   8   9
ATOM      9  N   UNL     1       2.109   4.100  -0.867  0.00  0.00    -0.204 N 
ATOM     10  C   UNL     1       1.999   5.412  -1.156  0.00  0.00    +0.270 C 
ATOM     11  O   UNL     1       0.967   6.002  -0.914  0.00  0.00    -0.270 OA
ATOM     12  H   UNL     1       2.934   3.628  -1.061  0.00  0.00    +0.177 HD
BRANCH  10  13
ATOM     13  C   UNL     1       3.158   6.146  -1.779  0.00  0.00    +0.326 C 
BRANCH  13  14
ATOM     14  O   UNL     1       2.799   7.513  -1.987  0.00  0.00    -0.483 OA
BRANCH  14  15
ATOM     15  C   UNL     1       3.739   8.320  -2.546  0.00  0.00    +0.123 A 
ATOM     16  C   UNL     1       4.984   7.807  -2.881  0.00  0.00    +0.046 A 
ATOM     17  C   UNL     1       5.936   8.627  -3.454  0.00  0.00    +0.005 A 
ATOM     18  C   UNL     1       5.655   9.961  -3.684  0.00  0.00    +0.020 A 
ATOM     19  C   UNL     1       4.416  10.477  -3.345  0.00  0.00    +0.044 A 
ATOM     20  C   UNL     1       3.458   9.659  -2.776  0.00  0.00    +0.065 A 
ATOM     21 CL   UNL     1       4.066  12.153  -3.634  0.00  0.00    -0.083 Cl
ENDBRANCH  14  15
ENDBRANCH  13  14
ENDBRANCH  10  13
ENDBRANCH   8   9
ENDBRANCH   4   7
BRANCH   1  22
ATOM     22  O   UNL     1       6.288   0.161   1.173  0.00  0.00    -0.422 OA
BRANCH  22  23
ATOM     23  C   UNL     1       6.821   0.455   2.375  0.00  0.00    +0.344 C 
ATOM     24  O   UNL     1       6.161   1.050   3.203  0.00  0.00    -0.245 OA
BRANCH  23  28
ATOM     25  C   UNL     1      10.807  -0.702   3.269  0.00  0.00    +0.000 A 
ATOM     26  C   UNL     1      10.059  -0.024   4.215  0.00  0.00    +0.001 A 
ATOM     27  C   UNL     1       8.763   0.355   3.931  0.00  0.00    +0.015 A 
ATOM     28  C   UNL     1       8.207   0.052   2.686  0.00  0.00    +0.059 A 
ATOM     29  C   UNL     1       8.967  -0.637   1.739  0.00  0.00    +0.015 A 
ATOM     30  C   UNL     1      10.263  -1.005   2.034  0.00  0.00    +0.001 A 
ENDBRANCH  23  28
ENDBRANCH  22  23
ENDBRANCH   1  22
TORSDOF 8
