REMARK  Name = ZINC66976802
REMARK  9 active torsions:
REMARK  status: ('A' for Active; 'I' for Inactive)
REMARK    1  A    between atoms: C_1  and  C_2
REMARK    2  A    between atoms: C_2  and  C_3
REMARK    3  A    between atoms: C_2  and  C_4
REMARK    4  A    between atoms: C_2  and  C_5
REMARK    5  A    between atoms: C_11  and  N_13
REMARK    6  A    between atoms: N_16  and  C_17
REMARK    7  A    between atoms: N_16  and  C_18
REMARK    8  A    between atoms: C_18  and  C_20
REMARK    9  A    between atoms: C_18  and  C_27
REMARK                            x       y       z     vdW  Elec       q    Type
REMARK                         _______ _______ _______ _____ _____    ______ ____
ROOT
ATOM      1  N   UNL     1       2.752  -1.742  -0.137  0.00  0.00    -0.296 N 
ATOM      2  C   UNL     1       4.006  -1.294   0.070  0.00  0.00    +0.303 C 
ATOM      3  O   UNL     1       4.497  -0.485  -0.694  0.00  0.00    -0.253 OA
ATOM      4  N   UNL     1       4.717  -1.743   1.124  0.00  0.00    -0.275 N 
ATOM      5  C   UNL     1       4.125  -2.717   2.044  0.00  0.00    +0.134 C 
ATOM      6  H   UNL     1       2.361  -2.387   0.472  0.00  0.00    +0.151 HD
ENDROOT
BRANCH   1  12
ATOM      7  C   UNL     1       0.489  -1.272  -0.939  0.00  0.00    +0.015 C 
ATOM      8  C   UNL     1      -0.317  -0.762  -2.135  0.00  0.00    +0.006 C 
ATOM      9  C   UNL     1      -0.061  -1.665  -3.344  0.00  0.00    +0.000 C 
ATOM     10  C   UNL     1       1.429  -1.647  -3.688  0.00  0.00    +0.002 C 
ATOM     11  C   UNL     1       2.236  -2.156  -2.492  0.00  0.00    +0.022 C 
ATOM     12  C   UNL     1       1.980  -1.254  -1.283  0.00  0.00    +0.078 C 
BRANCH   7  14
ATOM     13  C   UNL     1       0.822   1.018   0.004  0.00  0.00    +0.011 C 
ATOM     14  C   UNL     1       0.234  -0.369   0.270  0.00  0.00    -0.033 C 
ATOM     15  C   UNL     1       0.898  -0.975   1.508  0.00  0.00    +0.011 C 
ATOM     16  C   UNL     1      -1.272  -0.248   0.507  0.00  0.00    +0.011 C 
ENDBRANCH   7  14
ENDBRANCH   1  12
BRANCH   4  17
ATOM     17  C   UNL     1       6.080  -1.256   1.349  0.00  0.00    +0.175 C 
BRANCH  17  18
ATOM     18  C   UNL     1       6.183  -0.674   2.735  0.00  0.00    -0.019 A 
ATOM     19  C   UNL     1       7.374  -0.756   3.432  0.00  0.00    +0.009 A 
ATOM     20  C   UNL     1       7.470  -0.221   4.703  0.00  0.00    +0.038 A 
ATOM     21  C   UNL     1       6.372   0.397   5.278  0.00  0.00    +0.123 A 
ATOM     22  C   UNL     1       5.180   0.478   4.579  0.00  0.00    +0.038 A 
ATOM     23  C   UNL     1       5.088  -0.052   3.306  0.00  0.00    +0.009 A 
ATOM     24  F   UNL     1       6.464   0.919   6.520  0.00  0.00    -0.205 F 
ENDBRANCH  17  18
BRANCH  17  25
ATOM     25  C   UNL     1       7.051  -2.401   1.212  0.00  0.00    +0.154 A 
ATOM     26  N   UNL     1       6.769  -3.554   1.785  0.00  0.00    -0.238 NA
ATOM     27  C   UNL     1       7.597  -4.581   1.686  0.00  0.00    +0.114 A 
ATOM     28  C   UNL     1       8.773  -4.431   0.968  0.00  0.00    +0.039 A 
ATOM     29  C   UNL     1       9.035  -3.204   0.380  0.00  0.00    +0.114 A 
ATOM     30  N   UNL     1       8.157  -2.224   0.517  0.00  0.00    -0.238 NA
ENDBRANCH  17  25
ENDBRANCH   4  17
TORSDOF 5
