REMARK  Name = ZINC38837387
REMARK  11 active torsions:
REMARK  status: ('A' for Active; 'I' for Inactive)
REMARK    1  A    between atoms: C_1  and  C_2
REMARK    2  A    between atoms: C_2  and  N_3
REMARK    3  A    between atoms: N_3  and  C_4
REMARK    4  A    between atoms: N_3  and  C_6
REMARK    5  A    between atoms: C_4  and  C_5
REMARK    6  A    between atoms: C_6  and  C_7
REMARK    7  A    between atoms: C_7  and  N_8
REMARK    8  A    between atoms: C_12  and  C_19
REMARK    9  A    between atoms: C_20  and  C_22
REMARK   10  A    between atoms: C_22  and  S_23
REMARK   11  A    between atoms: S_23  and  C_26
REMARK                            x       y       z     vdW  Elec       q    Type
REMARK                         _______ _______ _______ _____ _____    ______ ____
ROOT
ATOM      1  N   UNL     1       1.366  -4.013  -2.696  0.00  0.00    -0.251 N 
ATOM      2  C   UNL     1       0.364  -4.556  -3.484  0.00  0.00    +0.168 A 
ATOM      3  N   UNL     1       0.084  -5.819  -3.705  0.00  0.00    -0.224 NA
ATOM      4  C   UNL     1      -0.934  -6.208  -4.504  0.00  0.00    +0.083 A 
ATOM      5  C   UNL     1      -1.338  -7.525  -4.824  0.00  0.00    -0.023 A 
ATOM      6  C   UNL     1      -2.401  -7.748  -5.659  0.00  0.00    +0.025 A 
ATOM      7  C   UNL     1      -3.116  -6.698  -6.220  0.00  0.00    +0.042 A 
ATOM      8  C   UNL     1      -2.748  -5.397  -5.928  0.00  0.00    +0.037 A 
ATOM      9  C   UNL     1      -1.684  -5.165  -5.091  0.00  0.00    +0.042 A 
ATOM     10  S   UNL     1      -0.882  -3.715  -4.451  0.00  0.00    -0.052 S 
ATOM     11 CL   UNL     1      -4.457  -7.015  -7.276  0.00  0.00    -0.083 Cl
ATOM     12  C   UNL     1      -0.591  -8.697  -4.239  0.00  0.00    +0.046 C 
ATOM     13  C   UNL     1       2.217  -4.823  -2.036  0.00  0.00    +0.243 C 
ATOM     14  O   UNL     1       2.106  -6.027  -2.131  0.00  0.00    -0.273 OA
ENDROOT
BRANCH   1  15
ATOM     15  C   UNL     1       1.500  -2.559  -2.581  0.00  0.00    +0.097 C 
BRANCH  15  16
ATOM     16  C   UNL     1       0.658  -2.061  -1.405  0.00  0.00    -0.059 C 
BRANCH  16  17
ATOM     17  N   UNL     1       0.888  -0.623  -1.212  0.00  0.00    +0.380 N 
ATOM     18  H   UNL     1       1.877  -0.452  -1.102  0.00  0.00    -0.082 HD
BRANCH  17  20
ATOM     19  C   UNL     1       0.743   1.596  -2.238  0.00  0.00    -0.017 C 
ATOM     20  C   UNL     1       0.392   0.114  -2.382  0.00  0.00    -0.082 C 
ENDBRANCH  17  20
BRANCH  17  21
ATOM     21  C   UNL     1       0.176  -0.169  -0.010  0.00  0.00    -0.082 C 
ATOM     22  C   UNL     1       0.799  -0.819   1.228  0.00  0.00    -0.017 C 
ENDBRANCH  17  21
ENDBRANCH  16  17
ENDBRANCH  15  16
ENDBRANCH   1  15
BRANCH  13  23
ATOM     23  C   UNL     1       3.307  -4.232  -1.179  0.00  0.00    +0.267 C 
BRANCH  23  24
ATOM     24  S   UNL     1       4.278  -5.569  -0.429  0.00  0.00    +0.005 S 
ATOM     25  O   UNL     1       3.487  -6.278   0.515  0.00  0.00    -0.169 OA
ATOM     26  O   UNL     1       5.008  -6.264  -1.430  0.00  0.00    -0.169 OA
BRANCH  24  27
ATOM     27  C   UNL     1       5.504  -4.751   0.536  0.00  0.00    +0.089 A 
ATOM     28  C   UNL     1       6.721  -4.419  -0.030  0.00  0.00    +0.028 A 
ATOM     29  C   UNL     1       7.683  -3.777   0.727  0.00  0.00    +0.022 A 
ATOM     30  C   UNL     1       7.429  -3.468   2.051  0.00  0.00    +0.041 A 
ATOM     31  C   UNL     1       6.211  -3.800   2.617  0.00  0.00    +0.022 A 
ATOM     32  C   UNL     1       5.247  -4.437   1.858  0.00  0.00    +0.028 A 
ATOM     33 CL   UNL     1       8.638  -2.662   3.002  0.00  0.00    -0.084 Cl
ENDBRANCH  24  27
ENDBRANCH  23  24
ENDBRANCH  13  23
TORSDOF 8
