REMARK  Name = ZINC40755125
REMARK  8 active torsions:
REMARK  status: ('A' for Active; 'I' for Inactive)
REMARK    1  A    between atoms: C_1  and  C_2
REMARK    2  A    between atoms: C_5  and  C_8
REMARK    3  A    between atoms: C_8  and  N_9
REMARK    4  A    between atoms: C_11  and  N_25
REMARK    5  A    between atoms: C_12  and  N_16
REMARK    6  A    between atoms: N_16  and  C_17
REMARK    7  A    between atoms: C_21  and  C_24
REMARK    8  A    between atoms: C_22  and  C_23
REMARK                            x       y       z     vdW  Elec       q    Type
REMARK                         _______ _______ _______ _____ _____    ______ ____
ROOT
ATOM      1  N   UNL     1       1.449  -4.745   0.023  0.00  0.00    -0.323 N 
ATOM      2  C   UNL     1       1.720  -6.108  -0.006  0.00  0.00    +0.145 A 
ATOM      3  C   UNL     1       3.038  -6.569  -0.017  0.00  0.00    +0.105 A 
ATOM      4  C   UNL     1       3.254  -7.947  -0.046  0.00  0.00    +0.149 A 
ATOM      5  N   UNL     1       2.203  -8.764  -0.063  0.00  0.00    -0.219 NA
ATOM      6  C   UNL     1       0.974  -8.288  -0.052  0.00  0.00    +0.225 A 
ATOM      7  N   UNL     1       0.727  -6.994  -0.019  0.00  0.00    -0.219 NA
ATOM      8  H   UNL     1       2.178  -4.106   0.032  0.00  0.00    +0.148 HD
ENDROOT
BRANCH   3   9
ATOM      9  N   UNL     1       4.116  -5.670   0.001  0.00  0.00    -0.353 N 
ATOM     10  H   UNL     1       3.951  -4.714   0.021  0.00  0.00    +0.143 HD
ATOM     11  H   UNL     1       5.027  -6.005  -0.006  0.00  0.00    +0.143 HD
ENDBRANCH   3   9
BRANCH   4  12
ATOM     12  N   UNL     1       4.546  -8.459  -0.059  0.00  0.00    -0.298 N 
ATOM     13  H   UNL     1       5.305  -7.860  -0.134  0.00  0.00    +0.154 HD
BRANCH  12  14
ATOM     14  C   UNL     1       4.753  -9.838   0.038  0.00  0.00    +0.036 A 
ATOM     15  C   UNL     1       3.795 -10.645   0.640  0.00  0.00    +0.023 A 
ATOM     16  C   UNL     1       4.002 -12.007   0.734  0.00  0.00    +0.002 A 
ATOM     17  C   UNL     1       5.161 -12.568   0.230  0.00  0.00    +0.004 A 
ATOM     18  C   UNL     1       6.116 -11.768  -0.370  0.00  0.00    -0.046 A 
ATOM     19  C   UNL     1       5.913 -10.406  -0.473  0.00  0.00    -0.026 A 
ATOM     20  C   UNL     1       6.951  -9.536  -1.133  0.00  0.00    +0.046 C 
ATOM     21  C   UNL     1       7.378 -12.384  -0.917  0.00  0.00    +0.044 C 
ENDBRANCH  12  14
ENDBRANCH   4  12
BRANCH   1  22
ATOM     22  C   UNL     1       0.062  -4.274   0.040  0.00  0.00    +0.138 C 
BRANCH  22  27
ATOM     23  C   UNL     1      -0.013   1.503   0.158  0.00  0.00    +0.044 C 
ATOM     24  C   UNL     1       0.006  -0.004   0.127  0.00  0.00    -0.050 A 
ATOM     25  C   UNL     1       0.010  -0.670  -1.084  0.00  0.00    +0.003 A 
ATOM     26  C   UNL     1       0.028  -2.052  -1.112  0.00  0.00    +0.005 A 
ATOM     27  C   UNL     1       0.043  -2.767   0.071  0.00  0.00    -0.030 A 
ATOM     28  C   UNL     1       0.040  -2.101   1.282  0.00  0.00    +0.005 A 
ATOM     29  C   UNL     1       0.027  -0.719   1.310  0.00  0.00    +0.003 A 
ENDBRANCH  22  27
ENDBRANCH   1  22
TORSDOF 5
