REMARK  Name = ZINC02973461
REMARK  11 active torsions:
REMARK  status: ('A' for Active; 'I' for Inactive)
REMARK    1  A    between atoms: C_4  and  C_7
REMARK    2  A    between atoms: C_7  and  C_8
REMARK    3  A    between atoms: C_8  and  N_9
REMARK    4  A    between atoms: C_10  and  C_12
REMARK    5  A    between atoms: C_12  and  C_13
REMARK    6  A    between atoms: C_13  and  C_14
REMARK    7  A    between atoms: C_14  and  N_15
REMARK    8  A    between atoms: C_25  and  S_26
REMARK    9  A    between atoms: S_26  and  C_27
REMARK   10  A    between atoms: C_27  and  C_28
REMARK   11  A    between atoms: C_32  and  N_34
REMARK                            x       y       z     vdW  Elec       q    Type
REMARK                         _______ _______ _______ _____ _____    ______ ____
ROOT
ATOM      1  N   UNL     1      -0.138   8.540  -2.448  0.00  0.00    -0.287 N 
ATOM      2  C   UNL     1      -0.154   9.880  -2.266  0.00  0.00    +0.262 A 
ATOM      3  O   UNL     1      -0.173  10.647  -3.211  0.00  0.00    -0.267 OA
ATOM      4  C   UNL     1      -0.148  10.377  -0.883  0.00  0.00    +0.065 A 
ATOM      5  C   UNL     1      -0.165  11.739  -0.589  0.00  0.00    +0.015 A 
ATOM      6  C   UNL     1      -0.159  12.147   0.716  0.00  0.00    +0.001 A 
ATOM      7  C   UNL     1      -0.137  11.220   1.750  0.00  0.00    +0.002 A 
ATOM      8  C   UNL     1      -0.120   9.878   1.490  0.00  0.00    +0.028 A 
ATOM      9  C   UNL     1      -0.126   9.430   0.166  0.00  0.00    +0.079 A 
ATOM     10  N   UNL     1      -0.115   8.115  -0.135  0.00  0.00    -0.223 NA
ATOM     11  C   UNL     1      -0.116   7.695  -1.375  0.00  0.00    +0.172 A 
ENDROOT
BRANCH   1  12
ATOM     12  C   UNL     1      -0.142   7.990  -3.807  0.00  0.00    +0.128 C 
BRANCH  12  13
ATOM     13  C   UNL     1      -1.586   7.779  -4.266  0.00  0.00    +0.031 C 
BRANCH  13  14
ATOM     14  C   UNL     1      -1.591   7.206  -5.684  0.00  0.00    +0.097 C 
BRANCH  14  16
ATOM     15  N   UNL     1      -3.264   6.497  -7.363  0.00  0.00    -0.315 N 
ATOM     16  C   UNL     1      -3.014   6.997  -6.137  0.00  0.00    +0.213 C 
ATOM     17  O   UNL     1      -3.933   7.280  -5.398  0.00  0.00    -0.276 OA
ATOM     18  H   UNL     1      -2.431   6.241  -8.034  0.00  0.00    +0.149 HD
BRANCH  15  19
ATOM     19  C   UNL     1      -4.647   6.295  -7.803  0.00  0.00    +0.109 C 
BRANCH  19  20
ATOM     20  C   UNL     1      -4.652   5.721  -9.222  0.00  0.00    +0.054 C 
BRANCH  20  24
ATOM     21  C   UNL     1      -8.684   5.131 -10.505  0.00  0.00    +0.000 A 
ATOM     22  C   UNL     1      -8.051   6.337 -10.746  0.00  0.00    +0.000 A 
ATOM     23  C   UNL     1      -6.746   6.528 -10.330  0.00  0.00    +0.004 A 
ATOM     24  C   UNL     1      -6.074   5.513  -9.674  0.00  0.00    -0.046 A 
ATOM     25  C   UNL     1      -6.705   4.306  -9.438  0.00  0.00    +0.004 A 
ATOM     26  C   UNL     1      -8.011   4.117  -9.849  0.00  0.00    +0.000 A 
ENDBRANCH  20  24
ENDBRANCH  19  20
ENDBRANCH  15  19
ENDBRANCH  14  16
ENDBRANCH  13  14
ENDBRANCH  12  13
ENDBRANCH   1  12
BRANCH  11  27
ATOM     27  S   UNL     1      -0.095   5.958  -1.674  0.00  0.00    -0.083 S 
BRANCH  27  28
ATOM     28  C   UNL     1      -0.070   5.347   0.030  0.00  0.00    +0.112 C 
BRANCH  28  29
ATOM     29  C   UNL     1      -0.050   3.840   0.022  0.00  0.00    -0.035 A 
ATOM     30  C   UNL     1       1.157   3.165   0.008  0.00  0.00    +0.004 A 
ATOM     31  C   UNL     1       1.175   1.783   0.000  0.00  0.00    +0.003 A 
ATOM     32  C   UNL     1      -0.013   1.076   0.008  0.00  0.00    +0.033 A 
ATOM     33  C   UNL     1      -1.219   1.750   0.017  0.00  0.00    +0.126 A 
ATOM     34  C   UNL     1      -1.238   3.133   0.030  0.00  0.00    +0.037 A 
BRANCH  33  35
ATOM     35  N   UNL     1      -2.490   0.993   0.019  0.00  0.00    +0.056 N 
ATOM     36  O   UNL     1      -2.474  -0.225   0.013  0.00  0.00    -0.126 OA
ATOM     37  O   UNL     1      -3.554   1.588   0.028  0.00  0.00    -0.126 OA
ENDBRANCH  33  35
ENDBRANCH  28  29
ENDBRANCH  27  28
ENDBRANCH  11  27
TORSDOF 11
