REMARK  Name = ZINC19339164
REMARK  3 active torsions:
REMARK  status: ('A' for Active; 'I' for Inactive)
REMARK    1  A    between atoms: C_1  and  C_2
REMARK    2  A    between atoms: C_6  and  N_8
REMARK    3  A    between atoms: C_21  and  C_23
REMARK                            x       y       z     vdW  Elec       q    Type
REMARK                         _______ _______ _______ _____ _____    ______ ____
ROOT
ATOM      1  N   UNL     1       0.052  -2.791   2.364  0.00  0.00    -0.219 NA
ATOM      2  C   UNL     1      -0.736  -3.827   2.525  0.00  0.00    +0.189 C 
ATOM      3  N   UNL     1      -0.769  -4.568   3.700  0.00  0.00    -0.281 N 
ATOM      4  C   UNL     1      -0.709  -6.026   3.546  0.00  0.00    +0.235 C 
ATOM      5  C   UNL     1       0.726  -6.479   3.442  0.00  0.00    +0.029 A 
ATOM      6  C   UNL     1       1.730  -6.221   2.537  0.00  0.00    +0.010 A 
ATOM      7  C   UNL     1       2.978  -6.794   2.707  0.00  0.00    +0.001 A 
ATOM      8  C   UNL     1       3.211  -7.625   3.788  0.00  0.00    +0.002 A 
ATOM      9  C   UNL     1       2.207  -7.886   4.696  0.00  0.00    +0.024 A 
ATOM     10  C   UNL     1       0.948  -7.313   4.531  0.00  0.00    +0.052 A 
ATOM     11  N   UNL     1      -0.215  -7.422   5.301  0.00  0.00    -0.207 N 
ATOM     12  C   UNL     1      -1.229  -6.700   4.793  0.00  0.00    +0.277 C 
ATOM     13  O   UNL     1      -2.349  -6.608   5.248  0.00  0.00    -0.270 OA
ATOM     14  C   UNL     1      -0.307  -8.164   6.423  0.00  0.00    +0.223 C 
ATOM     15  O   UNL     1       0.654  -8.787   6.818  0.00  0.00    -0.275 OA
ATOM     16  C   UNL     1      -1.606  -8.218   7.185  0.00  0.00    +0.110 C 
ATOM     17  N   UNL     1      -1.469  -6.448   2.377  0.00  0.00    -0.216 NA
ATOM     18  C   UNL     1      -1.855  -5.625   1.453  0.00  0.00    +0.182 C 
ATOM     19  N   UNL     1      -1.607  -4.266   1.535  0.00  0.00    -0.260 N 
ATOM     20  N   UNL     1      -2.533  -6.115   0.363  0.00  0.00    -0.331 N 
ATOM     21  H   UNL     1      -2.025  -3.640   0.922  0.00  0.00    +0.157 HD
ATOM     22  H   UNL     1      -2.717  -7.065   0.293  0.00  0.00    +0.145 HD
ATOM     23  H   UNL     1      -2.828  -5.511  -0.337  0.00  0.00    +0.145 HD
ATOM     24  H   UNL     1      -0.828  -4.146   4.571  0.00  0.00    +0.152 HD
ENDROOT
BRANCH   1  30
ATOM     25  C   UNL     1      -0.018   1.503   0.010  0.00  0.00    +0.044 C 
ATOM     26  C   UNL     1       0.002  -0.004   0.002  0.00  0.00    -0.048 A 
ATOM     27  C   UNL     1       0.006  -0.688  -1.201  0.00  0.00    +0.003 A 
ATOM     28  C   UNL     1       0.025  -2.071  -1.218  0.00  0.00    +0.002 A 
ATOM     29  C   UNL     1       0.041  -2.778  -0.033  0.00  0.00    +0.028 A 
ATOM     30  C   UNL     1       0.037  -2.095   1.184  0.00  0.00    +0.067 A 
ATOM     31  C   UNL     1       0.023  -0.699   1.194  0.00  0.00    +0.031 A 
ENDBRANCH   1  30
TORSDOF 1
