REMARK  Name = ZINC12654732
REMARK  11 active torsions:
REMARK  status: ('A' for Active; 'I' for Inactive)
REMARK    1  A    between atoms: C_1  and  C_2
REMARK    2  A    between atoms: C_3  and  C_31
REMARK    3  A    between atoms: C_9  and  C_30
REMARK    4  A    between atoms: C_22  and  C_29
REMARK    5  A    between atoms: C_25  and  O_28
REMARK    6  A    between atoms: C_31  and  C_32
REMARK    7  A    between atoms: C_32  and  C_33
REMARK    8  A    between atoms: C_33  and  C_35
REMARK    9  A    between atoms: C_33  and  C_36
REMARK   10  A    between atoms: C_36  and  N_37
REMARK   11  A    between atoms: C_38  and  C_40
REMARK                            x       y       z     vdW  Elec       q    Type
REMARK                         _______ _______ _______ _____ _____    ______ ____
ROOT
ATOM      1  C   UNL     1       4.257   4.495  -3.867  0.00  0.00    +0.043 C 
ATOM      2  C   UNL     1       4.436   3.591  -2.675  0.00  0.00    -0.028 C 
ATOM      3  C   UNL     1       5.492   2.811  -2.394  0.00  0.00    +0.098 C 
ATOM      4  O   UNL     1       5.328   2.144  -1.189  0.00  0.00    -0.493 OA
ATOM      5  C   UNL     1       4.553   3.025  -0.444  0.00  0.00    +0.181 C 
ATOM      6  C   UNL     1       3.481   3.370  -1.558  0.00  0.00    +0.065 C 
ATOM      7  C   UNL     1       2.758   4.475  -0.824  0.00  0.00    -0.019 C 
ATOM      8  C   UNL     1       1.540   4.991  -1.530  0.00  0.00    +0.008 C 
ATOM      9  C   UNL     1       0.336   4.064  -1.409  0.00  0.00    +0.005 C 
ATOM     10  C   UNL     1       0.058   3.830   0.079  0.00  0.00    +0.003 C 
ATOM     11  C   UNL     1       1.236   3.075   0.677  0.00  0.00    +0.000 C 
ATOM     12  C   UNL     1       2.521   3.875   0.550  0.00  0.00    +0.003 C 
ATOM     13  C   UNL     1       3.705   2.845   0.768  0.00  0.00    +0.049 C 
ATOM     14  C   UNL     1       1.388   1.742  -0.065  0.00  0.00    +0.031 C 
ATOM     15  C   UNL     1       0.088   0.993  -0.005  0.00  0.00    -0.027 C 
ATOM     16  C   UNL     1      -1.066   1.579   0.129  0.00  0.00    -0.065 C 
ATOM     17  C   UNL     1      -1.238   3.064   0.260  0.00  0.00    -0.008 C 
ATOM     18  C   UNL     1      -2.284   3.543  -0.751  0.00  0.00    +0.014 C 
ATOM     19  C   UNL     1      -3.571   2.744  -0.581  0.00  0.00    +0.032 C 
ATOM     20  C   UNL     1      -3.308   1.266  -0.871  0.00  0.00    +0.119 C 
ATOM     21  C   UNL     1      -2.314   0.713   0.156  0.00  0.00    +0.062 C 
ATOM     22  C   UNL     1      -1.770   3.350   1.666  0.00  0.00    +0.016 C 
ATOM     23  C   UNL     1       3.736   5.640  -0.651  0.00  0.00    +0.012 C 
ENDROOT
BRANCH  20  24
ATOM     24  O   UNL     1      -4.534   0.537  -0.786  0.00  0.00    -0.391 OA
ATOM     25  H   UNL     1      -4.442  -0.410  -0.959  0.00  0.00    +0.210 HD
ENDBRANCH  20  24
BRANCH   3  26
ATOM     26  C   UNL     1       6.705   2.676  -3.278  0.00  0.00    +0.074 C 
BRANCH  26  27
ATOM     27  C   UNL     1       7.791   3.644  -2.805  0.00  0.00    +0.012 C 
BRANCH  27  28
ATOM     28  C   UNL     1       9.023   3.508  -3.703  0.00  0.00    +0.003 C 
ATOM     29  C   UNL     1       8.671   3.957  -5.122  0.00  0.00    +0.009 C 
BRANCH  28  30
ATOM     30  C   UNL     1      10.152   4.384  -3.156  0.00  0.00    +0.107 C 
BRANCH  30  31
ATOM     31  N   UNL     1      11.367   4.162  -3.944  0.00  0.00    -0.315 N 
ATOM     32  C   UNL     1      12.497   4.832  -3.642  0.00  0.00    +0.210 C 
ATOM     33  O   UNL     1      12.508   5.617  -2.718  0.00  0.00    -0.276 OA
ATOM     34  C   UNL     1      13.747   4.604  -4.453  0.00  0.00    +0.109 C 
ATOM     35  H   UNL     1      11.357   3.534  -4.683  0.00  0.00    +0.149 HD
ENDBRANCH  30  31
ENDBRANCH  28  30
ENDBRANCH  27  28
ENDBRANCH  26  27
ENDBRANCH   3  26
TORSDOF 6
