REMARK  Name = ZINC64697824
REMARK  8 active torsions:
REMARK  status: ('A' for Active; 'I' for Inactive)
REMARK    1  A    between atoms: C_1  and  C_2
REMARK    2  A    between atoms: N_4  and  C_5
REMARK    3  A    between atoms: C_5  and  C_7
REMARK    4  A    between atoms: C_5  and  C_17
REMARK    5  A    between atoms: C_7  and  C_8
REMARK    6  A    between atoms: N_19  and  N_20
REMARK    7  A    between atoms: C_21  and  C_23
REMARK    8  A    between atoms: C_26  and  C_28
REMARK                            x       y       z     vdW  Elec       q    Type
REMARK                         _______ _______ _______ _____ _____    ______ ____
ROOT
ATOM      1  C   UNL     1      -0.407  -2.658   1.222  0.00  0.00    +0.250 C 
ATOM      2  O   UNL     1       0.350  -1.922   1.819  0.00  0.00    -0.272 OA
ATOM      3  N   UNL     1      -0.597  -3.922   1.651  0.00  0.00    -0.233 N 
ATOM      4  H   UNL     1      -1.202  -4.510   1.173  0.00  0.00    +0.173 HD
ENDROOT
BRANCH   3   5
ATOM      5  N   UNL     1       0.081  -4.386   2.785  0.00  0.00    -0.230 N 
ATOM      6  C   UNL     1      -0.109  -5.649   3.214  0.00  0.00    +0.267 C 
ATOM      7  O   UNL     1      -0.869  -6.388   2.614  0.00  0.00    -0.268 OA
ATOM      8  H   UNL     1       0.686  -3.797   3.263  0.00  0.00    +0.173 HD
BRANCH   6   9
ATOM      9  C   UNL     1       0.600  -6.135   4.400  0.00  0.00    +0.076 A 
ATOM     10  C   UNL     1       0.549  -7.387   4.995  0.00  0.00    +0.021 A 
ATOM     11  C   UNL     1       1.306  -7.616   6.109  0.00  0.00    +0.017 A 
ATOM     12  C   UNL     1       2.094  -6.588   6.602  0.00  0.00    +0.020 A 
ATOM     13  S   UNL     1       1.756  -5.268   5.449  0.00  0.00    -0.084 S 
BRANCH  12  14
ATOM     14  C   UNL     1       2.989  -6.588   7.778  0.00  0.00    -0.011 A 
ATOM     15  C   UNL     1       3.126  -7.739   8.555  0.00  0.00    +0.012 A 
ATOM     16  C   UNL     1       3.963  -7.733   9.651  0.00  0.00    +0.039 A 
ATOM     17  C   UNL     1       4.667  -6.586   9.981  0.00  0.00    +0.123 A 
ATOM     18  C   UNL     1       4.535  -5.440   9.213  0.00  0.00    +0.039 A 
ATOM     19  C   UNL     1       3.705  -5.437   8.112  0.00  0.00    +0.012 A 
ATOM     20  F   UNL     1       5.486  -6.585  11.056  0.00  0.00    -0.205 F 
ENDBRANCH  12  14
ENDBRANCH   6   9
ENDBRANCH   3   5
BRANCH   1  21
ATOM     21  C   UNL     1      -1.136  -2.159   0.001  0.00  0.00    +0.164 C 
BRANCH  21  25
ATOM     22  C   UNL     1      -0.018   1.503   0.010  0.00  0.00    +0.109 C 
ATOM     23  C   UNL     1       0.002  -0.004   0.002  0.00  0.00    +0.211 C 
ATOM     24  O   UNL     1       1.060  -0.596  -0.011  0.00  0.00    -0.276 OA
ATOM     25  N   UNL     1      -1.156  -0.694   0.009  0.00  0.00    -0.304 N 
ATOM     26  H   UNL     1      -2.002  -0.220   0.020  0.00  0.00    +0.149 HD
ENDBRANCH  21  25
BRANCH  21  27
ATOM     27  C   UNL     1      -0.420  -2.652  -1.258  0.00  0.00    +0.065 C 
BRANCH  27  28
ATOM     28  C   UNL     1      -1.215  -2.257  -2.475  0.00  0.00    -0.039 C 
ATOM     29  C   UNL     1      -1.033  -1.160  -3.245  0.00  0.00    -0.001 A 
ATOM     30  C   UNL     1      -0.077  -0.048  -3.181  0.00  0.00    +0.010 A 
ATOM     31  C   UNL     1      -0.143   0.928  -4.115  0.00  0.00    +0.001 A 
ATOM     32  C   UNL     1      -1.099   0.905  -5.139  0.00  0.00    +0.002 A 
ATOM     33  C   UNL     1      -2.010  -0.084  -5.264  0.00  0.00    +0.026 A 
ATOM     34  C   UNL     1      -2.033  -1.162  -4.337  0.00  0.00    +0.043 A 
ATOM     35  N   UNL     1      -2.803  -2.219  -4.246  0.00  0.00    -0.380 N 
ATOM     36  C   UNL     1      -2.374  -3.011  -3.088  0.00  0.00    +0.144 C 
ATOM     37  H   UNL     1      -3.532  -2.442  -4.846  0.00  0.00    +0.160 HD
ENDBRANCH  27  28
ENDBRANCH  21  27
ENDBRANCH   1  21
TORSDOF 7
