REMARK  Name = ZINC38619387
REMARK  13 active torsions:
REMARK  status: ('A' for Active; 'I' for Inactive)
REMARK    1  A    between atoms: C_1  and  C_2
REMARK    2  A    between atoms: C_2  and  C_3
REMARK    3  A    between atoms: C_3  and  O_4
REMARK    4  A    between atoms: O_4  and  C_5
REMARK    5  A    between atoms: C_8  and  S_11
REMARK    6  A    between atoms: S_11  and  N_14
REMARK    7  A    between atoms: N_14  and  C_15
REMARK    8  A    between atoms: C_15  and  C_16
REMARK    9  A    between atoms: C_16  and  C_18
REMARK   10  A    between atoms: C_16  and  N_23
REMARK   11  A    between atoms: N_26  and  C_29
REMARK   12  A    between atoms: C_32  and  O_35
REMARK   13  A    between atoms: O_35  and  C_36
REMARK                            x       y       z     vdW  Elec       q    Type
REMARK                         _______ _______ _______ _____ _____    ______ ____
ROOT
ATOM      1  C   UNL     1       6.789  -5.963  -4.420  0.00  0.00    +0.139 C 
ENDROOT
BRANCH   1   2
ATOM      2  N   UNL     1       7.125  -6.497  -5.747  0.00  0.00    -0.289 NA
ATOM      3  C   UNL     1       6.385  -7.736  -6.019  0.00  0.00    +0.104 C 
ATOM      4  C   UNL     1       6.622  -8.161  -7.472  0.00  0.00    +0.120 C 
ATOM      5  N   UNL     1       8.072  -8.239  -7.705  0.00  0.00    -0.327 N 
ATOM      6  C   UNL     1       8.900  -7.084  -7.329  0.00  0.00    +0.120 C 
ATOM      7  C   UNL     1       8.573  -6.701  -5.881  0.00  0.00    +0.104 C 
BRANCH   5   8
ATOM      8  C   UNL     1       8.648  -9.382  -8.270  0.00  0.00    +0.030 A 
ATOM      9  C   UNL     1       7.868 -10.505  -8.514  0.00  0.00    +0.027 A 
ATOM     10  C   UNL     1       8.437 -11.633  -9.072  0.00  0.00    +0.047 A 
ATOM     11  C   UNL     1       9.787 -11.644  -9.389  0.00  0.00    +0.120 A 
ATOM     12  C   UNL     1      10.567 -10.524  -9.144  0.00  0.00    +0.047 A 
ATOM     13  C   UNL     1       9.998  -9.393  -8.592  0.00  0.00    +0.027 A 
BRANCH  11  14
ATOM     14  O   UNL     1      10.347 -12.755  -9.938  0.00  0.00    -0.495 OA
ATOM     15  C   UNL     1      11.743 -12.698 -10.238  0.00  0.00    +0.277 C 
ENDBRANCH  11  14
ENDBRANCH   5   8
ENDBRANCH   1   2
BRANCH   1  16
ATOM     16  C   UNL     1       7.128  -6.986  -3.367  0.00  0.00    +0.123 A 
ATOM     17  C   UNL     1       7.676  -6.726  -2.166  0.00  0.00    +0.046 A 
ATOM     18  C   UNL     1       7.821  -7.968  -1.505  0.00  0.00    +0.041 A 
ATOM     19  C   UNL     1       7.353  -8.911  -2.341  0.00  0.00    +0.195 A 
ATOM     20  O   UNL     1       6.929  -8.310  -3.465  0.00  0.00    -0.466 OA
ENDBRANCH   1  16
BRANCH   1  21
ATOM     21  C   UNL     1       5.293  -5.647  -4.361  0.00  0.00    +0.132 C 
BRANCH  21  22
ATOM     22  N   UNL     1       4.941  -4.744  -5.460  0.00  0.00    -0.188 NA
ATOM     23  H   UNL     1       5.639  -4.275  -5.945  0.00  0.00    +0.148 HD
BRANCH  22  24
ATOM     24  S   UNL     1       3.353  -4.525  -5.875  0.00  0.00    +0.058 S 
ATOM     25  O   UNL     1       2.781  -5.820  -5.992  0.00  0.00    -0.153 OA
ATOM     26  O   UNL     1       3.338  -3.586  -6.942  0.00  0.00    -0.153 OA
BRANCH  24  30
ATOM     27  C   UNL     1       1.316  -2.523  -2.361  0.00  0.00    +0.121 A 
ATOM     28  C   UNL     1       1.897  -1.753  -3.358  0.00  0.00    +0.047 A 
ATOM     29  C   UNL     1       2.518  -2.366  -4.429  0.00  0.00    +0.032 A 
ATOM     30  C   UNL     1       2.561  -3.746  -4.508  0.00  0.00    +0.105 A 
ATOM     31  C   UNL     1       1.982  -4.516  -3.515  0.00  0.00    +0.032 A 
ATOM     32  C   UNL     1       1.365  -3.907  -2.439  0.00  0.00    +0.047 A 
BRANCH  27  33
ATOM     33  O   UNL     1       0.705  -1.922  -1.306  0.00  0.00    -0.492 OA
BRANCH  33  34
ATOM     34  C   UNL     1       0.692  -0.493  -1.292  0.00  0.00    +0.229 C 
BRANCH  34  36
ATOM     35  C   UNL     1      -0.047   1.527  -0.021  0.00  0.00    +0.007 C 
ATOM     36  C   UNL     1      -0.034  -0.003  -0.037  0.00  0.00    +0.038 C 
ENDBRANCH  34  36
ENDBRANCH  33  34
ENDBRANCH  27  33
ENDBRANCH  24  30
ENDBRANCH  22  24
ENDBRANCH  21  22
ENDBRANCH   1  21
TORSDOF 11
