REMARK  Name = ZINC08868724
REMARK  8 active torsions:
REMARK  status: ('A' for Active; 'I' for Inactive)
REMARK    1  A    between atoms: C_1  and  C_2
REMARK    2  A    between atoms: C_2  and  N_60
REMARK    3  A    between atoms: C_8  and  N_13
REMARK    4  A    between atoms: C_9  and  C_10
REMARK    5  A    between atoms: C_14  and  C_16
REMARK    6  A    between atoms: N_21  and  S_22
REMARK    7  A    between atoms: S_22  and  C_25
REMARK    8  A    between atoms: C_28  and  C_31
REMARK                            x       y       z     vdW  Elec       q    Type
REMARK                         _______ _______ _______ _____ _____    ______ ____
ROOT
ATOM      1  N   UNL     1       7.431   0.789  -2.445  0.00  0.00    -0.278 N 
ATOM      2  C   UNL     1       6.503   1.561  -1.844  0.00  0.00    +0.236 C 
ATOM      3  O   UNL     1       6.778   2.159  -0.826  0.00  0.00    -0.274 OA
ATOM      4  H   UNL     1       7.210   0.311  -3.259  0.00  0.00    +0.155 HD
ENDROOT
BRANCH   1  10
ATOM      5  C   UNL     1      13.451  -0.095  -1.198  0.00  0.00    -0.074 C 
ATOM      6  C   UNL     1      12.292  -0.740  -1.964  0.00  0.00    +0.018 C 
ATOM      7  C   UNL     1      11.011  -0.000  -1.599  0.00  0.00    -0.027 A 
ATOM      8  C   UNL     1      10.968   0.779  -0.494  0.00  0.00    -0.021 A 
ATOM      9  S   UNL     1       9.327   1.437  -0.470  0.00  0.00    -0.079 S 
ATOM     10  C   UNL     1       8.700   0.680  -1.898  0.00  0.00    +0.084 A 
ATOM     11  C   UNL     1       9.780  -0.058  -2.365  0.00  0.00    +0.068 A 
ATOM     12  C   UNL     1      12.088   1.014   0.471  0.00  0.00    -0.035 C 
ATOM     13  N   UNL     1      13.113  -0.032   0.239  0.00  0.00    +0.383 N 
ATOM     14  H   UNL     1      12.737  -0.941   0.534  0.00  0.00    -0.081 HD
BRANCH  11  15
ATOM     15  C   UNL     1       9.680  -0.865  -3.585  0.00  0.00    +0.244 C 
ATOM     16  O   UNL     1       9.956  -0.373  -4.664  0.00  0.00    -0.270 OA
ATOM     17  N   UNL     1       9.282  -2.150  -3.513  0.00  0.00    -0.325 N 
ATOM     18  H   UNL     1       9.062  -2.542  -2.653  0.00  0.00    +0.145 HD
ATOM     19  H   UNL     1       9.216  -2.684  -4.320  0.00  0.00    +0.145 HD
ENDBRANCH  11  15
BRANCH  13  21
ATOM     20  C   UNL     1      13.999   0.102   2.517  0.00  0.00    -0.017 C 
ATOM     21  C   UNL     1      14.326   0.265   1.031  0.00  0.00    -0.082 C 
ENDBRANCH  13  21
ENDBRANCH   1  10
BRANCH   2  22
ATOM     22  C   UNL     1       5.123   1.680  -2.438  0.00  0.00    +0.166 C 
ATOM     23  C   UNL     1       5.207   2.310  -3.845  0.00  0.00    +0.031 C 
ATOM     24  C   UNL     1       3.963   3.236  -3.888  0.00  0.00    +0.019 C 
ATOM     25  C   UNL     1       3.895   3.733  -2.422  0.00  0.00    +0.110 C 
ATOM     26  N   UNL     1       4.297   2.570  -1.610  0.00  0.00    -0.165 NA
BRANCH  26  27
ATOM     27  S   UNL     1       3.891   2.312  -0.025  0.00  0.00    +0.062 S 
ATOM     28  O   UNL     1       3.608   3.588   0.534  0.00  0.00    -0.153 OA
ATOM     29  O   UNL     1       4.882   1.448   0.512  0.00  0.00    -0.153 OA
BRANCH  27  30
ATOM     30  C   UNL     1       2.377   1.411  -0.015  0.00  0.00    +0.106 A 
ATOM     31  C   UNL     1       1.171   2.086   0.002  0.00  0.00    +0.029 A 
ATOM     32  C   UNL     1      -0.017   1.378   0.010  0.00  0.00    +0.005 A 
ATOM     33  C   UNL     1       0.002  -0.004   0.002  0.00  0.00    -0.050 A 
ATOM     34  C   UNL     1       1.208  -0.679  -0.013  0.00  0.00    +0.005 A 
ATOM     35  C   UNL     1       2.396   0.029  -0.021  0.00  0.00    +0.029 A 
ATOM     36  C   UNL     1      -1.293  -0.775   0.011  0.00  0.00    +0.044 C 
ENDBRANCH  27  30
ENDBRANCH  26  27
ENDBRANCH   2  22
TORSDOF 6
