REMARK  Name = ZINC13110957
REMARK  4 active torsions:
REMARK  status: ('A' for Active; 'I' for Inactive)
REMARK    1  A    between atoms: C_4  and  S_7
REMARK    2  A    between atoms: S_7  and  C_8
REMARK    3  A    between atoms: C_13  and  N_14
REMARK    4  A    between atoms: N_17  and  C_18
REMARK                            x       y       z     vdW  Elec       q    Type
REMARK                         _______ _______ _______ _____ _____    ______ ____
ROOT
ATOM      1  N   UNL     1       5.690  -3.158  -0.378  0.00  0.00    -0.325 N 
ATOM      2  C   UNL     1       6.657  -4.123  -0.367  0.00  0.00    +0.203 C 
ATOM      3  N   UNL     1       6.310  -5.436  -0.215  0.00  0.00    -0.369 N 
ATOM      4  N   UNL     1       7.928  -3.787  -0.503  0.00  0.00    -0.179 NA
ATOM      5  H   UNL     1       5.484  -5.767  -0.601  0.00  0.00    +0.159 HD
ATOM      6  H   UNL     1       6.890  -6.037   0.279  0.00  0.00    +0.159 HD
ATOM      7  H   UNL     1       4.754  -3.408  -0.333  0.00  0.00    +0.169 HD
ENDROOT
BRANCH   4   8
ATOM      8  C   UNL     1       8.863  -4.740  -0.650  0.00  0.00    +0.234 A 
ATOM      9  N   UNL     1      10.182  -4.394  -0.665  0.00  0.00    -0.327 N 
ATOM     10  C   UNL     1      11.156  -5.349  -0.812  0.00  0.00    +0.027 A 
ATOM     11  C   UNL     1      10.795  -6.636  -0.934  0.00  0.00    +0.038 A 
ATOM     12  C   UNL     1       9.409  -6.967  -0.921  0.00  0.00    +0.278 A 
ATOM     13  N   UNL     1       8.493  -6.006  -0.772  0.00  0.00    -0.173 NA
ATOM     14  O   UNL     1       9.058  -8.131  -1.042  0.00  0.00    -0.265 OA
ATOM     15  C   UNL     1      11.789  -7.757  -1.077  0.00  0.00    +0.042 C 
ATOM     16  C   UNL     1      13.152  -7.217  -1.504  0.00  0.00    +0.005 C 
ATOM     17  C   UNL     1      13.531  -6.067  -0.563  0.00  0.00    +0.006 C 
ATOM     18  C   UNL     1      12.591  -4.895  -0.835  0.00  0.00    +0.054 C 
ATOM     19  H   UNL     1      10.434  -3.462  -0.572  0.00  0.00    +0.169 HD
ENDBRANCH   4   8
BRANCH   1  25
ATOM     20  C   UNL     1       5.291  -0.841   0.208  0.00  0.00    +0.036 A 
ATOM     21  C   UNL     1       5.657   0.495   0.132  0.00  0.00    +0.017 A 
ATOM     22  C   UNL     1       6.768   0.867  -0.602  0.00  0.00    +0.001 A 
ATOM     23  C   UNL     1       7.516  -0.089  -1.263  0.00  0.00    +0.002 A 
ATOM     24  C   UNL     1       7.159  -1.423  -1.193  0.00  0.00    +0.027 A 
ATOM     25  C   UNL     1       6.050  -1.806  -0.454  0.00  0.00    +0.056 A 
BRANCH  20  26
ATOM     26  S   UNL     1       3.876  -1.318   1.143  0.00  0.00    -0.087 S 
BRANCH  26  30
ATOM     27  C   UNL     1       2.066   2.614   2.477  0.00  0.00    +0.000 A 
ATOM     28  C   UNL     1       1.752   2.096   1.233  0.00  0.00    +0.001 A 
ATOM     29  C   UNL     1       2.302   0.898   0.823  0.00  0.00    +0.015 A 
ATOM     30  C   UNL     1       3.172   0.212   1.662  0.00  0.00    +0.013 A 
ATOM     31  C   UNL     1       3.485   0.734   2.911  0.00  0.00    +0.015 A 
ATOM     32  C   UNL     1       2.931   1.933   3.314  0.00  0.00    +0.001 A 
ENDBRANCH  26  30
ENDBRANCH  20  26
ENDBRANCH   1  25
TORSDOF 4
