REMARK  Name = ZINC32945320
REMARK  3 active torsions:
REMARK  status: ('A' for Active; 'I' for Inactive)
REMARK    1  A    between atoms: C_1  and  C_2
REMARK    2  A    between atoms: C_2  and  C_4
REMARK    3  A    between atoms: C_2  and  N_11
REMARK                            x       y       z     vdW  Elec       q    Type
REMARK                         _______ _______ _______ _____ _____    ______ ____
ROOT
ATOM      1  N   UNL     1      -0.292   0.310  -0.027  0.00  0.00    -0.230 N 
ATOM      2  C   UNL     1      -0.705   1.604  -0.067  0.00  0.00    +0.227 C 
ATOM      3  O   UNL     1      -1.850   2.002  -0.082  0.00  0.00    -0.275 OA
ATOM      4  C   UNL     1       0.538   2.440  -0.095  0.00  0.00    +0.091 C 
ATOM      5  C   UNL     1       0.527   3.766   0.636  0.00  0.00    +0.040 C 
ATOM      6  C   UNL     1       1.968   4.219   0.748  0.00  0.00    -0.030 C 
ATOM      7  C   UNL     1       2.995   3.438   0.604  0.00  0.00    -0.030 C 
ATOM      8  C   UNL     1       2.907   1.952   0.328  0.00  0.00    +0.040 C 
ATOM      9  C   UNL     1       1.507   1.516   0.706  0.00  0.00    +0.091 C 
ATOM     10  C   UNL     1       1.032   0.172   0.243  0.00  0.00    +0.227 C 
ATOM     11  O   UNL     1       1.696  -0.836   0.132  0.00  0.00    -0.275 OA
ENDROOT
BRANCH   1  13
ATOM     12  C   UNL     1      -0.695  -1.633  -1.456  0.00  0.00    +0.038 C 
ATOM     13  C   UNL     1      -1.188  -0.827  -0.253  0.00  0.00    +0.167 C 
BRANCH  13  14
ATOM     14  C   UNL     1      -1.202  -1.706   0.970  0.00  0.00    +0.236 C 
ATOM     15  O   UNL     1      -0.250  -1.717   1.721  0.00  0.00    -0.274 OA
ATOM     16  N   UNL     1      -2.274  -2.482   1.231  0.00  0.00    -0.300 N 
ATOM     17  C   UNL     1      -3.449  -2.638   0.362  0.00  0.00    +0.108 C 
ATOM     18  C   UNL     1      -4.423  -3.598   1.077  0.00  0.00    +0.020 C 
ATOM     19  C   UNL     1      -3.998  -3.476   2.564  0.00  0.00    +0.020 C 
ATOM     20  C   UNL     1      -2.464  -3.308   2.437  0.00  0.00    +0.108 C 
ENDBRANCH  13  14
ENDBRANCH   1  13
TORSDOF 2
