REMARK  Name = ZINC10750761
REMARK  10 active torsions:
REMARK  status: ('A' for Active; 'I' for Inactive)
REMARK    1  A    between atoms: C_1  and  C_2
REMARK    2  A    between atoms: C_2  and  C_3
REMARK    3  A    between atoms: C_3  and  C_4
REMARK    4  A    between atoms: C_4  and  C_5
REMARK    5  A    between atoms: C_8  and  N_11
REMARK    6  A    between atoms: N_11  and  C_12
REMARK    7  A    between atoms: C_12  and  N_14
REMARK    8  A    between atoms: N_14  and  C_15
REMARK    9  A    between atoms: C_18  and  C_22
REMARK   10  A    between atoms: C_20  and  O_21
REMARK                            x       y       z     vdW  Elec       q    Type
REMARK                         _______ _______ _______ _____ _____    ______ ____
ROOT
ATOM      1  C   UNL     1       1.078   3.732  -0.517  0.00  0.00    +0.139 C 
ATOM      2  S   UNL     1       2.433   4.502  -1.228  0.00  0.00    -0.018 S 
ENDROOT
BRANCH   1   3
ATOM      3  N   UNL     1       1.255   2.668   0.290  0.00  0.00    -0.297 N 
ATOM      4  H   UNL     1       0.494   2.270   0.742  0.00  0.00    +0.154 HD
BRANCH   3   8
ATOM      5  C   UNL     1       5.068   1.084   0.845  0.00  0.00    -0.047 A 
ATOM      6  C   UNL     1       4.874   2.452   0.903  0.00  0.00    +0.005 A 
ATOM      7  C   UNL     1       3.611   2.980   0.719  0.00  0.00    +0.023 A 
ATOM      8  C   UNL     1       2.535   2.136   0.476  0.00  0.00    +0.033 A 
ATOM      9  C   UNL     1       2.733   0.762   0.424  0.00  0.00    +0.023 A 
ATOM     10  C   UNL     1       3.999   0.241   0.603  0.00  0.00    +0.005 A 
BRANCH   5  11
ATOM     11  C   UNL     1       6.447   0.511   1.046  0.00  0.00    +0.035 C 
BRANCH  11  12
ATOM     12  C   UNL     1       6.668   0.222   2.533  0.00  0.00    +0.004 C 
BRANCH  12  14
ATOM     13  C   UNL     1       8.289  -0.649   4.223  0.00  0.00    +0.004 C 
ATOM     14  C   UNL     1       8.068  -0.360   2.736  0.00  0.00    -0.003 C 
ENDBRANCH  12  14
ENDBRANCH  11  12
ENDBRANCH   5  11
ENDBRANCH   3   8
ENDBRANCH   1   3
BRANCH   1  15
ATOM     15  N   UNL     1      -0.164   4.195  -0.760  0.00  0.00    -0.294 N 
ATOM     16  H   UNL     1      -0.929   3.777  -0.335  0.00  0.00    +0.154 HD
BRANCH  15  17
ATOM     17  C   UNL     1      -0.350   5.280  -1.627  0.00  0.00    +0.075 A 
ATOM     18  C   UNL     1       0.377   5.362  -2.805  0.00  0.00    +0.027 A 
ATOM     19  C   UNL     1       0.192   6.433  -3.659  0.00  0.00    +0.005 A 
ATOM     20  C   UNL     1      -0.718   7.424  -3.341  0.00  0.00    -0.047 A 
ATOM     21  C   UNL     1      -1.447   7.349  -2.169  0.00  0.00    +0.050 A 
ATOM     22  C   UNL     1      -1.271   6.276  -1.311  0.00  0.00    +0.138 A 
ATOM     23  C   UNL     1      -0.916   8.589  -4.276  0.00  0.00    +0.044 C 
BRANCH  22  24
ATOM     24  O   UNL     1      -1.991   6.199  -0.160  0.00  0.00    -0.505 OA
ATOM     25  H   UNL     1      -1.568   6.625   0.598  0.00  0.00    +0.292 HD
ENDBRANCH  22  24
ENDBRANCH  15  17
ENDBRANCH   1  15
TORSDOF 8
