REMARK  Name = ZINC32117002
REMARK  11 active torsions:
REMARK  status: ('A' for Active; 'I' for Inactive)
REMARK    1  A    between atoms: C_1  and  O_2
REMARK    2  A    between atoms: O_2  and  C_3
REMARK    3  A    between atoms: C_6  and  C_9
REMARK    4  A    between atoms: C_11  and  C_33
REMARK    5  A    between atoms: C_20  and  C_22
REMARK    6  A    between atoms: N_24  and  C_25
REMARK    7  A    between atoms: C_25  and  C_26
REMARK    8  A    between atoms: C_26  and  C_27
REMARK    9  A    between atoms: C_33  and  C_35
REMARK   10  A    between atoms: C_38  and  O_41
REMARK   11  A    between atoms: O_41  and  C_42
REMARK                            x       y       z     vdW  Elec       q    Type
REMARK                         _______ _______ _______ _____ _____    ______ ____
ROOT
ATOM      1  C   UNL     1      -1.344  -4.726   2.347  0.00  0.00    +0.059 C 
ATOM      2  C   UNL     1      -1.920  -4.770   3.790  0.00  0.00    +0.092 C 
ATOM      3  C   UNL     1      -0.694  -5.205   4.613  0.00  0.00    +0.090 C 
ATOM      4  C   UNL     1      -0.712  -4.583   5.987  0.00  0.00    -0.006 C 
ATOM      5  C   UNL     1       0.446  -4.217   6.541  0.00  0.00    -0.001 C 
ATOM      6  C   UNL     1       1.726  -4.412   5.849  0.00  0.00    +0.013 C 
ATOM      7  C   UNL     1       1.737  -4.622   4.513  0.00  0.00    +0.053 C 
ATOM      8  N   UNL     1       0.489  -4.680   3.900  0.00  0.00    -0.384 NA
ATOM      9  C   UNL     1       0.083  -4.173   2.589  0.00  0.00    +0.151 C 
ATOM     10  H   UNL     1       1.580  -4.809   3.850  0.00  0.00    +0.127 HD
ENDROOT
BRANCH   1  14
ATOM     11  C   UNL     1      -3.610  -2.077  -0.124  0.00  0.00    +0.120 A 
ATOM     12  C   UNL     1      -3.400  -3.389  -0.522  0.00  0.00    +0.046 A 
ATOM     13  C   UNL     1      -2.667  -4.244   0.278  0.00  0.00    +0.007 A 
ATOM     14  C   UNL     1      -2.143  -3.792   1.475  0.00  0.00    -0.041 A 
ATOM     15  C   UNL     1      -2.356  -2.486   1.877  0.00  0.00    +0.007 A 
ATOM     16  C   UNL     1      -3.083  -1.626   1.077  0.00  0.00    +0.046 A 
BRANCH  11  18
ATOM     17  C   UNL     1      -4.508   0.102  -0.437  0.00  0.00    +0.277 C 
ATOM     18  O   UNL     1      -4.331  -1.235  -0.910  0.00  0.00    -0.495 OA
ENDBRANCH  11  18
ENDBRANCH   1  14
BRANCH   9  19
ATOM     19  C   UNL     1       0.063  -2.667   2.597  0.00  0.00    +0.233 C 
ATOM     20  O   UNL     1       0.065  -2.066   3.651  0.00  0.00    -0.274 OA
ATOM     21  N   UNL     1       0.043  -1.987   1.434  0.00  0.00    -0.313 N 
ATOM     22  H   UNL     1       0.041  -2.531   0.478  0.00  0.00    +0.149 HD
BRANCH  21  23
ATOM     23  C   UNL     1       0.023  -0.522   1.442  0.00  0.00    +0.109 C 
BRANCH  23  24
ATOM     24  C   UNL     1       0.002  -0.004   0.002  0.00  0.00    +0.054 C 
BRANCH  24  25
ATOM     25  C   UNL     1      -0.018   1.503   0.010  0.00  0.00    -0.046 A 
ATOM     26  C   UNL     1      -1.225   2.178   0.020  0.00  0.00    +0.004 A 
ATOM     27  C   UNL     1      -1.244   3.560   0.032  0.00  0.00    +0.000 A 
ATOM     28  C   UNL     1      -0.056   4.267   0.025  0.00  0.00    +0.000 A 
ATOM     29  C   UNL     1       1.151   3.592   0.010  0.00  0.00    +0.000 A 
ATOM     30  C   UNL     1       1.169   2.210   0.003  0.00  0.00    +0.004 A 
ENDBRANCH  24  25
ENDBRANCH  23  24
ENDBRANCH  21  23
ENDBRANCH   9  19
BRANCH   2  31
ATOM     31  C   UNL     1      -3.028  -5.786   3.897  0.00  0.00    +0.169 C 
ATOM     32  O   UNL     1      -3.017  -6.771   3.189  0.00  0.00    -0.292 OA
BRANCH  31  33
ATOM     33  C   UNL     1      -4.120  -5.584   4.857  0.00  0.00    +0.018 A 
ATOM     34  C   UNL     1      -4.131  -4.451   5.680  0.00  0.00    +0.015 A 
ATOM     35  C   UNL     1      -5.156  -4.264   6.572  0.00  0.00    +0.046 A 
ATOM     36  C   UNL     1      -6.177  -5.203   6.668  0.00  0.00    +0.120 A 
ATOM     37  C   UNL     1      -6.168  -6.333   5.857  0.00  0.00    +0.046 A 
ATOM     38  C   UNL     1      -5.150  -6.527   4.958  0.00  0.00    +0.015 A 
BRANCH  36  39
ATOM     39  O   UNL     1      -7.185  -5.017   7.556  0.00  0.00    -0.495 OA
ATOM     40  C   UNL     1      -7.133  -3.835   8.358  0.00  0.00    +0.277 C 
ENDBRANCH  36  39
ENDBRANCH  31  33
ENDBRANCH   2  31
TORSDOF 9
