REMARK  Name = ZINC59399466
REMARK  9 active torsions:
REMARK  status: ('A' for Active; 'I' for Inactive)
REMARK    1  A    between atoms: C_1  and  C_2
REMARK    2  A    between atoms: C_2  and  N_3
REMARK    3  A    between atoms: N_3  and  C_4
REMARK    4  A    between atoms: N_3  and  C_6
REMARK    5  A    between atoms: C_4  and  C_5
REMARK    6  A    between atoms: C_9  and  C_12
REMARK    7  A    between atoms: C_16  and  N_21
REMARK    8  A    between atoms: N_21  and  S_22
REMARK    9  A    between atoms: S_22  and  C_25
REMARK                            x       y       z     vdW  Elec       q    Type
REMARK                         _______ _______ _______ _____ _____    ______ ____
ROOT
ATOM      1  C   UNL     1       0.365  -6.108  -1.471  0.00  0.00    +0.228 A 
ATOM      2  N   UNL     1      -0.186  -6.782  -2.448  0.00  0.00    -0.209 NA
ATOM      3  C   UNL     1      -0.081  -8.109  -2.177  0.00  0.00    +0.112 A 
ATOM      4  C   UNL     1      -0.483  -9.264  -2.851  0.00  0.00    +0.058 A 
ATOM      5  C   UNL     1      -0.223 -10.505  -2.298  0.00  0.00    +0.077 A 
ATOM      6  C   UNL     1       0.437 -10.604  -1.074  0.00  0.00    +0.030 A 
ATOM      7  C   UNL     1       0.837  -9.468  -0.403  0.00  0.00    +0.050 A 
ATOM      8  C   UNL     1       0.583  -8.217  -0.945  0.00  0.00    +0.156 A 
ATOM      9  O   UNL     1       0.847  -6.953  -0.541  0.00  0.00    -0.435 OA
ENDROOT
BRANCH   1  13
ATOM     10  C   UNL     1       0.609  -1.872  -1.272  0.00  0.00    +0.013 A 
ATOM     11  C   UNL     1       1.142  -2.641  -0.253  0.00  0.00    +0.022 A 
ATOM     12  C   UNL     1       1.066  -4.018  -0.312  0.00  0.00    +0.015 A 
ATOM     13  C   UNL     1       0.450  -4.633  -1.402  0.00  0.00    +0.037 A 
ATOM     14  C   UNL     1      -0.086  -3.852  -2.426  0.00  0.00    +0.015 A 
ATOM     15  C   UNL     1      -0.008  -2.476  -2.353  0.00  0.00    +0.022 A 
BRANCH  10  16
ATOM     16  N   UNL     1       0.690  -0.478  -1.207  0.00  0.00    -0.394 NA
ATOM     17  H   UNL     1       0.251  -0.077  -2.022  0.00  0.00    +0.126 HD
BRANCH  16  19
ATOM     18  C   UNL     1      -0.019   1.526   0.010  0.00  0.00    +0.022 C 
ATOM     19  C   UNL     1       0.002  -0.004   0.002  0.00  0.00    +0.081 C 
ENDBRANCH  16  19
BRANCH  16  20
ATOM     20  C   UNL     1       2.100  -0.070  -1.159  0.00  0.00    +0.081 C 
ATOM     21  C   UNL     1       2.786  -0.454  -2.472  0.00  0.00    +0.022 C 
ENDBRANCH  16  20
ENDBRANCH  10  16
ENDBRANCH   1  13
BRANCH   5  22
ATOM     22  N   UNL     1      -0.623 -11.665  -2.969  0.00  0.00    -0.098 NA
BRANCH  22  23
ATOM     23  S   UNL     1      -0.313 -13.152  -2.309  0.00  0.00    +0.092 S 
ATOM     24  O   UNL     1       1.099 -13.309  -2.309  0.00  0.00    -0.148 OA
ATOM     25  O   UNL     1      -1.090 -13.240  -1.123  0.00  0.00    -0.148 OA
BRANCH  23  26
ATOM     26  C   UNL     1      -0.954 -14.359  -3.421  0.00  0.00    +0.110 A 
ATOM     27  C   UNL     1      -2.260 -14.794  -3.291  0.00  0.00    +0.029 A 
ATOM     28  C   UNL     1      -2.763 -15.742  -4.164  0.00  0.00    +0.002 A 
ATOM     29  C   UNL     1      -1.960 -16.252  -5.167  0.00  0.00    +0.000 A 
ATOM     30  C   UNL     1      -0.655 -15.816  -5.298  0.00  0.00    +0.002 A 
ATOM     31  C   UNL     1      -0.154 -14.866  -4.428  0.00  0.00    +0.029 A 
ENDBRANCH  23  26
ENDBRANCH  22  23
ENDBRANCH   5  22
TORSDOF 7
