REMARK  Name = ZINC33813191
REMARK  13 active torsions:
REMARK  status: ('A' for Active; 'I' for Inactive)
REMARK    1  A    between atoms: C_1  and  C_2
REMARK    2  A    between atoms: C_2  and  N_3
REMARK    3  A    between atoms: N_3  and  C_4
REMARK    4  A    between atoms: N_3  and  C_6
REMARK    5  A    between atoms: C_4  and  C_5
REMARK    6  A    between atoms: C_6  and  C_7
REMARK    7  A    between atoms: C_7  and  N_8
REMARK    8  A    between atoms: C_9  and  C_30
REMARK    9  A    between atoms: C_11  and  C_16
REMARK   10  A    between atoms: C_16  and  C_18
REMARK   11  A    between atoms: C_19  and  C_29
REMARK   12  A    between atoms: C_21  and  C_23
REMARK   13  A    between atoms: C_33  and  N_36
REMARK                            x       y       z     vdW  Elec       q    Type
REMARK                         _______ _______ _______ _____ _____    ______ ____
ROOT
ATOM      1  N   UNL     1       1.058  -4.009  -2.915  0.00  0.00    -0.285 N 
ATOM      2  C   UNL     1       2.068  -4.987  -2.493  0.00  0.00    +0.145 C 
ATOM      3  C   UNL     1       1.607  -6.324  -3.025  0.00  0.00    +0.077 C 
ATOM      4  C   UNL     1       0.445  -6.103  -3.682  0.00  0.00    +0.249 C 
ATOM      5  C   UNL     1       0.108  -4.668  -3.604  0.00  0.00    +0.288 C 
ATOM      6  O   UNL     1      -0.879  -4.156  -4.093  0.00  0.00    -0.266 OA
ATOM      7  O   UNL     1      -0.294  -7.049  -4.306  0.00  0.00    -0.282 OA
ENDROOT
BRANCH   2   8
ATOM      8  C   UNL     1       3.410  -4.630  -3.078  0.00  0.00    -0.022 A 
ATOM      9  C   UNL     1       3.490  -4.098  -4.352  0.00  0.00    +0.008 A 
ATOM     10  C   UNL     1       4.721  -3.770  -4.888  0.00  0.00    +0.033 A 
ATOM     11  C   UNL     1       5.872  -3.974  -4.151  0.00  0.00    +0.126 A 
ATOM     12  C   UNL     1       5.793  -4.506  -2.878  0.00  0.00    +0.033 A 
ATOM     13  C   UNL     1       4.561  -4.829  -2.340  0.00  0.00    +0.008 A 
BRANCH  11  14
ATOM     14  N   UNL     1       7.191  -3.624  -4.726  0.00  0.00    +0.056 N 
ATOM     15  O   UNL     1       7.260  -3.160  -5.840  0.00  0.00    -0.126 OA
ATOM     16  O   UNL     1       8.198  -3.803  -4.082  0.00  0.00    -0.126 OA
ENDBRANCH  11  14
ENDBRANCH   2   8
BRANCH   3  17
ATOM     17  C   UNL     1       2.288  -7.613  -2.861  0.00  0.00    +0.203 C 
ATOM     18  O   UNL     1       2.741  -8.191  -3.834  0.00  0.00    -0.286 OA
BRANCH  17  19
ATOM     19  C   UNL     1       2.425  -8.206  -1.528  0.00  0.00    +0.082 A 
ATOM     20  C   UNL     1       3.107  -9.353  -1.129  0.00  0.00    +0.057 A 
ATOM     21  N   UNL     1       3.056  -9.644   0.142  0.00  0.00    -0.244 NA
ATOM     22  C   UNL     1       2.392  -8.886   1.000  0.00  0.00    +0.109 A 
ATOM     23  S   UNL     1       1.769  -7.652   0.038  0.00  0.00    -0.064 S 
ATOM     24  C   UNL     1       3.861 -10.211  -2.112  0.00  0.00    +0.067 C 
BRANCH  22  25
ATOM     25  C   UNL     1       2.238  -9.074   2.457  0.00  0.00    +0.007 A 
ATOM     26  C   UNL     1       1.487  -8.165   3.206  0.00  0.00    +0.010 A 
ATOM     27  C   UNL     1       1.347  -8.347   4.567  0.00  0.00    +0.001 A 
ATOM     28  C   UNL     1       1.949  -9.427   5.189  0.00  0.00    +0.000 A 
ATOM     29  C   UNL     1       2.695 -10.331   4.453  0.00  0.00    +0.001 A 
ATOM     30  C   UNL     1       2.838 -10.164   3.091  0.00  0.00    +0.010 A 
ENDBRANCH  22  25
ENDBRANCH  17  19
ENDBRANCH   3  17
BRANCH   1  31
ATOM     31  C   UNL     1       1.076  -2.572  -2.629  0.00  0.00    +0.090 C 
BRANCH  31  32
ATOM     32  C   UNL     1       0.355  -2.306  -1.307  0.00  0.00    -0.060 C 
BRANCH  32  33
ATOM     33  N   UNL     1       0.489  -0.886  -0.953  0.00  0.00    +0.380 N 
ATOM     34  H   UNL     1       1.466  -0.634  -0.937  0.00  0.00    -0.082 HD
BRANCH  33  36
ATOM     35  C   UNL     1       0.032   1.416  -1.653  0.00  0.00    -0.017 C 
ATOM     36  C   UNL     1      -0.212  -0.065  -1.950  0.00  0.00    -0.082 C 
ENDBRANCH  33  36
BRANCH  33  37
ATOM     37  C   UNL     1      -0.099  -0.654   0.373  0.00  0.00    -0.082 C 
ATOM     38  C   UNL     1       0.728  -1.385   1.432  0.00  0.00    -0.017 C 
ENDBRANCH  33  37
ENDBRANCH  32  33
ENDBRANCH  31  32
ENDBRANCH   1  31
TORSDOF 10
