REMARK  Name = ZINC19301114
REMARK  12 active torsions:
REMARK  status: ('A' for Active; 'I' for Inactive)
REMARK    1  A    between atoms: C_1  and  C_2
REMARK    2  A    between atoms: C_2  and  N_3
REMARK    3  A    between atoms: C_7  and  C_9
REMARK    4  A    between atoms: C_9  and  N_10
REMARK    5  A    between atoms: C_11  and  C_13
REMARK    6  A    between atoms: C_16  and  C_30
REMARK    7  A    between atoms: C_18  and  N_19
REMARK    8  A    between atoms: C_22  and  C_25
REMARK    9  A    between atoms: C_25  and  O_27
REMARK   10  A    between atoms: O_27  and  C_28
REMARK   11  A    between atoms: C_28  and  C_29
REMARK   12  A    between atoms: C_32  and  C_35
REMARK                            x       y       z     vdW  Elec       q    Type
REMARK                         _______ _______ _______ _____ _____    ______ ____
ROOT
ATOM      1  C   UNL     1       1.226   3.418   0.290  0.00  0.00    +0.077 A 
ATOM      2  C   UNL     1       1.246   2.021   0.417  0.00  0.00    +0.018 A 
ATOM      3  C   UNL     1       0.058   1.361   0.580  0.00  0.00    +0.030 A 
ATOM      4  C   UNL     1      -1.136   2.088   0.611  0.00  0.00    +0.080 A 
ATOM      5  N   UNL     1      -1.134   3.413   0.494  0.00  0.00    -0.231 NA
ATOM      6  C   UNL     1      -0.009   4.090   0.334  0.00  0.00    +0.134 A 
ENDROOT
BRANCH   6   7
ATOM      7  N   UNL     1      -0.048   5.467   0.210  0.00  0.00    -0.315 N 
ATOM      8  C   UNL     1      -0.453   6.098   1.473  0.00  0.00    +0.107 C 
ATOM      9  C   UNL     1      -0.344   7.619   1.343  0.00  0.00    +0.033 C 
ATOM     10  C   UNL     1      -1.246   8.094   0.200  0.00  0.00    +0.101 C 
ATOM     11  C   UNL     1      -0.833   7.386  -1.094  0.00  0.00    +0.033 C 
ATOM     12  C   UNL     1      -0.928   5.872  -0.893  0.00  0.00    +0.107 C 
BRANCH  10  13
ATOM     13  C   UNL     1      -1.099   9.584   0.027  0.00  0.00    +0.310 C 
ATOM     14  O   UNL     1      -0.704  10.034  -1.022  0.00  0.00    -0.251 OA
BRANCH  13  15
ATOM     15  O   UNL     1      -1.406  10.410   1.039  0.00  0.00    -0.465 OA
BRANCH  15  16
ATOM     16  C   UNL     1      -1.240  11.833   0.802  0.00  0.00    +0.229 C 
ATOM     17  C   UNL     1      -1.636  12.610   2.059  0.00  0.00    +0.048 C 
ENDBRANCH  15  16
ENDBRANCH  13  15
ENDBRANCH  10  13
ENDBRANCH   6   7
BRANCH   4  18
ATOM     18  C   UNL     1      -2.416   1.376   0.781  0.00  0.00    +0.038 A 
ATOM     19  C   UNL     1      -3.688   1.886   0.838  0.00  0.00    +0.021 A 
ATOM     20  C   UNL     1      -4.741   1.018   1.003  0.00  0.00    -0.043 A 
ATOM     21  C   UNL     1      -4.492  -0.315   1.105  0.00  0.00    +0.049 A 
ATOM     22  S   UNL     1      -2.714  -0.375   0.958  0.00  0.00    -0.095 S 
ATOM     23  C   UNL     1      -6.154   1.538   1.070  0.00  0.00    +0.044 C 
ENDBRANCH   4  18
BRANCH   1  25
ATOM     24  N   UNL     1       3.663   3.532   0.191  0.00  0.00    -0.313 N 
ATOM     25  C   UNL     1       2.478   4.169   0.113  0.00  0.00    +0.247 C 
ATOM     26  O   UNL     1       2.445   5.366  -0.103  0.00  0.00    -0.270 OA
ATOM     27  H   UNL     1       3.694   2.450   0.387  0.00  0.00    +0.149 HD
BRANCH  24  28
ATOM     28  C   UNL     1       4.911   4.280   0.015  0.00  0.00    +0.089 C 
BRANCH  28  33
ATOM     29  N   UNL     1       7.370   4.045  -0.165  0.00  0.00    +0.382 N 
ATOM     30  C   UNL     1       8.403   3.136   0.397  0.00  0.00    -0.078 C 
ATOM     31  C   UNL     1       7.750   2.534   1.659  0.00  0.00    -0.020 C 
ATOM     32  C   UNL     1       6.230   2.648   1.417  0.00  0.00    -0.016 C 
ATOM     33  C   UNL     1       6.094   3.309   0.029  0.00  0.00    -0.051 C 
ATOM     34  H   UNL     1       7.368   5.035   0.314  0.00  0.00    -0.081 HD
BRANCH  29  36
ATOM     35  C   UNL     1       8.837   5.215  -1.738  0.00  0.00    -0.017 C 
ATOM     36  C   UNL     1       7.614   4.308  -1.589  0.00  0.00    -0.082 C 
ENDBRANCH  29  36
ENDBRANCH  28  33
ENDBRANCH  24  28
ENDBRANCH   1  25
TORSDOF 9
