REMARK  Name = ZINC37350377
REMARK  3 active torsions:
REMARK  status: ('A' for Active; 'I' for Inactive)
REMARK    1  A    between atoms: C_6  and  C_7
REMARK    2  A    between atoms: C_8  and  C_13
REMARK    3  A    between atoms: C_11  and  N_12
REMARK                            x       y       z     vdW  Elec       q    Type
REMARK                         _______ _______ _______ _____ _____    ______ ____
ROOT
ATOM      1  C   UNL     1      -1.269  -0.765   0.011  0.00  0.00    +0.071 A 
ATOM      2  C   UNL     1      -1.758  -1.642   1.079  0.00  0.00    +0.130 A 
ATOM      3  N   UNL     1      -2.919  -2.117   0.689  0.00  0.00    -0.075 NA
ATOM      4  O   UNL     1      -3.220  -1.593  -0.589  0.00  0.00    -0.339 OA
ATOM      5  C   UNL     1      -2.227  -0.780  -0.983  0.00  0.00    +0.224 A 
ENDROOT
BRANCH   1  11
ATOM      6  C   UNL     1      -0.017   1.390   0.010  0.00  0.00    +0.011 A 
ATOM      7  C   UNL     1       1.170   2.094   0.002  0.00  0.00    +0.039 A 
ATOM      8  C   UNL     1       2.379   1.418  -0.013  0.00  0.00    +0.123 A 
ATOM      9  C   UNL     1       2.403   0.033  -0.021  0.00  0.00    +0.039 A 
ATOM     10  C   UNL     1       1.222  -0.680  -0.013  0.00  0.00    +0.011 A 
ATOM     11  C   UNL     1       0.002  -0.004   0.002  0.00  0.00    -0.011 A 
ATOM     12  F   UNL     1       3.538   2.111  -0.021  0.00  0.00    -0.205 F 
ENDBRANCH   1  11
BRANCH   2  13
ATOM     13  C   UNL     1      -1.073  -1.937   2.354  0.00  0.00    +0.043 A 
ATOM     14  C   UNL     1      -1.615  -2.159   3.593  0.00  0.00    +0.019 A 
ATOM     15  C   UNL     1      -0.769  -2.419   4.648  0.00  0.00    +0.023 A 
ATOM     16  C   UNL     1       0.573  -2.446   4.429  0.00  0.00    +0.056 A 
ATOM     17  S   UNL     1       0.674  -2.103   2.680  0.00  0.00    -0.080 S 
ATOM     18 BR   UNL     1       1.971  -2.769   5.661  0.00  0.00    -0.043 Br
ENDBRANCH   2  13
BRANCH   5  19
ATOM     19  N   UNL     1      -2.171  -0.085  -2.173  0.00  0.00    -0.327 N 
ATOM     20  H   UNL     1      -1.407   0.479  -2.370  0.00  0.00    +0.145 HD
ATOM     21  H   UNL     1      -2.897  -0.160  -2.813  0.00  0.00    +0.145 HD
ENDBRANCH   5  19
TORSDOF 3
