REMARK  Name = ZINC09727066
REMARK  8 active torsions:
REMARK  status: ('A' for Active; 'I' for Inactive)
REMARK    1  A    between atoms: C_4  and  C_7
REMARK    2  A    between atoms: C_7  and  C_8
REMARK    3  A    between atoms: C_8  and  C_28
REMARK    4  A    between atoms: N_11  and  C_15
REMARK    5  A    between atoms: C_15  and  N_65
REMARK    6  A    between atoms: N_18  and  C_21
REMARK    7  A    between atoms: C_26  and  O_27
REMARK    8  A    between atoms: C_28  and  C_29
REMARK                            x       y       z     vdW  Elec       q    Type
REMARK                         _______ _______ _______ _____ _____    ______ ____
ROOT
ATOM      1  C   UNL     1      -1.931   1.438   1.791  0.00  0.00    +0.120 C 
ATOM      2  C   UNL     1      -0.928   2.451   2.307  0.00  0.00    +0.245 C 
ATOM      3  O   UNL     1      -0.669   3.534   1.828  0.00  0.00    -0.273 OA
ATOM      4  N   UNL     1      -0.385   1.898   3.410  0.00  0.00    -0.241 N 
ATOM      5  C   UNL     1      -0.900   0.688   3.659  0.00  0.00    +0.308 C 
ATOM      6  O   UNL     1      -0.567  -0.006   4.599  0.00  0.00    -0.252 OA
ATOM      7  N   UNL     1      -1.826   0.327   2.753  0.00  0.00    -0.284 N 
ATOM      8  H   UNL     1      -2.327  -0.503   2.735  0.00  0.00    +0.151 HD
ENDROOT
BRANCH   1   9
ATOM      9  C   UNL     1      -1.548   0.971   0.385  0.00  0.00    +0.070 C 
BRANCH   9  13
ATOM     10  C   UNL     1       2.324  -0.831   0.474  0.00  0.00    +0.000 A 
ATOM     11  C   UNL     1       1.197  -1.604   0.682  0.00  0.00    +0.000 A 
ATOM     12  C   UNL     1      -0.056  -1.020   0.655  0.00  0.00    +0.004 A 
ATOM     13  C   UNL     1      -0.182   0.336   0.421  0.00  0.00    -0.045 A 
ATOM     14  C   UNL     1       0.945   1.109   0.214  0.00  0.00    +0.004 A 
ATOM     15  C   UNL     1       2.198   0.525   0.240  0.00  0.00    +0.000 A 
ENDBRANCH   9  13
ENDBRANCH   1   9
BRANCH   4  16
ATOM     16  C   UNL     1       0.642   2.541   4.233  0.00  0.00    +0.043 C 
BRANCH  16  22
ATOM     17  C   UNL     1       2.376   0.851   4.221  0.00  0.00    -0.057 C 
ATOM     18  C   UNL     1       3.728   0.473   3.612  0.00  0.00    +0.087 C 
ATOM     19  N   UNL     1       4.726   1.491   3.971  0.00  0.00    -0.331 N 
ATOM     20  C   UNL     1       4.322   2.816   3.480  0.00  0.00    +0.087 C 
ATOM     21  C   UNL     1       2.970   3.193   4.088  0.00  0.00    -0.057 C 
ATOM     22  N   UNL     1       1.972   2.174   3.701  0.00  0.00    +0.392 N 
ATOM     23  H   UNL     1       1.921   2.129   2.677  0.00  0.00    -0.079 HD
BRANCH  19  24
ATOM     24  C   UNL     1       5.993   1.143   3.492  0.00  0.00    +0.072 A 
ATOM     25  C   UNL     1       6.136   0.081   2.610  0.00  0.00    +0.027 A 
ATOM     26  C   UNL     1       7.388  -0.258   2.134  0.00  0.00    +0.002 A 
ATOM     27  C   UNL     1       8.502   0.452   2.542  0.00  0.00    +0.004 A 
ATOM     28  C   UNL     1       8.369   1.508   3.425  0.00  0.00    +0.047 A 
ATOM     29  C   UNL     1       7.117   1.857   3.903  0.00  0.00    +0.138 A 
BRANCH  29  30
ATOM     30  O   UNL     1       6.984   2.895   4.772  0.00  0.00    -0.505 OA
ATOM     31  H   UNL     1       7.117   2.652   5.699  0.00  0.00    +0.292 HD
ENDBRANCH  29  30
ENDBRANCH  19  24
ENDBRANCH  16  22
ENDBRANCH   4  16
BRANCH   1  32
ATOM     32  C   UNL     1      -3.344   2.023   1.796  0.00  0.00    +0.070 C 
BRANCH  32  33
ATOM     33  C   UNL     1      -3.696   2.475   3.190  0.00  0.00    -0.045 A 
ATOM     34  C   UNL     1      -4.310   1.599   4.066  0.00  0.00    +0.004 A 
ATOM     35  C   UNL     1      -4.628   2.012   5.347  0.00  0.00    +0.000 A 
ATOM     36  C   UNL     1      -4.341   3.304   5.748  0.00  0.00    +0.000 A 
ATOM     37  C   UNL     1      -3.732   4.181   4.870  0.00  0.00    +0.000 A 
ATOM     38  C   UNL     1      -3.409   3.766   3.591  0.00  0.00    +0.004 A 
ENDBRANCH  32  33
ENDBRANCH   1  32
TORSDOF 8
