REMARK  Name = ZINC24877928
REMARK  10 active torsions:
REMARK  status: ('A' for Active; 'I' for Inactive)
REMARK    1  A    between atoms: C_4  and  C_7
REMARK    2  A    between atoms: C_7  and  C_8
REMARK    3  A    between atoms: C_8  and  N_9
REMARK    4  A    between atoms: N_9  and  C_10
REMARK    5  A    between atoms: N_9  and  S_27
REMARK    6  A    between atoms: N_13  and  C_16
REMARK    7  A    between atoms: C_16  and  C_17
REMARK    8  A    between atoms: C_22  and  O_23
REMARK    9  A    between atoms: O_23  and  C_24
REMARK   10  A    between atoms: S_27  and  C_30
REMARK                            x       y       z     vdW  Elec       q    Type
REMARK                         _______ _______ _______ _____ _____    ______ ____
ROOT
ATOM      1  C   UNL     1       2.551  -0.052  -1.376  0.00  0.00    +0.076 C 
ATOM      2  C   UNL     1       1.217  -0.688  -0.975  0.00  0.00    +0.002 C 
ATOM      3  C   UNL     1       0.812  -0.182   0.411  0.00  0.00    -0.077 C 
ATOM      4  N   UNL     1       0.688   1.281   0.383  0.00  0.00    +0.383 N 
ATOM      5  C   UNL     1       1.969   1.916   0.047  0.00  0.00    -0.077 C 
ATOM      6  C   UNL     1       2.409   1.473  -1.350  0.00  0.00    +0.002 C 
ATOM      7  H   UNL     1      -0.033   1.542  -0.407  0.00  0.00    -0.081 HD
ENDROOT
BRANCH   1   8
ATOM      8  N   UNL     1       2.915  -0.487  -2.726  0.00  0.00    -0.173 NA
BRANCH   8   9
ATOM      9  S   UNL     1       4.248  -1.443  -2.957  0.00  0.00    +0.067 S 
ATOM     10  O   UNL     1       4.751  -1.133  -4.249  0.00  0.00    -0.152 OA
ATOM     11  O   UNL     1       5.040  -1.326  -1.783  0.00  0.00    -0.152 OA
BRANCH   9  12
ATOM     12  C   UNL     1       3.687  -3.112  -3.022  0.00  0.00    +0.143 A 
ATOM     13  C   UNL     1       3.293  -3.839  -4.096  0.00  0.00    +0.036 A 
ATOM     14  C   UNL     1       2.888  -5.147  -3.908  0.00  0.00    +0.010 A 
ATOM     15  C   UNL     1       2.897  -5.664  -2.655  0.00  0.00    +0.047 A 
ATOM     16  S   UNL     1       3.497  -4.287  -1.691  0.00  0.00    -0.077 S 
ENDBRANCH   9  12
ENDBRANCH   8   9
BRANCH   8  17
ATOM     17  C   UNL     1       2.101  -0.077  -3.873  0.00  0.00    +0.114 C 
BRANCH  17  18
ATOM     18  C   UNL     1       2.587   1.281  -4.384  0.00  0.00    +0.052 C 
BRANCH  18  22
ATOM     19  C   UNL     1       0.461   2.306  -7.945  0.00  0.00    +0.000 A 
ATOM     20  C   UNL     1      -0.032   2.687  -6.711  0.00  0.00    +0.000 A 
ATOM     21  C   UNL     1       0.655   2.356  -5.559  0.00  0.00    +0.003 A 
ATOM     22  C   UNL     1       1.837   1.642  -5.640  0.00  0.00    -0.046 A 
ATOM     23  C   UNL     1       2.333   1.266  -6.874  0.00  0.00    +0.003 A 
ATOM     24  C   UNL     1       1.643   1.593  -8.026  0.00  0.00    +0.000 A 
ENDBRANCH  18  22
ENDBRANCH  17  18
ENDBRANCH   8  17
ENDBRANCH   1   8
BRANCH   4  25
ATOM     25  C   UNL     1       0.167   1.790   1.658  0.00  0.00    -0.039 C 
BRANCH  25  26
ATOM     26  C   UNL     1       0.283   3.292   1.685  0.00  0.00    -0.022 A 
ATOM     27  C   UNL     1       1.323   3.893   2.367  0.00  0.00    +0.005 A 
ATOM     28  C   UNL     1       1.433   5.271   2.388  0.00  0.00    +0.000 A 
ATOM     29  C   UNL     1       0.497   6.052   1.735  0.00  0.00    +0.004 A 
ATOM     30  C   UNL     1      -0.547   5.456   1.056  0.00  0.00    +0.046 A 
ATOM     31  C   UNL     1      -0.657   4.073   1.029  0.00  0.00    +0.128 A 
BRANCH  31  32
ATOM     32  O   UNL     1      -1.685   3.485   0.362  0.00  0.00    -0.434 OA
BRANCH  32  33
ATOM     33  C   UNL     1      -2.615   4.351  -0.291  0.00  0.00    +0.541 C 
ATOM     34  F   UNL     1      -3.213   5.190   0.655  0.00  0.00    -0.166 F 
ATOM     35  F   UNL     1      -1.943   5.125  -1.242  0.00  0.00    -0.166 F 
ENDBRANCH  32  33
ENDBRANCH  31  32
ENDBRANCH  25  26
ENDBRANCH   4  25
TORSDOF 10
