REMARK  Name = ZINC13499469
REMARK  13 active torsions:
REMARK  status: ('A' for Active; 'I' for Inactive)
REMARK    1  A    between atoms: C_1  and  C_2
REMARK    2  A    between atoms: C_2  and  C_3
REMARK    3  A    between atoms: C_3  and  C_4
REMARK    4  A    between atoms: C_4  and  C_6
REMARK    5  A    between atoms: C_4  and  N_75
REMARK    6  A    between atoms: N_10  and  C_11
REMARK    7  A    between atoms: C_16  and  C_17
REMARK    8  A    between atoms: C_16  and  N_75
REMARK    9  A    between atoms: C_17  and  C_18
REMARK   10  A    between atoms: C_24  and  C_25
REMARK   11  A    between atoms: C_24  and  N_75
REMARK   12  A    between atoms: C_29  and  C_38
REMARK   13  A    between atoms: C_30  and  C_37
REMARK                            x       y       z     vdW  Elec       q    Type
REMARK                         _______ _______ _______ _____ _____    ______ ____
ROOT
ATOM      1  N   UNL     1      -5.869   4.256  -1.578  0.00  0.00    +0.389 N 
ATOM      2  H   UNL     1      -6.051   3.536  -2.286  0.00  0.00    -0.080 HD
ENDROOT
BRANCH   1   3
ATOM      3  C   UNL     1      -7.155   4.851  -1.156  0.00  0.00    +0.003 C 
BRANCH   3   4
ATOM      4  C   UNL     1      -8.218   3.784  -1.212  0.00  0.00    +0.138 A 
ATOM      5  N   UNL     1      -8.138   2.572  -0.720  0.00  0.00    -0.115 NA
ATOM      6  N   UNL     1      -9.247   1.967  -0.970  0.00  0.00    -0.023 NA
ATOM      7  N   UNL     1     -10.033   2.761  -1.609  0.00  0.00    -0.044 NA
ATOM      8  N   UNL     1      -9.437   3.893  -1.773  0.00  0.00    -0.228 N 
BRANCH   8   9
ATOM      9  C   UNL     1      -9.982   5.074  -2.446  0.00  0.00    +0.111 C 
ATOM     10  C   UNL     1     -11.290   5.518  -1.758  0.00  0.00    +0.027 C 
ATOM     11  C   UNL     1     -12.190   5.993  -2.927  0.00  0.00    +0.002 C 
ATOM     12  C   UNL     1     -11.860   4.978  -4.049  0.00  0.00    +0.002 C 
ATOM     13  C   UNL     1     -10.344   4.731  -3.902  0.00  0.00    +0.027 C 
ENDBRANCH   8   9
ENDBRANCH   3   4
BRANCH   3  14
ATOM     14  C   UNL     1      -7.050   5.391   0.272  0.00  0.00    -0.008 C 
BRANCH  14  16
ATOM     15  C   UNL     1      -6.098   7.215   1.690  0.00  0.00    +0.004 C 
ATOM     16  C   UNL     1      -6.088   6.580   0.297  0.00  0.00    -0.005 C 
ENDBRANCH  14  16
ENDBRANCH   3  14
ENDBRANCH   1   3
BRANCH   1  17
ATOM     17  C   UNL     1      -5.000   5.298  -2.165  0.00  0.00    -0.073 C 
BRANCH  17  18
ATOM     18  C   UNL     1      -5.521   5.643  -3.562  0.00  0.00    +0.016 C 
BRANCH  18  19
ATOM     19  C   UNL     1      -4.562   6.588  -4.237  0.00  0.00    -0.049 A 
ATOM     20  C   UNL     1      -4.724   7.954  -4.098  0.00  0.00    +0.003 A 
ATOM     21  C   UNL     1      -3.841   8.821  -4.713  0.00  0.00    +0.000 A 
ATOM     22  C   UNL     1      -2.802   8.323  -5.477  0.00  0.00    +0.000 A 
ATOM     23  C   UNL     1      -2.643   6.957  -5.620  0.00  0.00    +0.000 A 
ATOM     24  C   UNL     1      -3.523   6.090  -5.000  0.00  0.00    +0.003 A 
ENDBRANCH  18  19
ENDBRANCH  17  18
ENDBRANCH   1  17
BRANCH   1  25
ATOM     25  C   UNL     1      -5.196   3.632  -0.420  0.00  0.00    -0.037 C 
BRANCH  25  26
ATOM     26  C   UNL     1      -4.102   2.728  -0.925  0.00  0.00    +0.001 A 
ATOM     27  C   UNL     1      -2.826   3.182  -0.988  0.00  0.00    +0.017 A 
ATOM     28  C   UNL     1      -1.787   2.280  -1.489  0.00  0.00    -0.001 A 
ATOM     29  C   UNL     1      -0.455   2.696  -1.592  0.00  0.00    +0.013 A 
ATOM     30  C   UNL     1       0.491   1.831  -2.063  0.00  0.00    -0.047 A 
ATOM     31  C   UNL     1       0.142   0.541  -2.441  0.00  0.00    -0.046 A 
ATOM     32  C   UNL     1      -1.163   0.109  -2.348  0.00  0.00    +0.030 A 
ATOM     33  C   UNL     1      -2.144   0.974  -1.875  0.00  0.00    +0.049 A 
ATOM     34  N   UNL     1      -3.459   0.571  -1.777  0.00  0.00    -0.322 N 
ATOM     35  H   UNL     1      -3.703  -0.330  -2.041  0.00  0.00    +0.169 HD
ATOM     36  C   UNL     1      -4.407   1.408  -1.321  0.00  0.00    +0.251 A 
ATOM     37  O   UNL     1      -5.559   1.017  -1.248  0.00  0.00    -0.268 OA
ATOM     38  C   UNL     1       1.203  -0.396  -2.959  0.00  0.00    +0.044 C 
ATOM     39  C   UNL     1       1.925   2.280  -2.175  0.00  0.00    +0.044 C 
ENDBRANCH  25  26
ENDBRANCH   1  25
TORSDOF 10
