REMARK  Name = ZINC29936316
REMARK  9 active torsions:
REMARK  status: ('A' for Active; 'I' for Inactive)
REMARK    1  A    between atoms: C_1  and  O_2
REMARK    2  A    between atoms: O_2  and  C_3
REMARK    3  A    between atoms: C_3  and  C_4
REMARK    4  A    between atoms: C_4  and  N_5
REMARK    5  A    between atoms: C_9  and  C_11
REMARK    6  A    between atoms: C_11  and  N_12
REMARK    7  A    between atoms: N_12  and  C_13
REMARK    8  A    between atoms: C_13  and  C_15
REMARK    9  A    between atoms: C_13  and  C_22
REMARK                            x       y       z     vdW  Elec       q    Type
REMARK                         _______ _______ _______ _____ _____    ______ ____
ROOT
ATOM      1  N   UNL     1      -0.700   1.560   1.217  0.00  0.00    +0.392 N 
ATOM      2  H   UNL     1      -0.715   2.659   1.223  0.00  0.00    -0.084 HD
ATOM      3  H   UNL     1      -1.732   1.179   1.224  0.00  0.00    -0.084 HD
ENDROOT
BRANCH   1   4
ATOM      4  C   UNL     1      -0.013   1.086   0.008  0.00  0.00    +0.017 C 
BRANCH   4   9
ATOM      5  N   UNL     1      -0.487   1.406  -4.765  0.00  0.00    -0.297 N 
ATOM      6  C   UNL     1      -0.940   1.719  -3.535  0.00  0.00    +0.306 C 
ATOM      7  O   UNL     1      -1.937   2.403  -3.410  0.00  0.00    -0.252 OA
ATOM      8  N   UNL     1      -0.288   1.272  -2.443  0.00  0.00    -0.242 N 
ATOM      9  C   UNL     1      -0.742   1.585  -1.213  0.00  0.00    +0.203 C 
ATOM     10  O   UNL     1      -1.736   2.268  -1.089  0.00  0.00    -0.277 OA
ATOM     11  H   UNL     1       0.415   0.786  -4.878  0.00  0.00    +0.150 HD
ATOM     12  H   UNL     1       0.614   0.653  -2.556  0.00  0.00    +0.159 HD
BRANCH   5  13
ATOM     13  C   UNL     1      -1.196   1.891  -5.952  0.00  0.00    +0.133 C 
BRANCH  13  14
ATOM     14  C   UNL     1      -0.480   1.398  -7.211  0.00  0.00    +0.178 C 
BRANCH  14  16
ATOM     15  C   UNL     1       0.080  -0.593  -8.423  0.00  0.00    +0.194 C 
ATOM     16  O   UNL     1      -0.562  -0.027  -7.278  0.00  0.00    -0.381 OA
ENDBRANCH  14  16
ENDBRANCH  13  14
ENDBRANCH   5  13
ENDBRANCH   4   9
ENDBRANCH   1   4
BRANCH   1  17
ATOM     17  C   UNL     1      -0.016   1.091   2.429  0.00  0.00    -0.003 C 
BRANCH  17  18
ATOM     18  C   UNL     1      -0.318   2.028   3.570  0.00  0.00    -0.056 A 
ATOM     19  C   UNL     1      -1.589   2.551   3.716  0.00  0.00    +0.005 A 
ATOM     20  C   UNL     1      -1.869   3.406   4.766  0.00  0.00    +0.038 A 
ATOM     21  C   UNL     1      -0.872   3.748   5.663  0.00  0.00    +0.123 A 
ATOM     22  C   UNL     1       0.402   3.228   5.513  0.00  0.00    +0.038 A 
ATOM     23  C   UNL     1       0.678   2.369   4.466  0.00  0.00    +0.005 A 
ATOM     24  F   UNL     1      -1.142   4.589   6.686  0.00  0.00    -0.205 F 
ENDBRANCH  17  18
BRANCH  17  25
ATOM     25  C   UNL     1      -0.499  -0.294   2.776  0.00  0.00    -0.020 A 
ATOM     26  C   UNL     1       0.209  -1.357   3.226  0.00  0.00    +0.010 A 
ATOM     27  C   UNL     1      -0.452  -2.543   3.484  0.00  0.00    +0.008 A 
ATOM     28  C   UNL     1      -1.789  -2.611   3.269  0.00  0.00    +0.045 A 
ATOM     29  S   UNL     1      -2.153  -0.961   2.691  0.00  0.00    -0.103 S 
ENDBRANCH  17  25
ENDBRANCH   1  17
TORSDOF 8
