REMARK  Name = ZINC12349453
REMARK  5 active torsions:
REMARK  status: ('A' for Active; 'I' for Inactive)
REMARK    1  A    between atoms: C_4  and  N_7
REMARK    2  A    between atoms: C_17  and  C_19
REMARK    3  A    between atoms: C_22  and  O_26
REMARK    4  A    between atoms: C_23  and  O_25
REMARK    5  A    between atoms: C_30  and  C_33
REMARK                            x       y       z     vdW  Elec       q    Type
REMARK                         _______ _______ _______ _____ _____    ______ ____
ROOT
ATOM      1  N   UNL     1       2.838   3.540  -0.137  0.00  0.00    -0.218 N 
ATOM      2  C   UNL     1       3.390   2.352   0.193  0.00  0.00    +0.278 A 
ATOM      3  O   UNL     1       4.576   2.139   0.378  0.00  0.00    -0.265 OA
ATOM      4  C   UNL     1       2.363   1.413   0.284  0.00  0.00    +0.070 A 
ATOM      5  C   UNL     1       1.179   2.048   0.002  0.00  0.00    +0.125 A 
ATOM      6  N   UNL     1       1.450   3.356  -0.257  0.00  0.00    -0.277 N 
ATOM      7  H   UNL     1       0.801   4.040  -0.483  0.00  0.00    +0.189 HD
ATOM      8  N   UNL     1      -0.017   1.372   0.010  0.00  0.00    -0.303 N 
ATOM      9  C   UNL     1       0.002  -0.004   0.002  0.00  0.00    +0.017 C 
ATOM     10  C   UNL     1       1.118  -0.713   0.270  0.00  0.00    +0.024 C 
ATOM     11  C   UNL     1       2.432  -0.050   0.624  0.00  0.00    +0.093 C 
ATOM     12  C   UNL     1       1.106  -2.121   0.234  0.00  0.00    +0.162 C 
ATOM     13  O   UNL     1       2.124  -2.729   0.498  0.00  0.00    -0.292 OA
ATOM     14  C   UNL     1      -0.136  -2.888  -0.122  0.00  0.00    +0.088 C 
ATOM     15  C   UNL     1      -1.009  -2.023  -1.038  0.00  0.00    +0.039 C 
ATOM     16  C   UNL     1      -1.299  -0.704  -0.319  0.00  0.00    +0.060 C 
ATOM     17  H   UNL     1      -0.858   1.855   0.016  0.00  0.00    +0.153 HD
ENDROOT
BRANCH   1  21
ATOM     18  C   UNL     1       4.889   7.122  -0.700  0.00  0.00    +0.000 A 
ATOM     19  C   UNL     1       3.514   7.082  -0.851  0.00  0.00    +0.002 A 
ATOM     20  C   UNL     1       2.832   5.897  -0.665  0.00  0.00    +0.028 A 
ATOM     21  C   UNL     1       3.526   4.743  -0.326  0.00  0.00    +0.067 A 
ATOM     22  C   UNL     1       4.905   4.787  -0.169  0.00  0.00    +0.028 A 
ATOM     23  C   UNL     1       5.583   5.975  -0.362  0.00  0.00    +0.002 A 
ENDBRANCH   1  21
BRANCH  11  24
ATOM     24  C   UNL     1       2.694  -0.211   2.099  0.00  0.00    -0.032 A 
ATOM     25  C   UNL     1       1.801   0.304   3.019  0.00  0.00    +0.008 A 
ATOM     26  C   UNL     1       2.037   0.158   4.373  0.00  0.00    +0.049 A 
ATOM     27  C   UNL     1       3.172  -0.506   4.811  0.00  0.00    +0.158 A 
ATOM     28  C   UNL     1       4.071  -1.025   3.885  0.00  0.00    +0.159 A 
ATOM     29  C   UNL     1       3.826  -0.879   2.529  0.00  0.00    +0.053 A 
BRANCH  28  30
ATOM     30  O   UNL     1       5.186  -1.677   4.309  0.00  0.00    -0.503 OA
ATOM     31  H   UNL     1       5.064  -2.629   4.427  0.00  0.00    +0.292 HD
ENDBRANCH  28  30
BRANCH  27  32
ATOM     32  O   UNL     1       3.406  -0.650   6.143  0.00  0.00    -0.503 OA
ATOM     33  H   UNL     1       3.029  -1.455   6.523  0.00  0.00    +0.292 HD
ENDBRANCH  27  32
ENDBRANCH  11  24
BRANCH  15  34
ATOM     34  C   UNL     1      -2.303  -2.738  -1.329  0.00  0.00    -0.006 A 
ATOM     35  C   UNL     1      -2.823  -3.109  -2.525  0.00  0.00    +0.011 A 
ATOM     36  C   UNL     1      -4.040  -3.763  -2.553  0.00  0.00    +0.008 A 
ATOM     37  C   UNL     1      -4.679  -4.014  -1.383  0.00  0.00    +0.045 A 
ATOM     38  S   UNL     1      -3.546  -3.322  -0.189  0.00  0.00    -0.101 S 
ENDBRANCH  15  34
TORSDOF 5
