REMARK  Name = ZINC04473451
REMARK  9 active torsions:
REMARK  status: ('A' for Active; 'I' for Inactive)
REMARK    1  A    between atoms: C_1  and  C_2
REMARK    2  A    between atoms: C_2  and  C_3
REMARK    3  A    between atoms: C_3  and  N_4
REMARK    4  A    between atoms: C_11  and  C_23
REMARK    5  A    between atoms: C_13  and  C_19
REMARK    6  A    between atoms: C_13  and  C_21
REMARK    7  A    between atoms: C_14  and  N_18
REMARK    8  A    between atoms: C_15  and  C_16
REMARK    9  A    between atoms: C_26  and  C_29
REMARK                            x       y       z     vdW  Elec       q    Type
REMARK                         _______ _______ _______ _____ _____    ______ ____
ROOT
ATOM      1  N   UNL     1       0.365   6.483   3.324  0.00  0.00    -0.298 NA
ATOM      2  C   UNL     1      -0.352   7.731   3.640  0.00  0.00    +0.112 C 
ATOM      3  C   UNL     1      -0.619   8.445   2.337  0.00  0.00    -0.007 C 
ATOM      4  C   UNL     1      -0.845   7.750   1.239  0.00  0.00    -0.026 C 
ATOM      5  C   UNL     1      -0.903   6.249   1.222  0.00  0.00    +0.044 C 
ATOM      6  C   UNL     1      -0.485   5.601   2.519  0.00  0.00    +0.093 C 
ATOM      7  C   UNL     1      -0.076   5.755   0.034  0.00  0.00    +0.067 C 
ATOM      8  C   UNL     1      -0.710   6.266  -1.261  0.00  0.00    +0.188 C 
ATOM      9  C   UNL     1      -0.969   7.741  -1.210  0.00  0.00    +0.054 C 
ATOM     10  C   UNL     1      -1.048   8.450  -0.054  0.00  0.00    +0.074 C 
ENDROOT
BRANCH   7  11
ATOM     11  C   UNL     1      -0.056   4.248   0.025  0.00  0.00    -0.041 A 
ATOM     12  C   UNL     1       1.131   3.576  -0.207  0.00  0.00    +0.004 A 
ATOM     13  C   UNL     1       1.155   2.196  -0.216  0.00  0.00    +0.009 A 
ATOM     14  C   UNL     1      -0.018   1.480   0.010  0.00  0.00    -0.018 A 
ATOM     15  C   UNL     1      -1.212   2.162   0.239  0.00  0.00    +0.009 A 
ATOM     16  C   UNL     1      -1.224   3.542   0.250  0.00  0.00    +0.004 A 
BRANCH  14  17
ATOM     17  C   UNL     1       0.002  -0.004   0.002  0.00  0.00    -0.018 A 
ATOM     18  C   UNL     1       1.193  -0.686  -0.238  0.00  0.00    +0.008 A 
ATOM     19  C   UNL     1       1.207  -2.066  -0.239  0.00  0.00    +0.001 A 
ATOM     20  C   UNL     1       0.040  -2.772  -0.014  0.00  0.00    +0.000 A 
ATOM     21  C   UNL     1      -1.147  -2.100   0.219  0.00  0.00    +0.001 A 
ATOM     22  C   UNL     1      -1.171  -0.721   0.228  0.00  0.00    +0.008 A 
ENDBRANCH  14  17
ENDBRANCH   7  11
BRANCH   9  23
ATOM     23  N   UNL     1      -1.136   8.409  -2.390  0.00  0.00    -0.358 N 
ATOM     24  H   UNL     1      -1.328   9.492  -2.387  0.00  0.00    +0.142 HD
ATOM     25  H   UNL     1      -1.078   7.863  -3.344  0.00  0.00    +0.142 HD
ENDBRANCH   9  23
BRANCH  10  26
ATOM     26  C   UNL     1      -1.325   9.854  -0.083  0.00  0.00    +0.101 C 
ATOM     27  N   UNL     1      -1.544  10.969  -0.106  0.00  0.00    -0.191 NA
ENDBRANCH  10  26
BRANCH   8  28
ATOM     28  C   UNL     1       0.196   5.977  -2.385  0.00  0.00    +0.091 C 
ATOM     29  N   UNL     1       0.895   5.754  -3.252  0.00  0.00    -0.194 NA
ENDBRANCH   8  28
BRANCH   8  30
ATOM     30  C   UNL     1      -1.984   5.562  -1.481  0.00  0.00    +0.091 C 
ATOM     31  N   UNL     1      -2.967   5.019  -1.651  0.00  0.00    -0.194 NA
ENDBRANCH   8  30
BRANCH   1  32
ATOM     32  C   UNL     1       0.811   5.808   4.550  0.00  0.00    +0.084 C 
BRANCH  32  34
ATOM     33  C   UNL     1       0.056   4.633   6.622  0.00  0.00    +0.005 C 
ATOM     34  C   UNL     1      -0.408   5.337   5.345  0.00  0.00    +0.012 C 
ENDBRANCH  32  34
ENDBRANCH   1  32
TORSDOF 8
