REMARK  Name = ZINC49115533
REMARK  7 active torsions:
REMARK  status: ('A' for Active; 'I' for Inactive)
REMARK    1  A    between atoms: C_1  and  C_2
REMARK    2  A    between atoms: C_2  and  C_3
REMARK    3  A    between atoms: C_3  and  C_4
REMARK    4  A    between atoms: C_4  and  C_6
REMARK    5  A    between atoms: C_4  and  N_16
REMARK    6  A    between atoms: N_8  and  C_9
REMARK    7  A    between atoms: C_9  and  C_10
REMARK                            x       y       z     vdW  Elec       q    Type
REMARK                         _______ _______ _______ _____ _____    ______ ____
ROOT
ATOM      1  C   UNL     1       0.739  -2.027  -1.265  0.00  0.00    +0.160 C 
ENDROOT
BRANCH   1   2
ATOM      2  N   UNL     1      -0.631  -2.534  -1.375  0.00  0.00    -0.288 N 
ATOM      3  C   UNL     1      -1.387  -2.679  -0.269  0.00  0.00    +0.298 C 
ATOM      4  O   UNL     1      -0.931  -2.389   0.821  0.00  0.00    -0.253 OA
ATOM      5  N   UNL     1      -2.648  -3.145  -0.370  0.00  0.00    -0.313 N 
ATOM      6  H   UNL     1      -0.995  -2.765  -2.244  0.00  0.00    +0.151 HD
ATOM      7  H   UNL     1      -3.011  -3.376  -1.239  0.00  0.00    +0.146 HD
ATOM      8  H   UNL     1      -3.192  -3.249   0.426  0.00  0.00    +0.146 HD
ENDBRANCH   1   2
BRANCH   1   9
ATOM      9  C   UNL     1       1.550  -2.512  -2.439  0.00  0.00    +0.234 C 
ATOM     10  O   UNL     1       1.033  -3.212  -3.285  0.00  0.00    -0.274 OA
ATOM     11  N   UNL     1       2.848  -2.168  -2.550  0.00  0.00    -0.309 N 
ATOM     12  H   UNL     1       3.261  -1.609  -1.874  0.00  0.00    +0.149 HD
BRANCH  11  13
ATOM     13  C   UNL     1       3.636  -2.640  -3.692  0.00  0.00    +0.146 C 
BRANCH  13  14
ATOM     14  C   UNL     1       5.045  -2.119  -3.578  0.00  0.00    +0.008 A 
ATOM     15  C   UNL     1       6.119  -2.686  -2.975  0.00  0.00    +0.028 A 
ATOM     16  C   UNL     1       7.330  -2.018  -2.996  0.00  0.00    +0.025 A 
ATOM     17  C   UNL     1       7.407  -0.817  -3.619  0.00  0.00    +0.060 A 
ATOM     18  S   UNL     1       5.736  -0.599  -4.211  0.00  0.00    -0.099 S 
ATOM     19 BR   UNL     1       8.854  -2.769  -2.167  0.00  0.00    -0.050 Br
ENDBRANCH  13  14
ENDBRANCH  11  13
ENDBRANCH   1   9
BRANCH   1  20
ATOM     20  C   UNL     1       0.718  -0.497  -1.257  0.00  0.00    +0.031 C 
BRANCH  20  22
ATOM     21  C   UNL     1      -0.019   1.526   0.010  0.00  0.00    +0.004 C 
ATOM     22  C   UNL     1       0.002  -0.004   0.002  0.00  0.00    -0.001 C 
ENDBRANCH  20  22
ENDBRANCH   1  20
TORSDOF 6
