REMARK  Name = ZINC02623383
REMARK  14 active torsions:
REMARK  status: ('A' for Active; 'I' for Inactive)
REMARK    1  A    between atoms: C_1  and  C_2
REMARK    2  A    between atoms: C_2  and  C_3
REMARK    3  A    between atoms: C_3  and  C_5
REMARK    4  A    between atoms: C_3  and  N_65
REMARK    5  A    between atoms: C_8  and  S_17
REMARK    6  A    between atoms: N_9  and  C_10
REMARK    7  A    between atoms: C_10  and  C_11
REMARK    8  A    between atoms: S_17  and  C_18
REMARK    9  A    between atoms: C_18  and  C_19
REMARK   10  A    between atoms: C_27  and  O_31
REMARK   11  A    between atoms: O_31  and  C_32
REMARK   12  A    between atoms: C_32  and  C_33
REMARK   13  A    between atoms: C_34  and  N_65
REMARK   14  A    between atoms: C_35  and  N_65
REMARK                            x       y       z     vdW  Elec       q    Type
REMARK                         _______ _______ _______ _____ _____    ______ ____
ROOT
ATOM      1  C   UNL     1      -2.783  -0.443   2.048  0.00  0.00    +0.121 A 
ATOM      2  N   UNL     1      -3.267  -0.179   3.228  0.00  0.00    -0.135 NA
ATOM      3  N   UNL     1      -4.112   0.787   3.153  0.00  0.00    -0.123 NA
ATOM      4  C   UNL     1      -4.208   1.200   1.910  0.00  0.00    +0.192 A 
ATOM      5  N   UNL     1      -3.360   0.430   1.167  0.00  0.00    -0.303 N 
ENDROOT
BRANCH   1   6
ATOM      6  C   UNL     1      -1.772  -1.510   1.715  0.00  0.00    +0.000 C 
BRANCH   6   9
ATOM      7  C   UNL     1      -2.631  -2.806   3.571  0.00  0.00    -0.096 C 
ATOM      8  C   UNL     1      -3.430  -3.230   1.325  0.00  0.00    -0.096 C 
ATOM      9  N   UNL     1      -2.261  -2.838   2.140  0.00  0.00    +0.383 N 
ATOM     10  H   UNL     1      -1.513  -3.528   2.004  0.00  0.00    -0.082 HD
ENDBRANCH   6   9
BRANCH   6  12
ATOM     11  C   UNL     1       0.590  -2.254   2.047  0.00  0.00    +0.002 C 
ATOM     12  C   UNL     1      -0.458  -1.212   2.441  0.00  0.00    -0.011 C 
ENDBRANCH   6  12
ENDBRANCH   1   6
BRANCH   5  13
ATOM     13  C   UNL     1      -3.122   0.517  -0.276  0.00  0.00    +0.160 C 
BRANCH  13  14
ATOM     14  C   UNL     1      -1.993   1.479  -0.542  0.00  0.00    -0.028 A 
ATOM     15  C   UNL     1      -0.690   1.019  -0.589  0.00  0.00    +0.005 A 
ATOM     16  C   UNL     1       0.345   1.901  -0.839  0.00  0.00    +0.000 A 
ATOM     17  C   UNL     1       0.078   3.243  -1.036  0.00  0.00    +0.000 A 
ATOM     18  C   UNL     1      -1.224   3.703  -0.985  0.00  0.00    +0.000 A 
ATOM     19  C   UNL     1      -2.260   2.821  -0.735  0.00  0.00    +0.005 A 
ENDBRANCH  13  14
ENDBRANCH   5  13
BRANCH   4  20
ATOM     20  S   UNL     1      -5.237   2.500   1.315  0.00  0.00    -0.077 S 
BRANCH  20  21
ATOM     21  C   UNL     1      -6.027   3.009   2.861  0.00  0.00    +0.173 C 
BRANCH  21  22
ATOM     22  C   UNL     1      -6.980   4.144   2.589  0.00  0.00    +0.229 C 
ATOM     23  O   UNL     1      -7.111   4.568   1.460  0.00  0.00    -0.275 OA
ATOM     24  N   UNL     1      -7.685   4.689   3.599  0.00  0.00    -0.264 N 
ATOM     25  C   UNL     1      -8.561   5.734   3.349  0.00  0.00    +0.165 A 
ATOM     26  N   UNL     1      -8.837   6.321   2.208  0.00  0.00    -0.225 NA
ATOM     27  C   UNL     1      -9.722   7.338   2.110  0.00  0.00    +0.081 A 
ATOM     28  C   UNL     1     -10.106   8.050   0.950  0.00  0.00    +0.032 A 
ATOM     29  C   UNL     1     -11.025   9.063   1.021  0.00  0.00    +0.048 A 
ATOM     30  C   UNL     1     -11.613   9.427   2.230  0.00  0.00    +0.122 A 
ATOM     31  C   UNL     1     -11.259   8.748   3.386  0.00  0.00    +0.063 A 
ATOM     32  C   UNL     1     -10.338   7.732   3.319  0.00  0.00    +0.044 A 
ATOM     33  S   UNL     1      -9.609   6.618   4.495  0.00  0.00    -0.052 S 
ATOM     34  H   UNL     1      -7.580   4.351   4.502  0.00  0.00    +0.157 HD
BRANCH  30  35
ATOM     35  O   UNL     1     -12.524  10.436   2.276  0.00  0.00    -0.492 OA
BRANCH  35  36
ATOM     36  C   UNL     1     -12.835  11.085   1.042  0.00  0.00    +0.225 C 
ATOM     37  C   UNL     1     -13.870  12.184   1.291  0.00  0.00    +0.048 C 
ENDBRANCH  35  36
ENDBRANCH  30  35
ENDBRANCH  21  22
ENDBRANCH  20  21
ENDBRANCH   4  20
TORSDOF 10
