REMARK  Name = ZINC10066474
REMARK  12 active torsions:
REMARK  status: ('A' for Active; 'I' for Inactive)
REMARK    1  A    between atoms: C_1  and  C_2
REMARK    2  A    between atoms: C_2  and  N_60
REMARK    3  A    between atoms: C_3  and  C_4
REMARK    4  A    between atoms: C_3  and  N_60
REMARK    5  A    between atoms: C_5  and  C_6
REMARK    6  A    between atoms: C_5  and  N_60
REMARK    7  A    between atoms: C_6  and  N_7
REMARK    8  A    between atoms: C_13  and  O_17
REMARK    9  A    between atoms: O_17  and  C_18
REMARK   10  A    between atoms: C_18  and  C_19
REMARK   11  A    between atoms: C_20  and  C_22
REMARK   12  A    between atoms: C_26  and  N_31
REMARK                            x       y       z     vdW  Elec       q    Type
REMARK                         _______ _______ _______ _____ _____    ______ ____
ROOT
ATOM      1  N   UNL     1       6.434   1.626   0.055  0.00  0.00    -0.248 N 
ATOM      2  C   UNL     1       5.248   0.922   0.190  0.00  0.00    +0.168 A 
ATOM      3  N   UNL     1       4.017   1.376   0.182  0.00  0.00    -0.224 NA
ATOM      4  C   UNL     1       2.944   0.566   0.326  0.00  0.00    +0.081 A 
ATOM      5  C   UNL     1       1.576   0.924   0.336  0.00  0.00    +0.032 A 
ATOM      6  C   UNL     1       0.603  -0.026   0.494  0.00  0.00    +0.048 A 
ATOM      7  C   UNL     1       0.921  -1.372   0.649  0.00  0.00    +0.122 A 
ATOM      8  C   UNL     1       2.253  -1.758   0.644  0.00  0.00    +0.063 A 
ATOM      9  C   UNL     1       3.232  -0.808   0.487  0.00  0.00    +0.044 A 
ATOM     10  S   UNL     1       5.007  -0.834   0.419  0.00  0.00    -0.052 S 
ATOM     11  C   UNL     1       7.612   0.973   0.090  0.00  0.00    +0.259 C 
ATOM     12  O   UNL     1       7.638  -0.224   0.304  0.00  0.00    -0.269 OA
ENDROOT
BRANCH  11  13
ATOM     13  C   UNL     1       8.866   1.708  -0.130  0.00  0.00    +0.076 A 
ATOM     14  C   UNL     1      10.125   1.213  -0.266  0.00  0.00    +0.029 A 
ATOM     15  C   UNL     1      11.204   2.090  -0.477  0.00  0.00    -0.008 A 
ATOM     16  C   UNL     1      12.576   1.770  -0.646  0.00  0.00    +0.041 A 
ATOM     17  C   UNL     1      13.499   2.747  -0.836  0.00  0.00    +0.127 A 
ATOM     18  C   UNL     1      13.142   4.090  -0.872  0.00  0.00    +0.034 A 
ATOM     19  C   UNL     1      11.818   4.446  -0.712  0.00  0.00    +0.018 A 
ATOM     20  C   UNL     1      10.870   3.465  -0.518  0.00  0.00    +0.020 A 
ATOM     21  S   UNL     1       9.111   3.469  -0.276  0.00  0.00    -0.084 S 
BRANCH  17  22
ATOM     22  N   UNL     1      14.921   2.373  -1.009  0.00  0.00    +0.056 N 
ATOM     23  O   UNL     1      15.251   1.201  -0.979  0.00  0.00    -0.126 OA
ATOM     24  O   UNL     1      15.761   3.238  -1.180  0.00  0.00    -0.126 OA
ENDBRANCH  17  22
ENDBRANCH  11  13
BRANCH   1  25
ATOM     25  C   UNL     1       6.406   3.079  -0.126  0.00  0.00    +0.097 C 
BRANCH  25  26
ATOM     26  C   UNL     1       6.628   3.765   1.224  0.00  0.00    -0.059 C 
BRANCH  26  27
ATOM     27  N   UNL     1       6.619   5.229   1.022  0.00  0.00    +0.380 N 
ATOM     28  H   UNL     1       7.276   5.466   0.269  0.00  0.00    -0.082 HD
BRANCH  27  30
ATOM     29  C   UNL     1       4.232   5.212   1.663  0.00  0.00    -0.017 C 
ATOM     30  C   UNL     1       5.265   5.678   0.635  0.00  0.00    -0.082 C 
ENDBRANCH  27  30
BRANCH  27  31
ATOM     31  C   UNL     1       7.043   5.913   2.262  0.00  0.00    -0.082 C 
ATOM     32  C   UNL     1       7.141   7.416   1.990  0.00  0.00    -0.017 C 
ENDBRANCH  27  31
ENDBRANCH  26  27
ENDBRANCH  25  26
ENDBRANCH   1  25
BRANCH   7  33
ATOM     33  O   UNL     1      -0.063  -2.298   0.805  0.00  0.00    -0.492 OA
BRANCH  33  34
ATOM     34  C   UNL     1      -1.410  -1.821   0.799  0.00  0.00    +0.225 C 
ATOM     35  C   UNL     1      -2.369  -2.999   0.985  0.00  0.00    +0.048 C 
ENDBRANCH  33  34
ENDBRANCH   7  33
TORSDOF 9
