REMARK  Name = ZINC35099387
REMARK  6 active torsions:
REMARK  status: ('A' for Active; 'I' for Inactive)
REMARK    1  A    between atoms: C_4  and  C_7
REMARK    2  A    between atoms: C_7  and  O_34
REMARK    3  A    between atoms: C_8  and  C_28
REMARK    4  A    between atoms: C_10  and  C_16
REMARK    5  A    between atoms: C_19  and  C_21
REMARK    6  A    between atoms: C_28  and  C_30
REMARK                            x       y       z     vdW  Elec       q    Type
REMARK                         _______ _______ _______ _____ _____    ______ ____
ROOT
ATOM      1  C   UNL     1       3.711  -0.707  -0.038  0.00  0.00    +0.172 C 
ATOM      2  C   UNL     1       4.147  -0.943  -1.488  0.00  0.00    +0.147 C 
ATOM      3  C   UNL     1       5.537  -1.587  -1.481  0.00  0.00    +0.156 C 
ATOM      4  N   UNL     1       6.456  -0.739  -0.719  0.00  0.00    -0.289 N 
ATOM      5  C   UNL     1       6.019   0.037   0.285  0.00  0.00    +0.303 C 
ATOM      6  O   UNL     1       6.825   0.715   0.891  0.00  0.00    -0.253 OA
ATOM      7  N   UNL     1       4.729   0.093   0.646  0.00  0.00    -0.267 N 
ATOM      8  H   UNL     1       7.399  -0.737  -0.945  0.00  0.00    +0.151 HD
ATOM      9  H   UNL     1       4.464   0.677   1.374  0.00  0.00    +0.153 HD
ENDROOT
BRANCH   1  13
ATOM     10  C   UNL     1      -0.017   1.378   0.010  0.00  0.00    +0.000 A 
ATOM     11  C   UNL     1       1.171   2.086   0.002  0.00  0.00    +0.000 A 
ATOM     12  C   UNL     1       2.377   1.411  -0.013  0.00  0.00    +0.008 A 
ATOM     13  C   UNL     1       2.396   0.029  -0.020  0.00  0.00    +0.003 A 
ATOM     14  C   UNL     1       1.208  -0.679  -0.012  0.00  0.00    +0.008 A 
ATOM     15  C   UNL     1       0.002  -0.004   0.002  0.00  0.00    +0.000 A 
ENDBRANCH   1  13
BRANCH   3  16
ATOM     16  C   UNL     1       5.459  -2.948  -0.840  0.00  0.00    +0.127 A 
ATOM     17  C   UNL     1       5.410  -4.124  -1.496  0.00  0.00    +0.047 A 
ATOM     18  C   UNL     1       5.343  -5.139  -0.520  0.00  0.00    +0.050 A 
ATOM     19  C   UNL     1       5.355  -4.520   0.690  0.00  0.00    +0.135 A 
ATOM     20  O   UNL     1       5.431  -3.192   0.481  0.00  0.00    -0.458 OA
BRANCH  19  21
ATOM     21  C   UNL     1       5.301  -5.189   2.007  0.00  0.00    +0.017 A 
ATOM     22  C   UNL     1       5.235  -6.582   2.083  0.00  0.00    +0.013 A 
ATOM     23  C   UNL     1       5.185  -7.200   3.315  0.00  0.00    +0.021 A 
ATOM     24  C   UNL     1       5.199  -6.443   4.474  0.00  0.00    +0.041 A 
ATOM     25  C   UNL     1       5.264  -5.062   4.405  0.00  0.00    +0.021 A 
ATOM     26  C   UNL     1       5.320  -4.432   3.179  0.00  0.00    +0.013 A 
ATOM     27 CL   UNL     1       5.134  -7.229   6.021  0.00  0.00    -0.084 Cl
ENDBRANCH  19  21
ENDBRANCH   3  16
BRANCH   2  28
ATOM     28  C   UNL     1       3.164  -1.860  -2.169  0.00  0.00    +0.245 C 
ATOM     29  O   UNL     1       2.501  -2.628  -1.514  0.00  0.00    -0.287 OA
BRANCH  28  30
ATOM     30  C   UNL     1       3.008  -1.818  -3.667  0.00  0.00    +0.451 C 
ATOM     31  F   UNL     1       2.045  -2.753  -4.062  0.00  0.00    -0.163 F 
ATOM     32  F   UNL     1       2.603  -0.537  -4.059  0.00  0.00    -0.163 F 
ATOM     33  F   UNL     1       4.232  -2.125  -4.272  0.00  0.00    -0.163 F 
ENDBRANCH  28  30
ENDBRANCH   2  28
BRANCH   1  34
ATOM     34  O   UNL     1       3.565  -1.963   0.628  0.00  0.00    -0.367 OA
ATOM     35  H   UNL     1       3.292  -1.888   1.553  0.00  0.00    +0.212 HD
ENDBRANCH   1  34
TORSDOF 6
