REMARK  Name = ZINC35371051
REMARK  15 active torsions:
REMARK  status: ('A' for Active; 'I' for Inactive)
REMARK    1  A    between atoms: C_1  and  N_2
REMARK    2  A    between atoms: N_2  and  C_3
REMARK    3  A    between atoms: N_2  and  C_4
REMARK    4  A    between atoms: C_4  and  C_5
REMARK    5  A    between atoms: C_5  and  N_6
REMARK    6  A    between atoms: N_6  and  C_7
REMARK    7  A    between atoms: C_7  and  C_8
REMARK    8  A    between atoms: C_14  and  C_16
REMARK    9  A    between atoms: C_16  and  C_17
REMARK   10  A    between atoms: C_17  and  C_19
REMARK   11  A    between atoms: C_17  and  C_29
REMARK   12  A    between atoms: C_21  and  O_27
REMARK   13  A    between atoms: C_23  and  O_25
REMARK   14  A    between atoms: O_25  and  C_26
REMARK   15  A    between atoms: O_27  and  C_28
REMARK                            x       y       z     vdW  Elec       q    Type
REMARK                         _______ _______ _______ _____ _____    ______ ____
ROOT
ATOM      1  C   UNL     1      -0.759  -4.022   4.194  0.00  0.00    +0.060 C 
ENDROOT
BRANCH   1   2
ATOM      2  C   UNL     1      -1.692  -4.943   3.449  0.00  0.00    -0.015 A 
ATOM      3  C   UNL     1      -2.983  -4.713   3.166  0.00  0.00    +0.087 A 
ATOM      4  N   UNL     1      -3.507  -5.773   2.478  0.00  0.00    -0.360 N 
ATOM      5  H   UNL     1      -4.422  -5.837   2.165  0.00  0.00    +0.165 HD
ATOM      6  C   UNL     1      -2.539  -6.736   2.296  0.00  0.00    +0.047 A 
ATOM      7  C   UNL     1      -1.358  -6.255   2.890  0.00  0.00    +0.003 A 
ATOM      8  C   UNL     1      -0.196  -7.028   2.854  0.00  0.00    +0.010 A 
ATOM      9  C   UNL     1      -0.211  -8.247   2.238  0.00  0.00    +0.001 A 
ATOM     10  C   UNL     1      -1.372  -8.724   1.646  0.00  0.00    +0.002 A 
ATOM     11  C   UNL     1      -2.533  -7.982   1.678  0.00  0.00    +0.026 A 
ENDBRANCH   1   2
BRANCH   1  12
ATOM     12  C   UNL     1      -1.296  -3.778   5.580  0.00  0.00    -0.033 A 
ATOM     13  C   UNL     1      -2.542  -3.205   5.746  0.00  0.00    +0.050 A 
ATOM     14  C   UNL     1      -3.039  -2.979   7.022  0.00  0.00    +0.124 A 
ATOM     15  C   UNL     1      -2.284  -3.328   8.131  0.00  0.00    +0.091 A 
ATOM     16  C   UNL     1      -1.033  -3.903   7.962  0.00  0.00    +0.124 A 
ATOM     17  C   UNL     1      -0.543  -4.132   6.684  0.00  0.00    +0.050 A 
BRANCH  16  18
ATOM     18  O   UNL     1      -0.290  -4.246   9.046  0.00  0.00    -0.495 OA
ATOM     19  C   UNL     1      -0.859  -3.986  10.331  0.00  0.00    +0.277 C 
ENDBRANCH  16  18
BRANCH  14  20
ATOM     20  O   UNL     1      -4.265  -2.415   7.185  0.00  0.00    -0.495 OA
ATOM     21  C   UNL     1      -4.712  -2.211   8.527  0.00  0.00    +0.277 C 
ENDBRANCH  14  20
ENDBRANCH   1  12
BRANCH   1  22
ATOM     22  C   UNL     1      -0.652  -2.691   3.446  0.00  0.00    +0.109 C 
BRANCH  22  24
ATOM     23  N   UNL     1       0.637  -0.589   3.635  0.00  0.00    -0.299 N 
ATOM     24  C   UNL     1       0.373  -1.817   4.122  0.00  0.00    +0.217 C 
ATOM     25  O   UNL     1       0.960  -2.219   5.105  0.00  0.00    -0.276 OA
BRANCH  23  26
ATOM     26  C   UNL     1      -0.071  -0.103   2.448  0.00  0.00    +0.089 C 
BRANCH  26  27
ATOM     27  C   UNL     1       0.713  -0.491   1.192  0.00  0.00    -0.060 C 
BRANCH  27  29
ATOM     28  C   UNL     1      -0.018   1.465   0.010  0.00  0.00    -0.097 C 
ATOM     29  N   UNL     1       0.002  -0.004   0.002  0.00  0.00    +0.377 N 
ATOM     30  C   UNL     1       0.690  -0.478  -1.207  0.00  0.00    -0.097 C 
ATOM     31  H   UNL     1      -0.945  -0.353   0.009  0.00  0.00    -0.083 HD
ENDBRANCH  27  29
ENDBRANCH  26  27
ENDBRANCH  23  26
BRANCH  23  32
ATOM     32  C   UNL     1       1.634   0.261   4.292  0.00  0.00    +0.142 C 
BRANCH  32  33
ATOM     33  C   UNL     1       0.960   1.101   5.347  0.00  0.00    -0.030 A 
ATOM     34  C   UNL     1       0.448   2.342   5.020  0.00  0.00    +0.005 A 
ATOM     35  C   UNL     1      -0.170   3.112   5.987  0.00  0.00    +0.000 A 
ATOM     36  C   UNL     1      -0.275   2.640   7.282  0.00  0.00    +0.000 A 
ATOM     37  C   UNL     1       0.236   1.398   7.610  0.00  0.00    +0.000 A 
ATOM     38  C   UNL     1       0.850   0.626   6.641  0.00  0.00    +0.005 A 
ENDBRANCH  32  33
ENDBRANCH  23  32
ENDBRANCH  22  24
ENDBRANCH   1  22
TORSDOF 11
