REMARK  Name = ZINC05552114
REMARK  7 active torsions:
REMARK  status: ('A' for Active; 'I' for Inactive)
REMARK    1  A    between atoms: C_1  and  C_2
REMARK    2  A    between atoms: C_3  and  C_12
REMARK    3  A    between atoms: C_12  and  C_14
REMARK    4  A    between atoms: C_12  and  C_22
REMARK    5  A    between atoms: C_14  and  C_15
REMARK    6  A    between atoms: C_20  and  N_21
REMARK    7  A    between atoms: C_31  and  C_32
REMARK                            x       y       z     vdW  Elec       q    Type
REMARK                         _______ _______ _______ _____ _____    ______ ____
ROOT
ATOM      1  C   UNL     1      -0.843   0.022   0.088  0.00  0.00    +0.039 C 
ENDROOT
BRANCH   1   4
ATOM      2  C   UNL     1      -2.269  -0.075   2.843  0.00  0.00    +0.063 C 
ATOM      3  C   UNL     1      -2.379  -1.122   1.764  0.00  0.00    +0.017 A 
ATOM      4  C   UNL     1      -1.758  -1.071   0.575  0.00  0.00    -0.015 A 
ATOM      5  C   UNL     1      -2.134  -2.284  -0.156  0.00  0.00    +0.003 A 
ATOM      6  C   UNL     1      -1.815  -2.796  -1.415  0.00  0.00    +0.010 A 
ATOM      7  C   UNL     1      -2.344  -3.990  -1.816  0.00  0.00    +0.001 A 
ATOM      8  C   UNL     1      -3.197  -4.699  -0.981  0.00  0.00    +0.002 A 
ATOM      9  C   UNL     1      -3.525  -4.212   0.265  0.00  0.00    +0.026 A 
ATOM     10  C   UNL     1      -2.998  -2.998   0.694  0.00  0.00    +0.047 A 
ATOM     11  N   UNL     1      -3.128  -2.264   1.851  0.00  0.00    -0.358 N 
ATOM     12  H   UNL     1      -3.668  -2.519   2.615  0.00  0.00    +0.166 HD
ENDBRANCH   1   4
BRANCH   1  13
ATOM     13  C   UNL     1       0.560  -0.196   0.656  0.00  0.00    +0.073 C 
ATOM     14  C   UNL     1       0.936  -1.659   0.602  0.00  0.00    -0.013 A 
ATOM     15  C   UNL     1       1.095  -2.564  -0.417  0.00  0.00    +0.006 A 
ATOM     16  C   UNL     1       1.455  -3.871  -0.131  0.00  0.00    +0.000 A 
ATOM     17  C   UNL     1       1.655  -4.259   1.182  0.00  0.00    +0.002 A 
ATOM     18  C   UNL     1       1.499  -3.356   2.212  0.00  0.00    +0.028 A 
ATOM     19  C   UNL     1       1.134  -2.034   1.933  0.00  0.00    +0.068 A 
ATOM     20  N   UNL     1       0.919  -0.964   2.757  0.00  0.00    -0.256 NA
ATOM     21  C   UNL     1       0.592   0.114   2.139  0.00  0.00    +0.025 C 
ATOM     22  C   UNL     1       0.293   1.448   2.774  0.00  0.00    +0.061 C 
ENDBRANCH   1  13
BRANCH   1  23
ATOM     23  C   UNL     1      -1.377   1.379   0.553  0.00  0.00    +0.046 C 
BRANCH  23  24
ATOM     24  C   UNL     1      -2.176   2.012  -0.556  0.00  0.00    -0.026 A 
ATOM     25  C   UNL     1      -1.565   2.882  -1.439  0.00  0.00    +0.005 A 
ATOM     26  C   UNL     1      -2.297   3.460  -2.460  0.00  0.00    +0.000 A 
ATOM     27  C   UNL     1      -3.644   3.177  -2.596  0.00  0.00    +0.002 A 
ATOM     28  C   UNL     1      -4.261   2.312  -1.714  0.00  0.00    +0.023 A 
ATOM     29  C   UNL     1      -3.528   1.726  -0.690  0.00  0.00    +0.028 A 
BRANCH  29  30
ATOM     30  N   UNL     1      -4.150   0.851   0.204  0.00  0.00    -0.358 N 
ATOM     31  H   UNL     1      -3.637   0.442   0.918  0.00  0.00    +0.142 HD
ATOM     32  H   UNL     1      -5.095   0.652   0.110  0.00  0.00    +0.142 HD
ENDBRANCH  29  30
ENDBRANCH  23  24
ENDBRANCH   1  23
TORSDOF 5
