REMARK  Name = ZINC54689939
REMARK  7 active torsions:
REMARK  status: ('A' for Active; 'I' for Inactive)
REMARK    1  A    between atoms: C_1  and  C_2
REMARK    2  A    between atoms: C_7  and  S_10
REMARK    3  A    between atoms: S_10  and  C_11
REMARK    4  A    between atoms: C_11  and  C_12
REMARK    5  A    between atoms: C_12  and  C_13
REMARK    6  A    between atoms: N_15  and  C_16
REMARK    7  A    between atoms: C_20  and  N_22
REMARK                            x       y       z     vdW  Elec       q    Type
REMARK                         _______ _______ _______ _____ _____    ______ ____
ROOT
ATOM      1  C   UNL     1       1.986  -6.582   3.757  0.00  0.00    +0.218 C 
ATOM      2  O   UNL     1       1.361  -7.085   2.847  0.00  0.00    -0.275 OA
ATOM      3  N   UNL     1       2.528  -7.361   4.714  0.00  0.00    -0.285 N 
ATOM      4  H   UNL     1       3.083  -6.966   5.404  0.00  0.00    +0.155 HD
ENDROOT
BRANCH   3   5
ATOM      5  C   UNL     1       2.290  -8.741   4.711  0.00  0.00    +0.035 A 
ATOM      6  C   UNL     1       2.161  -9.426   5.912  0.00  0.00    +0.026 A 
ATOM      7  C   UNL     1       1.927 -10.788   5.912  0.00  0.00    +0.042 A 
ATOM      8  C   UNL     1       1.821 -11.473   4.715  0.00  0.00    +0.144 A 
ATOM      9  C   UNL     1       1.949 -10.792   3.509  0.00  0.00    +0.062 A 
ATOM     10  C   UNL     1       2.178  -9.424   3.509  0.00  0.00    +0.049 A 
ATOM     11  F   UNL     1       1.592 -12.805   4.718  0.00  0.00    -0.204 F 
BRANCH   9  12
ATOM     12  N   UNL     1       1.843 -11.485   2.299  0.00  0.00    -0.356 N 
ATOM     13  H   UNL     1       1.679 -12.441   2.300  0.00  0.00    +0.142 HD
ATOM     14  H   UNL     1       1.933 -11.009   1.458  0.00  0.00    +0.142 HD
ENDBRANCH   9  12
ENDBRANCH   3   5
BRANCH   1  15
ATOM     15  C   UNL     1       2.155  -5.086   3.818  0.00  0.00    +0.107 C 
BRANCH  15  16
ATOM     16  C   UNL     1       1.448  -4.443   2.623  0.00  0.00    +0.078 C 
BRANCH  16  17
ATOM     17  S   UNL     1       1.651  -2.642   2.696  0.00  0.00    -0.157 S 
BRANCH  17  23
ATOM     18  C   UNL     1      -0.002   1.526   0.003  0.00  0.00    +0.007 C 
ATOM     19  C   UNL     1       0.011  -0.004  -0.002  0.00  0.00    -0.013 C 
ATOM     20  C   UNL     1       0.718  -0.503  -1.263  0.00  0.00    +0.003 C 
ATOM     21  C   UNL     1       0.732  -2.033  -1.268  0.00  0.00    +0.001 C 
ATOM     22  C   UNL     1       1.476  -2.541  -0.032  0.00  0.00    +0.014 C 
ATOM     23  C   UNL     1       0.769  -2.041   1.230  0.00  0.00    +0.047 C 
ATOM     24  C   UNL     1       0.755  -0.511   1.235  0.00  0.00    +0.017 C 
ENDBRANCH  17  23
ENDBRANCH  16  17
ENDBRANCH  15  16
ENDBRANCH   1  15
TORSDOF 6
