REMARK  Name = ZINC54740181
REMARK  5 active torsions:
REMARK  status: ('A' for Active; 'I' for Inactive)
REMARK    1  A    between atoms: C_1  and  C_2
REMARK    2  A    between atoms: C_3  and  C_16
REMARK    3  A    between atoms: C_4  and  C_15
REMARK    4  A    between atoms: N_5  and  C_7
REMARK    5  A    between atoms: C_16  and  C_18
REMARK                            x       y       z     vdW  Elec       q    Type
REMARK                         _______ _______ _______ _____ _____    ______ ____
ROOT
ATOM      1  C   UNL     1      -0.261   1.488   0.007  0.00  0.00    +0.068 C 
ATOM      2  C   UNL     1      -0.105  -0.010   0.001  0.00  0.00    +0.065 A 
ATOM      3  C   UNL     1       0.011  -0.818  -1.135  0.00  0.00    +0.013 A 
ATOM      4  C   UNL     1       0.133  -2.101  -0.724  0.00  0.00    +0.041 A 
ATOM      5  N   UNL     1       0.096  -2.105   0.625  0.00  0.00    -0.263 N 
ATOM      6  N   UNL     1      -0.049  -0.780   1.057  0.00  0.00    -0.176 NA
ATOM      7  C   UNL     1       0.283  -3.309  -1.612  0.00  0.00    +0.065 C 
ENDROOT
BRANCH   5   8
ATOM      8  C   UNL     1       0.195  -3.286   1.486  0.00  0.00    +0.130 C 
ATOM      9  C   UNL     1       1.411  -3.140   2.416  0.00  0.00    +0.051 C 
ATOM     10  C   UNL     1       1.315  -4.234   3.517  0.00  0.00    +0.168 C 
ATOM     11  S   UNL     1      -0.490  -4.184   3.885  0.00  0.00    -0.029 S 
ATOM     12  O   UNL     1      -0.982  -5.514   3.971  0.00  0.00    -0.174 OA
ATOM     13  O   UNL     1      -0.717  -3.283   4.961  0.00  0.00    -0.174 OA
ATOM     14  C   UNL     1      -1.097  -3.419   2.328  0.00  0.00    +0.192 C 
ENDBRANCH   5   8
BRANCH   3  15
ATOM     15  C   UNL     1      -0.000  -0.343  -2.566  0.00  0.00    +0.111 C 
ATOM     16  C   UNL     1      -1.427   0.037  -2.966  0.00  0.00    +0.029 C 
ATOM     17 CL   UNL     1       1.073   1.096  -2.729  0.00  0.00    -0.117 Cl
ENDBRANCH   3  15
TORSDOF 2
