REMARK  Name = ZINC65621942
REMARK  11 active torsions:
REMARK  status: ('A' for Active; 'I' for Inactive)
REMARK    1  A    between atoms: C_1  and  C_2
REMARK    2  A    between atoms: C_2  and  C_3
REMARK    3  A    between atoms: C_3  and  C_4
REMARK    4  A    between atoms: C_4  and  C_5
REMARK    5  A    between atoms: C_5  and  C_6
REMARK    6  A    between atoms: C_5  and  N_20
REMARK    7  A    between atoms: N_8  and  N_9
REMARK    8  A    between atoms: N_9  and  C_10
REMARK    9  A    between atoms: C_10  and  N_12
REMARK   10  A    between atoms: N_12  and  C_13
REMARK   11  A    between atoms: C_18  and  C_19
REMARK                            x       y       z     vdW  Elec       q    Type
REMARK                         _______ _______ _______ _____ _____    ______ ____
ROOT
ATOM      1  C   UNL     1       1.631  -4.048   2.403  0.00  0.00    +0.249 C 
ATOM      2  O   UNL     1       0.869  -4.751   3.032  0.00  0.00    -0.272 OA
ATOM      3  N   UNL     1       2.592  -4.607   1.642  0.00  0.00    -0.234 N 
ATOM      4  H   UNL     1       3.201  -4.045   1.139  0.00  0.00    +0.173 HD
ENDROOT
BRANCH   3   5
ATOM      5  N   UNL     1       2.711  -6.002   1.577  0.00  0.00    -0.246 N 
ATOM      6  H   UNL     1       2.101  -6.564   2.080  0.00  0.00    +0.172 HD
BRANCH   5   7
ATOM      7  C   UNL     1       3.672  -6.561   0.816  0.00  0.00    +0.147 C 
ATOM      8  S   UNL     1       3.817  -8.265   0.737  0.00  0.00    -0.017 S 
BRANCH   7   9
ATOM      9  N   UNL     1       4.519  -5.780   0.117  0.00  0.00    -0.322 N 
ATOM     10  H   UNL     1       4.436  -4.814   0.162  0.00  0.00    +0.148 HD
BRANCH   9  11
ATOM     11  C   UNL     1       5.563  -6.388  -0.711  0.00  0.00    +0.075 C 
ATOM     12  C   UNL     1       6.788  -6.689   0.155  0.00  0.00    +0.022 C 
ATOM     13  C   UNL     1       7.314  -5.389   0.765  0.00  0.00    +0.002 C 
ATOM     14  C   UNL     1       7.706  -4.422  -0.354  0.00  0.00    +0.000 C 
ATOM     15  C   UNL     1       6.480  -4.121  -1.220  0.00  0.00    +0.005 C 
ATOM     16  C   UNL     1       5.955  -5.421  -1.830  0.00  0.00    +0.006 C 
ATOM     17  C   UNL     1       4.729  -5.120  -2.696  0.00  0.00    +0.009 C 
ENDBRANCH   9  11
ENDBRANCH   7   9
ENDBRANCH   5   7
ENDBRANCH   3   5
BRANCH   1  18
ATOM     18  C   UNL     1       1.503  -2.548   2.473  0.00  0.00    +0.162 C 
BRANCH  18  19
ATOM     19  N   UNL     1       0.752  -2.177   3.675  0.00  0.00    -0.288 N 
ATOM     20  C   UNL     1      -0.509  -2.619   3.845  0.00  0.00    +0.298 C 
ATOM     21  O   UNL     1      -1.024  -3.326   3.001  0.00  0.00    -0.253 OA
ATOM     22  N   UNL     1      -1.199  -2.278   4.951  0.00  0.00    -0.313 N 
ATOM     23  H   UNL     1       1.164  -1.613   4.349  0.00  0.00    +0.151 HD
ATOM     24  H   UNL     1      -0.788  -1.714   5.625  0.00  0.00    +0.146 HD
ATOM     25  H   UNL     1      -2.107  -2.597   5.074  0.00  0.00    +0.146 HD
ENDBRANCH  18  19
BRANCH  18  26
ATOM     26  C   UNL     1       0.763  -2.041   1.233  0.00  0.00    +0.032 C 
BRANCH  26  27
ATOM     27  C   UNL     1       0.742  -0.511   1.242  0.00  0.00    +0.002 C 
BRANCH  27  29
ATOM     28  C   UNL     1      -0.019   1.526   0.010  0.00  0.00    +0.004 C 
ATOM     29  C   UNL     1       0.002  -0.004   0.002  0.00  0.00    -0.003 C 
ENDBRANCH  27  29
ENDBRANCH  26  27
ENDBRANCH  18  26
ENDBRANCH   1  18
TORSDOF 9
