REMARK  Name = ZINC04976490
REMARK  4 active torsions:
REMARK  status: ('A' for Active; 'I' for Inactive)
REMARK    1  A    between atoms: N_9  and  C_10
REMARK    2  A    between atoms: C_12  and  O_22
REMARK    3  A    between atoms: C_14  and  O_21
REMARK    4  A    between atoms: C_16  and  O_20
REMARK                            x       y       z     vdW  Elec       q    Type
REMARK                         _______ _______ _______ _____ _____    ______ ____
ROOT
ATOM      1  C   UNL     1      -1.688   5.838   0.050  0.00  0.00    +0.203 A 
ATOM      2  N   UNL     1      -0.391   5.728   0.037  0.00  0.00    -0.231 NA
ATOM      3  C   UNL     1      -0.050   4.417   0.026  0.00  0.00    +0.147 A 
ATOM      4  C   UNL     1       1.166   3.712   0.011  0.00  0.00    +0.149 A 
ATOM      5  N   UNL     1       1.128   2.384   0.004  0.00  0.00    -0.201 NA
ATOM      6  C   UNL     1      -0.021   1.732   0.012  0.00  0.00    +0.226 A 
ATOM      7  N   UNL     1      -1.185   2.350   0.021  0.00  0.00    -0.198 NA
ATOM      8  C   UNL     1      -1.245   3.678   0.034  0.00  0.00    +0.169 A 
ATOM      9  N   UNL     1      -2.260   4.601   0.048  0.00  0.00    -0.285 N 
ATOM     10 CL   UNL     1       0.002  -0.004   0.002  0.00  0.00    -0.041 Cl
ATOM     11  N   UNL     1       2.374   4.386   0.003  0.00  0.00    -0.341 N 
ATOM     12  H   UNL     1       2.902   4.133   0.814  0.00  0.00    +0.144 HD
ATOM     13  H   UNL     1       2.389   5.356   0.009  0.00  0.00    +0.144 HD
ENDROOT
BRANCH   9  14
ATOM     14  C   UNL     1      -3.696   4.310   0.060  0.00  0.00    +0.253 C 
ATOM     15  C   UNL     1      -4.185   4.095  -1.375  0.00  0.00    +0.195 C 
ATOM     16  C   UNL     1      -5.697   3.851  -1.359  0.00  0.00    +0.178 C 
ATOM     17  C   UNL     1      -6.388   5.039  -0.681  0.00  0.00    +0.171 C 
ATOM     18  C   UNL     1      -5.814   5.218   0.727  0.00  0.00    +0.196 C 
ATOM     19  O   UNL     1      -4.400   5.409   0.642  0.00  0.00    -0.351 OA
BRANCH  17  20
ATOM     20  O   UNL     1      -6.158   6.225  -1.445  0.00  0.00    -0.387 OA
ATOM     21  H   UNL     1      -6.563   7.019  -1.071  0.00  0.00    +0.210 HD
ENDBRANCH  17  20
BRANCH  16  22
ATOM     22  O   UNL     1      -6.175   3.722  -2.700  0.00  0.00    -0.386 OA
ATOM     23  H   UNL     1      -7.128   3.573  -2.765  0.00  0.00    +0.210 HD
ENDBRANCH  16  22
BRANCH  15  24
ATOM     24  O   UNL     1      -3.525   2.961  -1.939  0.00  0.00    -0.385 OA
ATOM     25  H   UNL     1      -3.787   2.766  -2.849  0.00  0.00    +0.210 HD
ENDBRANCH  15  24
ENDBRANCH   9  14
TORSDOF 4
