REMARK  Name = ZINC01339191
REMARK  11 active torsions:
REMARK  status: ('A' for Active; 'I' for Inactive)
REMARK    1  A    between atoms: C_1  and  C_2
REMARK    2  A    between atoms: C_2  and  C_3
REMARK    3  A    between atoms: C_6  and  N_9
REMARK    4  A    between atoms: N_9  and  C_10
REMARK    5  A    between atoms: C_10  and  C_12
REMARK    6  A    between atoms: C_10  and  C_18
REMARK    7  A    between atoms: C_15  and  C_17
REMARK    8  A    between atoms: N_20  and  C_21
REMARK    9  A    between atoms: C_21  and  C_22
REMARK   10  A    between atoms: C_27  and  C_29
REMARK   11  A    between atoms: C_29  and  N_30
REMARK                            x       y       z     vdW  Elec       q    Type
REMARK                         _______ _______ _______ _____ _____    ______ ____
ROOT
ATOM      1  N   UNL     1      -2.609   3.404   1.702  0.00  0.00    -0.251 N 
ATOM      2  C   UNL     1      -1.577   2.578   1.443  0.00  0.00    +0.242 C 
ATOM      3  O   UNL     1      -1.139   1.862   2.318  0.00  0.00    -0.273 OA
ENDROOT
BRANCH   1   7
ATOM      4  C   UNL     1      -4.825   5.017  -1.436  0.00  0.00    -0.048 A 
ATOM      5  C   UNL     1      -3.860   4.060  -1.693  0.00  0.00    +0.005 A 
ATOM      6  C   UNL     1      -3.124   3.523  -0.655  0.00  0.00    +0.024 A 
ATOM      7  C   UNL     1      -3.353   3.946   0.648  0.00  0.00    +0.038 A 
ATOM      8  C   UNL     1      -4.327   4.903   0.903  0.00  0.00    +0.024 A 
ATOM      9  C   UNL     1      -5.055   5.440  -0.140  0.00  0.00    +0.005 A 
BRANCH   4  11
ATOM     10  C   UNL     1      -6.885   4.759  -2.792  0.00  0.00    +0.009 C 
ATOM     11  C   UNL     1      -5.626   5.601  -2.571  0.00  0.00    +0.032 C 
ENDBRANCH   4  11
ENDBRANCH   1   7
BRANCH   1  12
ATOM     12  C   UNL     1      -2.953   3.735   3.087  0.00  0.00    +0.233 C 
BRANCH  12  13
ATOM     13  C   UNL     1      -2.841   5.224   3.291  0.00  0.00    +0.135 A 
ATOM     14  C   UNL     1      -2.345   5.834   4.382  0.00  0.00    +0.047 A 
ATOM     15  C   UNL     1      -2.428   7.226   4.147  0.00  0.00    +0.045 A 
ATOM     16  C   UNL     1      -2.977   7.383   2.929  0.00  0.00    +0.102 A 
ATOM     17  O   UNL     1      -3.225   6.167   2.415  0.00  0.00    -0.462 OA
ATOM     18  C   UNL     1      -3.265   8.700   2.256  0.00  0.00    +0.086 C 
ENDBRANCH  12  13
BRANCH  12  19
ATOM     19  C   UNL     1      -4.365   3.293   3.374  0.00  0.00    +0.242 C 
ATOM     20  O   UNL     1      -5.020   2.755   2.506  0.00  0.00    -0.273 OA
ATOM     21  N   UNL     1      -4.900   3.497   4.594  0.00  0.00    -0.306 N 
ATOM     22  H   UNL     1      -4.376   3.927   5.288  0.00  0.00    +0.149 HD
BRANCH  21  23
ATOM     23  C   UNL     1      -6.273   3.067   4.873  0.00  0.00    +0.178 C 
BRANCH  23  24
ATOM     24  C   UNL     1      -6.626   3.408   6.298  0.00  0.00    +0.122 A 
ATOM     25  C   UNL     1      -7.181   4.559   6.717  0.00  0.00    +0.046 A 
ATOM     26  C   UNL     1      -7.339   4.451   8.118  0.00  0.00    +0.041 A 
ATOM     27  C   UNL     1      -6.871   3.241   8.471  0.00  0.00    +0.195 A 
ATOM     28  O   UNL     1      -6.446   2.611   7.363  0.00  0.00    -0.466 OA
ENDBRANCH  23  24
ENDBRANCH  21  23
ENDBRANCH  12  19
ENDBRANCH   1  12
BRANCH   2  29
ATOM     29  C   UNL     1      -0.966   2.544   0.066  0.00  0.00    +0.242 C 
BRANCH  29  30
ATOM     30  N   UNL     1       0.454   2.198   0.169  0.00  0.00    -0.235 N 
ATOM     31  C   UNL     1       1.505   3.073   0.308  0.00  0.00    +0.090 A 
ATOM     32  C   UNL     1       1.606   4.457   0.397  0.00  0.00    +0.029 A 
ATOM     33  C   UNL     1       2.833   5.042   0.534  0.00  0.00    +0.002 A 
ATOM     34  C   UNL     1       3.984   4.265   0.584  0.00  0.00    +0.002 A 
ATOM     35  C   UNL     1       3.913   2.906   0.499  0.00  0.00    +0.032 A 
ATOM     36  C   UNL     1       2.666   2.281   0.358  0.00  0.00    +0.113 A 
ATOM     37  N   UNL     1       2.287   0.992   0.251  0.00  0.00    -0.129 NA
ATOM     38  N   UNL     1       1.008   0.910   0.140  0.00  0.00    -0.064 NA
ENDBRANCH  29  30
ENDBRANCH   2  29
TORSDOF 9
