REMARK  Name = ZINC08951352
REMARK  3 active torsions:
REMARK  status: ('A' for Active; 'I' for Inactive)
REMARK    1  A    between atoms: C_5  and  O_15
REMARK    2  A    between atoms: C_6  and  C_7
REMARK    3  A    between atoms: N_8  and  C_9
REMARK                            x       y       z     vdW  Elec       q    Type
REMARK                         _______ _______ _______ _____ _____    ______ ____
ROOT
ATOM      1  C   UNL     1      -0.017   1.394   0.010  0.00  0.00    +0.027 A 
ATOM      2  C   UNL     1       1.169   2.097   0.002  0.00  0.00    +0.015 A 
ATOM      3  C   UNL     1       2.380   1.425  -0.013  0.00  0.00    +0.032 A 
ATOM      4  C   UNL     1       2.413   0.043  -0.021  0.00  0.00    +0.056 A 
ATOM      5  C   UNL     1       1.231  -0.680  -0.014  0.00  0.00    +0.139 A 
ATOM      6  C   UNL     1       0.002  -0.004   0.002  0.00  0.00    +0.037 A 
ATOM      7  I   UNL     1       4.253  -0.959  -0.045  0.00  0.00    -0.040 I 
ATOM      8  I   UNL     1       1.139   4.192   0.014  0.00  0.00    -0.044 I 
ENDROOT
BRANCH   6   9
ATOM      9  C   UNL     1      -1.259  -0.761   0.011  0.00  0.00    +0.124 C 
ATOM     10  N   UNL     1      -1.237  -2.064   0.003  0.00  0.00    -0.233 NA
BRANCH  10  11
ATOM     11  C   UNL     1      -2.412  -2.769   0.011  0.00  0.00    +0.194 A 
ATOM     12  C   UNL     1      -2.566  -4.171   0.011  0.00  0.00    +0.184 A 
ATOM     13  N   UNL     1      -3.860  -4.387   0.021  0.00  0.00    -0.161 NA
ATOM     14  N   UNL     1      -4.473  -3.258   0.027  0.00  0.00    -0.195 N 
ATOM     15  H   UNL     1      -5.438  -3.158   0.035  0.00  0.00    +0.213 HD
ATOM     16  N   UNL     1      -3.641  -2.278   0.026  0.00  0.00    -0.135 NA
ENDBRANCH  10  11
ENDBRANCH   6   9
BRANCH   5  17
ATOM     17  O   UNL     1       1.263  -2.038  -0.022  0.00  0.00    -0.505 OA
ATOM     18  H   UNL     1       1.280  -2.436   0.859  0.00  0.00    +0.292 HD
ENDBRANCH   5  17
TORSDOF 3
