REMARK  Name = ZINC03503314
REMARK  9 active torsions:
REMARK  status: ('A' for Active; 'I' for Inactive)
REMARK    1  A    between atoms: C_1  and  C_2
REMARK    2  A    between atoms: C_2  and  C_3
REMARK    3  A    between atoms: C_2  and  C_4
REMARK    4  A    between atoms: C_2  and  N_5
REMARK    5  A    between atoms: C_9  and  C_11
REMARK    6  A    between atoms: C_11  and  O_12
REMARK    7  A    between atoms: O_12  and  C_13
REMARK    8  A    between atoms: C_13  and  C_15
REMARK    9  A    between atoms: C_20  and  N_21
REMARK                            x       y       z     vdW  Elec       q    Type
REMARK                         _______ _______ _______ _____ _____    ______ ____
ROOT
ATOM      1  O   UNL     1       3.552   3.845  -0.621  0.00  0.00    -0.452 OA
ENDROOT
BRANCH   1   2
ATOM      2  C   UNL     1       2.397   4.526  -0.485  0.00  0.00    +0.342 C 
ATOM      3  O   UNL     1       2.392   5.738  -0.576  0.00  0.00    -0.245 OA
BRANCH   2   4
ATOM      4  C   UNL     1       1.141   3.802  -0.227  0.00  0.00    +0.082 A 
ATOM      5  C   UNL     1       1.158   2.422   0.002  0.00  0.00    +0.037 A 
ATOM      6  C   UNL     1      -0.021   1.750   0.243  0.00  0.00    +0.043 A 
ATOM      7  C   UNL     1      -1.227   2.434   0.257  0.00  0.00    +0.042 A 
ATOM      8  C   UNL     1      -1.260   3.797   0.038  0.00  0.00    +0.064 A 
ATOM      9  C   UNL     1      -0.081   4.492  -0.207  0.00  0.00    +0.057 A 
ATOM     10 CL   UNL     1      -2.776   4.643   0.065  0.00  0.00    -0.082 Cl
ATOM     11 CL   UNL     1       0.004   0.037   0.526  0.00  0.00    -0.083 Cl
BRANCH   9  12
ATOM     12  N   UNL     1      -0.113   5.863  -0.432  0.00  0.00    -0.356 N 
ATOM     13  H   UNL     1       0.605   6.290  -0.926  0.00  0.00    +0.142 HD
ATOM     14  H   UNL     1      -0.852   6.393  -0.096  0.00  0.00    +0.142 HD
ENDBRANCH   9  12
ENDBRANCH   2   4
ENDBRANCH   1   2
BRANCH   1  15
ATOM     15  C   UNL     1       4.751   4.624  -0.875  0.00  0.00    +0.328 C 
BRANCH  15  20
ATOM     16  N   UNL     1       9.447   3.879  -1.581  0.00  0.00    -0.294 N 
ATOM     17  C   UNL     1       8.220   3.375  -1.344  0.00  0.00    +0.306 C 
ATOM     18  O   UNL     1       8.067   2.175  -1.228  0.00  0.00    -0.252 OA
ATOM     19  N   UNL     1       7.161   4.202  -1.234  0.00  0.00    -0.237 N 
ATOM     20  C   UNL     1       5.934   3.699  -0.997  0.00  0.00    +0.258 C 
ATOM     21  O   UNL     1       5.782   2.501  -0.882  0.00  0.00    -0.272 OA
ATOM     22  H   UNL     1       9.569   4.837  -1.673  0.00  0.00    +0.151 HD
ATOM     23  H   UNL     1       7.283   5.160  -1.326  0.00  0.00    +0.159 HD
BRANCH  16  25
ATOM     24  C   UNL     1      10.367   2.007  -2.858  0.00  0.00    +0.031 C 
ATOM     25  C   UNL     1      10.598   2.980  -1.700  0.00  0.00    +0.028 C 
ATOM     26  C   UNL     1      11.861   3.801  -1.967  0.00  0.00    +0.031 C 
ATOM     27  C   UNL     1      10.766   2.193  -0.399  0.00  0.00    +0.031 C 
ENDBRANCH  16  25
ENDBRANCH  15  20
ENDBRANCH   1  15
TORSDOF 6
