REMARK  Name = ZINC04467457
REMARK  14 active torsions:
REMARK  status: ('A' for Active; 'I' for Inactive)
REMARK    1  A    between atoms: C_1  and  C_2
REMARK    2  A    between atoms: C_2  and  C_3
REMARK    3  A    between atoms: C_2  and  C_4
REMARK    4  A    between atoms: C_2  and  C_5
REMARK    5  A    between atoms: C_7  and  C_16
REMARK    6  A    between atoms: C_9  and  C_12
REMARK    7  A    between atoms: C_10  and  O_11
REMARK    8  A    between atoms: C_12  and  C_13
REMARK    9  A    between atoms: C_12  and  C_14
REMARK   10  A    between atoms: C_12  and  C_15
REMARK   11  A    between atoms: C_16  and  C_19
REMARK   12  A    between atoms: N_17  and  O_18
REMARK   13  A    between atoms: N_27  and  C_28
REMARK   14  A    between atoms: C_28  and  C_29
REMARK                            x       y       z     vdW  Elec       q    Type
REMARK                         _______ _______ _______ _____ _____    ______ ____
ROOT
ATOM      1  C   UNL     1       2.415   0.940  -4.263  0.00  0.00    +0.152 C 
ATOM      2  N   UNL     1       2.708   2.140  -3.848  0.00  0.00    -0.083 NA
ENDROOT
BRANCH   1   3
ATOM      3  C   UNL     1       2.621   0.578  -5.681  0.00  0.00    +0.164 A 
ATOM      4  N   UNL     1       2.253  -0.553  -6.232  0.00  0.00    -0.226 NA
ATOM      5  C   UNL     1       2.593  -0.555  -7.537  0.00  0.00    +0.090 A 
ATOM      6  C   UNL     1       2.439  -1.490  -8.568  0.00  0.00    +0.030 A 
ATOM      7  C   UNL     1       2.897  -1.201  -9.821  0.00  0.00    +0.002 A 
ATOM      8  C   UNL     1       3.516   0.013 -10.088  0.00  0.00    +0.002 A 
ATOM      9  C   UNL     1       3.679   0.949  -9.089  0.00  0.00    +0.028 A 
ATOM     10  C   UNL     1       3.220   0.675  -7.808  0.00  0.00    +0.069 A 
ATOM     11  N   UNL     1       3.221   1.376  -6.620  0.00  0.00    -0.318 N 
BRANCH  11  12
ATOM     12  C   UNL     1       3.763   2.719  -6.402  0.00  0.00    +0.159 C 
BRANCH  12  13
ATOM     13  C   UNL     1       5.212   2.617  -6.000  0.00  0.00    -0.028 A 
ATOM     14  C   UNL     1       5.552   2.508  -4.664  0.00  0.00    +0.005 A 
ATOM     15  C   UNL     1       6.881   2.414  -4.295  0.00  0.00    +0.000 A 
ATOM     16  C   UNL     1       7.870   2.429  -5.262  0.00  0.00    +0.000 A 
ATOM     17  C   UNL     1       7.529   2.536  -6.597  0.00  0.00    +0.000 A 
ATOM     18  C   UNL     1       6.200   2.626  -6.966  0.00  0.00    +0.005 A 
ENDBRANCH  12  13
ENDBRANCH  11  12
ENDBRANCH   1   3
BRANCH   1  21
ATOM     19  C   UNL     1       0.546  -0.588  -1.385  0.00  0.00    +0.000 A 
ATOM     20  C   UNL     1       1.048   0.345  -2.266  0.00  0.00    +0.018 A 
ATOM     21  C   UNL     1       1.874  -0.060  -3.314  0.00  0.00    +0.008 A 
ATOM     22  C   UNL     1       2.190  -1.411  -3.467  0.00  0.00    +0.018 A 
ATOM     23  C   UNL     1       1.685  -2.339  -2.582  0.00  0.00    +0.000 A 
ATOM     24  C   UNL     1       0.867  -1.931  -1.537  0.00  0.00    +0.124 A 
BRANCH  19  26
ATOM     25  C   UNL     1      -0.540   1.365  -0.311  0.00  0.00    +0.015 C 
ATOM     26  C   UNL     1      -0.346  -0.151  -0.252  0.00  0.00    -0.009 C 
ATOM     27  C   UNL     1       0.301  -0.530   1.082  0.00  0.00    +0.015 C 
ATOM     28  C   UNL     1      -1.704  -0.844  -0.375  0.00  0.00    +0.015 C 
ENDBRANCH  19  26
BRANCH  23  29
ATOM     29  C   UNL     1       2.026  -3.798  -2.747  0.00  0.00    -0.009 C 
ATOM     30  C   UNL     1       2.939  -3.975  -3.962  0.00  0.00    +0.015 C 
ATOM     31  C   UNL     1       2.744  -4.299  -1.492  0.00  0.00    +0.015 C 
ATOM     32  C   UNL     1       0.740  -4.601  -2.954  0.00  0.00    +0.015 C 
ENDBRANCH  23  29
BRANCH  24  33
ATOM     33  O   UNL     1       0.375  -2.848  -0.664  0.00  0.00    -0.506 OA
ATOM     34  H   UNL     1      -0.476  -3.224  -0.926  0.00  0.00    +0.292 HD
ENDBRANCH  24  33
ENDBRANCH   1  21
BRANCH   2  35
ATOM     35  O   UNL     1       2.628   2.452  -2.469  0.00  0.00    -0.409 OA
ATOM     36  H   UNL     1       2.864   3.365  -2.257  0.00  0.00    +0.328 HD
ENDBRANCH   2  35
TORSDOF 8
