REMARK  Name = ZINC43722473
REMARK  7 active torsions:
REMARK  status: ('A' for Active; 'I' for Inactive)
REMARK    1  A    between atoms: C_1  and  C_2
REMARK    2  A    between atoms: C_18  and  C_29
REMARK    3  A    between atoms: C_19  and  O_28
REMARK    4  A    between atoms: C_22  and  C_23
REMARK    5  A    between atoms: C_22  and  O_27
REMARK    6  A    between atoms: C_23  and  C_25
REMARK    7  A    between atoms: C_25  and  O_26
REMARK                            x       y       z     vdW  Elec       q    Type
REMARK                         _______ _______ _______ _____ _____    ______ ____
ROOT
ATOM      1  C   UNL     1      -0.686   1.760  -0.673  0.00  0.00    +0.012 C 
ATOM      2  C   UNL     1      -0.745   0.228  -0.676  0.00  0.00    -0.025 C 
ATOM      3  C   UNL     1      -2.196  -0.168  -0.960  0.00  0.00    +0.015 C 
ATOM      4  C   UNL     1      -2.338  -1.691  -0.994  0.00  0.00    +0.075 C 
ATOM      5  C   UNL     1      -1.835  -2.225   0.331  0.00  0.00    +0.134 C 
ATOM      6  O   UNL     1      -2.522  -2.941   1.016  0.00  0.00    -0.297 OA
ATOM      7  C   UNL     1      -0.444  -1.825   0.760  0.00  0.00    +0.078 C 
ATOM      8  C   UNL     1      -0.301  -0.300   0.691  0.00  0.00    +0.002 C 
ATOM      9  C   UNL     1       1.163   0.048   0.970  0.00  0.00    +0.005 C 
ATOM     10  C   UNL     1       2.074  -0.509  -0.133  0.00  0.00    +0.007 C 
ATOM     11  C   UNL     1       1.623   0.087  -1.459  0.00  0.00    +0.025 C 
ATOM     12  C   UNL     1       0.182  -0.344  -1.740  0.00  0.00    +0.001 C 
ATOM     13  C   UNL     1      -0.198   0.028  -3.164  0.00  0.00    +0.005 C 
ATOM     14  C   UNL     1       0.600  -0.822  -4.169  0.00  0.00    +0.013 C 
ATOM     15  C   UNL     1       1.917  -1.262  -3.584  0.00  0.00    +0.033 C 
ATOM     16  C   UNL     1       2.504  -0.196  -2.638  0.00  0.00    +0.078 C 
ATOM     17  C   UNL     1       3.900  -0.770  -2.348  0.00  0.00    +0.039 C 
ATOM     18  C   UNL     1       4.349  -1.295  -3.740  0.00  0.00    +0.046 C 
ATOM     19  C   UNL     1       3.068  -1.412  -4.603  0.00  0.00    +0.134 C 
ATOM     20  C   UNL     1       1.781  -2.631  -2.906  0.00  0.00    +0.017 C 
ENDROOT
BRANCH  19  21
ATOM     21  C   UNL     1       2.994  -2.770  -5.249  0.00  0.00    +0.190 C 
ATOM     22  O   UNL     1       3.655  -3.682  -4.813  0.00  0.00    -0.292 OA
BRANCH  21  23
ATOM     23  C   UNL     1       2.096  -2.991  -6.439  0.00  0.00    +0.233 C 
BRANCH  23  24
ATOM     24  O   UNL     1       2.200  -4.350  -6.868  0.00  0.00    -0.387 OA
ATOM     25  H   UNL     1       1.648  -4.564  -7.632  0.00  0.00    +0.210 HD
ENDBRANCH  23  24
ENDBRANCH  21  23
ENDBRANCH  19  21
BRANCH  19  26
ATOM     26  O   UNL     1       3.015  -0.382  -5.582  0.00  0.00    -0.380 OA
ATOM     27  H   UNL     1       3.717  -0.433  -6.245  0.00  0.00    +0.211 HD
ENDBRANCH  19  26
BRANCH  16  28
ATOM     28  O   UNL     1       2.683   1.039  -3.369  0.00  0.00    -0.388 OA
ATOM     29  H   UNL     1       3.083   1.750  -2.849  0.00  0.00    +0.210 HD
ENDBRANCH  16  28
TORSDOF 5
