REMARK  Name = ZINC00907104
REMARK  13 active torsions:
REMARK  status: ('A' for Active; 'I' for Inactive)
REMARK    1  A    between atoms: C_1  and  C_2
REMARK    2  A    between atoms: C_4  and  C_37
REMARK    3  A    between atoms: C_6  and  S_8
REMARK    4  A    between atoms: S_8  and  C_9
REMARK    5  A    between atoms: C_9  and  C_10
REMARK    6  A    between atoms: C_13  and  S_23
REMARK    7  A    between atoms: N_14  and  C_15
REMARK    8  A    between atoms: C_18  and  O_21
REMARK    9  A    between atoms: O_21  and  C_22
REMARK   10  A    between atoms: S_23  and  C_24
REMARK   11  A    between atoms: C_24  and  C_25
REMARK   12  A    between atoms: N_27  and  C_28
REMARK   13  A    between atoms: C_34  and  C_36
REMARK                            x       y       z     vdW  Elec       q    Type
REMARK                         _______ _______ _______ _____ _____    ______ ____
ROOT
ATOM      1  C   UNL     1       3.785  -2.399  -4.644  0.00  0.00    +0.149 A 
ATOM      2  N   UNL     1       3.942  -3.118  -5.719  0.00  0.00    -0.132 NA
ATOM      3  N   UNL     1       2.816  -3.618  -6.085  0.00  0.00    -0.122 NA
ATOM      4  C   UNL     1       1.870  -3.247  -5.253  0.00  0.00    +0.197 A 
ATOM      5  N   UNL     1       2.460  -2.459  -4.303  0.00  0.00    -0.274 N 
ENDROOT
BRANCH   5   6
ATOM      6  C   UNL     1       1.836  -1.836  -3.211  0.00  0.00    +0.050 A 
ATOM      7  C   UNL     1       1.274  -2.605  -2.201  0.00  0.00    +0.030 A 
ATOM      8  C   UNL     1       0.660  -1.992  -1.127  0.00  0.00    +0.047 A 
ATOM      9  C   UNL     1       0.606  -0.607  -1.056  0.00  0.00    +0.120 A 
ATOM     10  C   UNL     1       1.163   0.162  -2.068  0.00  0.00    +0.047 A 
ATOM     11  C   UNL     1       1.781  -0.451  -3.140  0.00  0.00    +0.030 A 
BRANCH   9  12
ATOM     12  O   UNL     1       0.002  -0.004   0.002  0.00  0.00    -0.495 OA
ATOM     13  C   UNL     1      -0.017   1.425   0.010  0.00  0.00    +0.277 C 
ENDBRANCH   9  12
ENDBRANCH   5   6
BRANCH   1  14
ATOM     14  C   UNL     1       4.863  -1.644  -3.909  0.00  0.00    +0.154 C 
BRANCH  14  15
ATOM     15  S   UNL     1       5.603  -2.717  -2.654  0.00  0.00    -0.078 S 
BRANCH  15  21
ATOM     16  C   UNL     1       7.872   1.869  -2.521  0.00  0.00    +0.066 C 
ATOM     17  C   UNL     1       7.771   0.472  -1.965  0.00  0.00    +0.043 A 
ATOM     18  C   UNL     1       8.603   0.066  -0.932  0.00  0.00    +0.046 A 
ATOM     19  C   UNL     1       8.477  -1.227  -0.449  0.00  0.00    +0.043 A 
ATOM     20  N   UNL     1       7.574  -2.031  -0.984  0.00  0.00    -0.227 NA
ATOM     21  C   UNL     1       6.794  -1.612  -1.971  0.00  0.00    +0.189 A 
ATOM     22  N   UNL     1       6.892  -0.384  -2.459  0.00  0.00    -0.227 NA
ATOM     23  C   UNL     1       9.360  -1.711   0.672  0.00  0.00    +0.066 C 
ENDBRANCH  15  21
ENDBRANCH  14  15
ENDBRANCH   1  14
BRANCH   4  24
ATOM     24  S   UNL     1       0.165  -3.682  -5.342  0.00  0.00    -0.076 S 
BRANCH  24  25
ATOM     25  C   UNL     1       0.181  -4.712  -6.830  0.00  0.00    +0.173 C 
BRANCH  25  26
ATOM     26  C   UNL     1      -1.213  -5.211  -7.111  0.00  0.00    +0.224 C 
ATOM     27  O   UNL     1      -2.127  -4.901  -6.377  0.00  0.00    -0.275 OA
ATOM     28  N   UNL     1      -1.444  -6.002  -8.177  0.00  0.00    -0.312 N 
ATOM     29  H   UNL     1      -0.712  -6.250  -8.764  0.00  0.00    +0.149 HD
BRANCH  28  30
ATOM     30  C   UNL     1      -2.799  -6.487  -8.450  0.00  0.00    +0.076 C 
ATOM     31  C   UNL     1      -3.566  -5.434  -9.251  0.00  0.00    +0.022 C 
ATOM     32  C   UNL     1      -2.843  -5.171 -10.573  0.00  0.00    +0.002 C 
ATOM     33  C   UNL     1      -2.767  -6.469 -11.379  0.00  0.00    +0.000 C 
ATOM     34  C   UNL     1      -2.000  -7.523 -10.579  0.00  0.00    +0.005 C 
ATOM     35  C   UNL     1      -2.723  -7.785  -9.256  0.00  0.00    +0.006 C 
ATOM     36  C   UNL     1      -1.956  -8.839  -8.456  0.00  0.00    +0.009 C 
ENDBRANCH  28  30
ENDBRANCH  25  26
ENDBRANCH  24  25
ENDBRANCH   4  24
TORSDOF 9
