REMARK  Name = ZINC64010105
REMARK  11 active torsions:
REMARK  status: ('A' for Active; 'I' for Inactive)
REMARK    1  A    between atoms: C_1  and  C_2
REMARK    2  A    between atoms: C_4  and  S_24
REMARK    3  A    between atoms: C_6  and  N_9
REMARK    4  A    between atoms: C_7  and  C_8
REMARK    5  A    between atoms: C_10  and  C_12
REMARK    6  A    between atoms: C_12  and  N_13
REMARK    7  A    between atoms: N_17  and  C_20
REMARK    8  A    between atoms: C_20  and  C_21
REMARK    9  A    between atoms: C_20  and  C_22
REMARK   10  A    between atoms: C_20  and  C_23
REMARK   11  A    between atoms: S_24  and  N_27
REMARK                            x       y       z     vdW  Elec       q    Type
REMARK                         _______ _______ _______ _____ _____    ______ ____
ROOT
ATOM      1  N   UNL     1       0.028  -2.802   2.342  0.00  0.00    -0.287 N 
ATOM      2  C   UNL     1      -0.055  -4.147   2.342  0.00  0.00    +0.201 C 
ATOM      3  O   UNL     1      -0.067  -4.754   1.292  0.00  0.00    -0.278 OA
ATOM      4  H   UNL     1       0.119  -2.322   3.180  0.00  0.00    +0.155 HD
ENDROOT
BRANCH   1  10
ATOM      5  C   UNL     1       1.135   1.221  -0.258  0.00  0.00    +0.044 C 
ATOM      6  C   UNL     1       0.509  -0.146  -0.154  0.00  0.00    -0.044 A 
ATOM      7  C   UNL     1      -0.112  -0.706  -1.256  0.00  0.00    +0.032 A 
ATOM      8  C   UNL     1      -0.687  -1.960  -1.165  0.00  0.00    +0.107 A 
ATOM      9  C   UNL     1      -0.642  -2.658   0.026  0.00  0.00    +0.052 A 
ATOM     10  C   UNL     1      -0.019  -2.098   1.134  0.00  0.00    +0.038 A 
ATOM     11  C   UNL     1       0.562  -0.840   1.038  0.00  0.00    -0.026 A 
ATOM     12  C   UNL     1       1.245  -0.232   2.236  0.00  0.00    +0.046 C 
BRANCH   8  13
ATOM     13  S   UNL     1      -1.478  -2.669  -2.571  0.00  0.00    +0.056 S 
ATOM     14  O   UNL     1      -2.413  -3.618  -2.075  0.00  0.00    -0.153 OA
ATOM     15  O   UNL     1      -1.862  -1.588  -3.409  0.00  0.00    -0.153 OA
BRANCH  13  16
ATOM     16  N   UNL     1      -0.329  -3.526  -3.400  0.00  0.00    -0.204 NA
ATOM     17  H   UNL     1       0.583  -3.557  -3.071  0.00  0.00    +0.144 HD
ATOM     18  H   UNL     1      -0.567  -3.996  -4.214  0.00  0.00    +0.144 HD
ENDBRANCH  13  16
ENDBRANCH   8  13
ENDBRANCH   1  10
BRANCH   2  19
ATOM     19  C   UNL     1      -0.132  -4.897   3.647  0.00  0.00    +0.019 C 
BRANCH  19  20
ATOM     20  N   UNL     1      -0.214  -6.339   3.378  0.00  0.00    +0.386 N 
ATOM     21  C   UNL     1       0.983  -6.754   2.691  0.00  0.00    -0.077 C 
ATOM     22  C   UNL     1       0.605  -7.858   1.685  0.00  0.00    -0.003 C 
ATOM     23  C   UNL     1       0.477  -9.167   2.318  0.00  0.00    +0.083 C 
ATOM     24  N   UNL     1      -0.583  -9.169   3.359  0.00  0.00    -0.299 NA
ATOM     25  C   UNL     1      -0.089  -8.557   4.567  0.00  0.00    +0.066 C 
ATOM     26  C   UNL     1      -0.411  -7.054   4.661  0.00  0.00    -0.063 C 
ATOM     27  H   UNL     1      -1.009  -6.515   2.782  0.00  0.00    -0.081 HD
BRANCH  24  28
ATOM     28  C   UNL     1      -1.063 -10.533   3.618  0.00  0.00    +0.013 C 
ATOM     29  C   UNL     1       0.071 -11.368   4.216  0.00  0.00    +0.027 C 
ATOM     30  C   UNL     1      -2.234 -10.484   4.602  0.00  0.00    +0.027 C 
ATOM     31  C   UNL     1      -1.527 -11.169   2.305  0.00  0.00    +0.027 C 
ENDBRANCH  24  28
ENDBRANCH  19  20
ENDBRANCH   2  19
TORSDOF 6
