REMARK  Name = ZINC37037378
REMARK  7 active torsions:
REMARK  status: ('A' for Active; 'I' for Inactive)
REMARK    1  A    between atoms: C_3  and  C_6
REMARK    2  A    between atoms: C_6  and  C_7
REMARK    3  A    between atoms: C_7  and  N_8
REMARK    4  A    between atoms: C_9  and  C_11
REMARK    5  A    between atoms: C_11  and  S_12
REMARK    6  A    between atoms: S_12  and  C_13
REMARK    7  A    between atoms: C_18  and  N_19
REMARK                            x       y       z     vdW  Elec       q    Type
REMARK                         _______ _______ _______ _____ _____    ______ ____
ROOT
ATOM      1  C   UNL     1       7.697   3.238   2.554  0.00  0.00    +0.170 C 
ENDROOT
BRANCH   1   3
ATOM      2  N   UNL     1       5.633   2.506   1.403  0.00  0.00    -0.314 N 
ATOM      3  C   UNL     1       6.279   2.728   2.565  0.00  0.00    +0.223 C 
ATOM      4  O   UNL     1       5.718   2.518   3.620  0.00  0.00    -0.275 OA
ATOM      5  H   UNL     1       6.082   2.674   0.560  0.00  0.00    +0.149 HD
BRANCH   2   6
ATOM      6  C   UNL     1       4.255   2.011   1.414  0.00  0.00    +0.109 C 
BRANCH   6   7
ATOM      7  C   UNL     1       3.761   1.845  -0.024  0.00  0.00    +0.061 C 
BRANCH   7  10
ATOM      8  C   UNL     1      -0.016   1.351   0.009  0.00  0.00    +0.008 A 
ATOM      9  C   UNL     1       1.183   2.038   0.002  0.00  0.00    +0.011 A 
ATOM     10  C   UNL     1       2.343   1.336  -0.013  0.00  0.00    -0.009 A 
ATOM     11  S   UNL     1       1.754  -0.349  -0.017  0.00  0.00    -0.102 S 
ATOM     12  C   UNL     1       0.002  -0.004   0.002  0.00  0.00    +0.045 A 
ENDBRANCH   7  10
ENDBRANCH   6   7
ENDBRANCH   2   6
ENDBRANCH   1   3
BRANCH   1  13
ATOM     13  S   UNL     1       8.283   3.433   4.260  0.00  0.00    -0.114 S 
BRANCH  13  14
ATOM     14  C   UNL     1       9.932   4.027   4.079  0.00  0.00    +0.029 A 
ATOM     15  C   UNL     1      10.461   4.235   2.814  0.00  0.00    +0.018 A 
ATOM     16  C   UNL     1      11.755   4.701   2.674  0.00  0.00    +0.021 A 
ATOM     17  C   UNL     1      12.526   4.962   3.793  0.00  0.00    +0.043 A 
ATOM     18  C   UNL     1      12.005   4.758   5.059  0.00  0.00    +0.043 A 
ATOM     19  C   UNL     1      10.706   4.296   5.208  0.00  0.00    +0.040 A 
ATOM     20 CL   UNL     1      14.150   5.546   3.609  0.00  0.00    -0.083 Cl
BRANCH  19  21
ATOM     21  N   UNL     1      10.175   4.094   6.487  0.00  0.00    -0.357 N 
ATOM     22  H   UNL     1       9.268   3.767   6.590  0.00  0.00    +0.142 HD
ATOM     23  H   UNL     1      10.715   4.282   7.271  0.00  0.00    +0.142 HD
ENDBRANCH  19  21
ENDBRANCH  13  14
ENDBRANCH   1  13
TORSDOF 7
