REMARK  Name = ZINC05178907
REMARK  2 active torsions:
REMARK  status: ('A' for Active; 'I' for Inactive)
REMARK    1  A    between atoms: C_1  and  O_2
REMARK    2  A    between atoms: O_2  and  C_3
REMARK                            x       y       z     vdW  Elec       q    Type
REMARK                         _______ _______ _______ _____ _____    ______ ____
ROOT
ATOM      1  O   UNL     1      -0.682   1.547   1.184  0.00  0.00    -0.229 OA
ENDROOT
BRANCH   1   2
ATOM      2  C   UNL     1      -0.756   2.970   1.290  0.00  0.00    +0.529 C 
ATOM      3  F   UNL     1      -1.453   3.483   0.191  0.00  0.00    -0.144 F 
ATOM      4  F   UNL     1      -1.426   3.315   2.469  0.00  0.00    -0.144 F 
ATOM      5  F   UNL     1       0.536   3.504   1.314  0.00  0.00    -0.144 F 
ENDBRANCH   1   2
BRANCH   1   6
ATOM      6  C   UNL     1      -0.013   1.086   0.008  0.00  0.00    +0.489 C 
ATOM      7  F   UNL     1       1.300   1.570  -0.002  0.00  0.00    -0.178 F 
ATOM      8  F   UNL     1      -0.689   1.549  -1.125  0.00  0.00    -0.178 F 
ENDBRANCH   1   6
TORSDOF 2
