REMARK  Name = ZINC62257658
REMARK  7 active torsions:
REMARK  status: ('A' for Active; 'I' for Inactive)
REMARK    1  A    between atoms: C_3  and  C_24
REMARK    2  A    between atoms: C_6  and  C_7
REMARK    3  A    between atoms: C_10  and  C_12
REMARK    4  A    between atoms: C_12  and  N_13
REMARK    5  A    between atoms: N_13  and  C_14
REMARK    6  A    between atoms: N_18  and  C_20
REMARK    7  A    between atoms: C_20  and  C_21
REMARK                            x       y       z     vdW  Elec       q    Type
REMARK                         _______ _______ _______ _____ _____    ______ ____
ROOT
ATOM      1  C   UNL     1      -4.909  -1.042   0.039  0.00  0.00    -0.006 C 
ENDROOT
BRANCH   1   5
ATOM      2  C   UNL     1      -1.266  -0.764   0.011  0.00  0.00    +0.135 A 
ATOM      3  C   UNL     1      -1.384  -2.118   0.010  0.00  0.00    +0.050 A 
ATOM      4  C   UNL     1      -2.764  -2.405   0.021  0.00  0.00    +0.043 A 
ATOM      5  C   UNL     1      -3.413  -1.224   0.027  0.00  0.00    +0.089 A 
ATOM      6  O   UNL     1      -2.504  -0.234   0.026  0.00  0.00    -0.462 OA
BRANCH   2  12
ATOM      7  C   UNL     1      -0.017   1.392   0.010  0.00  0.00    +0.012 A 
ATOM      8  C   UNL     1       1.170   2.095   0.002  0.00  0.00    +0.013 A 
ATOM      9  C   UNL     1       2.378   1.419  -0.013  0.00  0.00    +0.055 A 
ATOM     10  C   UNL     1       2.404   0.036  -0.021  0.00  0.00    +0.013 A 
ATOM     11  C   UNL     1       1.224  -0.679  -0.013  0.00  0.00    +0.012 A 
ATOM     12  C   UNL     1       0.002  -0.004   0.002  0.00  0.00    +0.017 A 
BRANCH   9  13
ATOM     13  C   UNL     1       3.670   2.194  -0.022  0.00  0.00    +0.417 C 
ATOM     14  F   UNL     1       4.083   2.427   1.294  0.00  0.00    -0.166 F 
ATOM     15  F   UNL     1       4.651   1.457  -0.695  0.00  0.00    -0.166 F 
ATOM     16  F   UNL     1       3.477   3.416  -0.673  0.00  0.00    -0.166 F 
ENDBRANCH   9  13
ENDBRANCH   2  12
ENDBRANCH   1   5
BRANCH   1  17
ATOM     17  N   UNL     1      -5.384  -0.986   1.428  0.00  0.00    +0.386 N 
ATOM     18  H   UNL     1      -5.145  -1.844   1.900  0.00  0.00    -0.085 HD
ATOM     19  H   UNL     1      -4.948  -0.209   1.901  0.00  0.00    -0.085 HD
BRANCH  17  20
ATOM     20  C   UNL     1      -6.842  -0.809   1.439  0.00  0.00    -0.057 C 
ATOM     21  C   UNL     1      -7.197   0.554   0.838  0.00  0.00    -0.013 C 
ATOM     22  C   UNL     1      -8.713   0.755   0.909  0.00  0.00    +0.014 C 
ATOM     23  C   UNL     1      -9.171   0.644   2.365  0.00  0.00    +0.085 C 
ATOM     24  N   UNL     1      -8.809  -0.677   2.894  0.00  0.00    -0.296 NA
ATOM     25  C   UNL     1      -7.354  -0.875   2.880  0.00  0.00    +0.069 C 
BRANCH  24  26
ATOM     26  C   UNL     1      -9.354  -0.871   4.244  0.00  0.00    +0.180 C 
BRANCH  26  27
ATOM     27  C   UNL     1     -10.858  -0.911   4.178  0.00  0.00    +0.225 C 
ATOM     28  O   UNL     1     -11.422  -0.790   3.111  0.00  0.00    -0.275 OA
ATOM     29  N   UNL     1     -11.578  -1.081   5.304  0.00  0.00    -0.328 N 
ATOM     30  H   UNL     1     -11.128  -1.178   6.158  0.00  0.00    +0.145 HD
ATOM     31  H   UNL     1     -12.547  -1.107   5.262  0.00  0.00    +0.145 HD
ENDBRANCH  26  27
ENDBRANCH  24  26
ENDBRANCH  17  20
ENDBRANCH   1  17
TORSDOF 7
