REMARK  Name = ZINC40068803
REMARK  7 active torsions:
REMARK  status: ('A' for Active; 'I' for Inactive)
REMARK    1  A    between atoms: C_1  and  C_2
REMARK    2  A    between atoms: C_2  and  C_4
REMARK    3  A    between atoms: C_2  and  N_15
REMARK    4  A    between atoms: C_7  and  N_10
REMARK    5  A    between atoms: N_18  and  C_19
REMARK    6  A    between atoms: C_19  and  C_21
REMARK    7  A    between atoms: C_19  and  C_28
REMARK                            x       y       z     vdW  Elec       q    Type
REMARK                         _______ _______ _______ _____ _____    ______ ____
ROOT
ATOM      1  N   UNL     1      -1.372  -0.511   0.012  0.00  0.00    -0.293 N 
ATOM      2  C   UNL     1      -2.051  -0.643  -1.145  0.00  0.00    +0.301 C 
ATOM      3  O   UNL     1      -1.522  -0.341  -2.197  0.00  0.00    -0.253 OA
ATOM      4  N   UNL     1      -3.315  -1.109  -1.135  0.00  0.00    -0.288 N 
ATOM      5  H   UNL     1      -1.794  -0.752   0.852  0.00  0.00    +0.151 HD
ATOM      6  H   UNL     1      -3.737  -1.350  -0.295  0.00  0.00    +0.151 HD
ENDROOT
BRANCH   1   8
ATOM      7  C   UNL     1      -0.019   1.526   0.010  0.00  0.00    +0.033 C 
ATOM      8  C   UNL     1       0.002  -0.004   0.002  0.00  0.00    +0.102 C 
BRANCH   8   9
ATOM      9  C   UNL     1       0.731  -0.503   1.223  0.00  0.00    -0.027 A 
ATOM     10  C   UNL     1       0.079  -0.558   2.441  0.00  0.00    +0.007 A 
ATOM     11  C   UNL     1       0.745  -1.016   3.562  0.00  0.00    +0.028 A 
ATOM     12  C   UNL     1       2.069  -1.421   3.464  0.00  0.00    +0.067 A 
ATOM     13  C   UNL     1       2.720  -1.365   2.240  0.00  0.00    +0.028 A 
ATOM     14  C   UNL     1       2.048  -0.911   1.121  0.00  0.00    +0.007 A 
BRANCH  12  15
ATOM     15  N   UNL     1       2.747  -1.885   4.600  0.00  0.00    -0.220 N 
ATOM     16  C   UNL     1       4.026  -2.304   4.662  0.00  0.00    +0.225 A 
ATOM     17  N   UNL     1       4.277  -2.655   5.897  0.00  0.00    -0.222 NA
ATOM     18  C   UNL     1       3.191  -2.476   6.649  0.00  0.00    +0.245 A 
ATOM     19  N   UNL     1       2.230  -2.000   5.901  0.00  0.00    -0.154 NA
ENDBRANCH  12  15
ENDBRANCH   8   9
ENDBRANCH   1   8
BRANCH   4  20
ATOM     20  C   UNL     1      -4.053  -1.252  -2.393  0.00  0.00    +0.142 C 
BRANCH  20  21
ATOM     21  C   UNL     1      -5.120  -2.304  -2.232  0.00  0.00    -0.022 A 
ATOM     22  C   UNL     1      -5.850  -2.374  -1.061  0.00  0.00    +0.008 A 
ATOM     23  C   UNL     1      -6.830  -3.338  -0.913  0.00  0.00    +0.038 A 
ATOM     24  C   UNL     1      -7.079  -4.234  -1.939  0.00  0.00    +0.123 A 
ATOM     25  C   UNL     1      -6.346  -4.163  -3.112  0.00  0.00    +0.038 A 
ATOM     26  C   UNL     1      -5.371  -3.195  -3.259  0.00  0.00    +0.008 A 
ATOM     27  F   UNL     1      -8.035  -5.177  -1.795  0.00  0.00    -0.205 F 
ENDBRANCH  20  21
BRANCH  20  28
ATOM     28  C   UNL     1      -4.694   0.063  -2.751  0.00  0.00    +0.014 A 
ATOM     29  C   UNL     1      -4.817   0.650  -3.967  0.00  0.00    +0.013 A 
ATOM     30  C   UNL     1      -5.452   1.874  -4.060  0.00  0.00    +0.008 A 
ATOM     31  C   UNL     1      -5.933   2.452  -2.932  0.00  0.00    +0.045 A 
ATOM     32  S   UNL     1      -5.497   1.250  -1.686  0.00  0.00    -0.099 S 
ENDBRANCH  20  28
ENDBRANCH   4  20
TORSDOF 6
