REMARK  Name = ZINC41607704
REMARK  11 active torsions:
REMARK  status: ('A' for Active; 'I' for Inactive)
REMARK    1  A    between atoms: C_1  and  C_2
REMARK    2  A    between atoms: C_2  and  C_3
REMARK    3  A    between atoms: C_2  and  C_4
REMARK    4  A    between atoms: C_4  and  C_5
REMARK    5  A    between atoms: N_7  and  C_8
REMARK    6  A    between atoms: C_11  and  N_14
REMARK    7  A    between atoms: C_15  and  C_17
REMARK    8  A    between atoms: N_19  and  C_20
REMARK    9  A    between atoms: C_20  and  C_21
REMARK   10  A    between atoms: N_27  and  C_28
REMARK   11  A    between atoms: N_27  and  C_29
REMARK                            x       y       z     vdW  Elec       q    Type
REMARK                         _______ _______ _______ _____ _____    ______ ____
ROOT
ATOM      1  N   UNL     1       8.338   1.145  -2.459  0.00  0.00    -0.278 N 
ATOM      2  C   UNL     1       9.050   0.935  -3.583  0.00  0.00    +0.303 C 
ATOM      3  O   UNL     1       8.556   0.328  -4.511  0.00  0.00    -0.265 OA
ATOM      4  H   UNL     1       8.754   1.571  -1.693  0.00  0.00    +0.155 HD
ENDROOT
BRANCH   1   8
ATOM      5  C   UNL     1       4.346  -0.039  -2.269  0.00  0.00    +0.033 A 
ATOM      6  C   UNL     1       5.263  -0.799  -2.985  0.00  0.00    +0.025 A 
ATOM      7  C   UNL     1       6.584  -0.407  -3.048  0.00  0.00    +0.025 A 
ATOM      8  C   UNL     1       6.998   0.748  -2.395  0.00  0.00    +0.034 A 
ATOM      9  C   UNL     1       6.081   1.508  -1.680  0.00  0.00    +0.025 A 
ATOM     10  C   UNL     1       4.758   1.118  -1.621  0.00  0.00    +0.025 A 
BRANCH   5  13
ATOM     11  C   UNL     1       2.027   0.490  -2.188  0.00  0.00    +0.217 C 
ATOM     12  O   UNL     1       2.310   1.669  -2.144  0.00  0.00    -0.275 OA
ATOM     13  N   UNL     1       3.005  -0.437  -2.205  0.00  0.00    -0.285 N 
ATOM     14  H   UNL     1       2.780  -1.380  -2.173  0.00  0.00    +0.155 HD
BRANCH  11  15
ATOM     15  C   UNL     1       0.583   0.062  -2.225  0.00  0.00    +0.099 C 
BRANCH  15  17
ATOM     16  C   UNL     1      -0.104   2.115  -3.474  0.00  0.00    +0.008 C 
ATOM     17  C   UNL     1      -0.317   1.300  -2.196  0.00  0.00    -0.008 C 
ATOM     18  C   UNL     1      -1.781   0.865  -2.107  0.00  0.00    +0.008 C 
ENDBRANCH  15  17
ENDBRANCH  11  15
ENDBRANCH   5  13
ENDBRANCH   1   8
BRANCH   2  19
ATOM     19  C   UNL     1      10.448   1.451  -3.689  0.00  0.00    +0.300 C 
ATOM     20  O   UNL     1      10.942   2.058  -2.762  0.00  0.00    -0.265 OA
ATOM     21  N   UNL     1      11.160   1.241  -4.813  0.00  0.00    -0.303 N 
ATOM     22  H   UNL     1      10.765   0.756  -5.554  0.00  0.00    +0.149 HD
BRANCH  21  23
ATOM     23  C   UNL     1      12.531   1.747  -4.917  0.00  0.00    +0.140 C 
BRANCH  23  24
ATOM     24  C   UNL     1      13.101   1.382  -6.263  0.00  0.00    -0.026 A 
ATOM     25  C   UNL     1      13.776   0.183  -6.447  0.00  0.00    +0.023 A 
ATOM     26  C   UNL     1      14.286  -0.122  -7.693  0.00  0.00    +0.084 A 
ATOM     27  N   UNL     1      14.139   0.710  -8.707  0.00  0.00    -0.350 N 
ATOM     28  C   UNL     1      13.502   1.863  -8.572  0.00  0.00    +0.098 A 
ATOM     29  C   UNL     1      12.958   2.232  -7.345  0.00  0.00    +0.047 A 
ATOM     30  N   UNL     1      13.370   2.710  -9.666  0.00  0.00    -0.323 N 
ATOM     31  C   UNL     1      13.935   2.325 -10.962  0.00  0.00    +0.130 C 
ATOM     32  C   UNL     1      12.667   3.987  -9.524  0.00  0.00    +0.130 C 
ATOM     33  H   UNL     1      14.507   0.472  -9.572  0.00  0.00    +0.166 HD
ENDBRANCH  23  24
ENDBRANCH  21  23
ENDBRANCH   2  19
TORSDOF 7
