REMARK  Name = ZINC63775575
REMARK  10 active torsions:
REMARK  status: ('A' for Active; 'I' for Inactive)
REMARK    1  A    between atoms: C_1  and  N_2
REMARK    2  A    between atoms: N_2  and  C_3
REMARK    3  A    between atoms: N_2  and  S_9
REMARK    4  A    between atoms: S_9  and  C_12
REMARK    5  A    between atoms: C_16  and  N_18
REMARK    6  A    between atoms: C_19  and  C_21
REMARK    7  A    between atoms: C_21  and  O_22
REMARK    8  A    between atoms: O_22  and  C_23
REMARK    9  A    between atoms: C_23  and  C_25
REMARK   10  A    between atoms: C_25  and  C_26
REMARK                            x       y       z     vdW  Elec       q    Type
REMARK                         _______ _______ _______ _____ _____    ______ ____
ROOT
ATOM      1  N   UNL     1       3.659  -4.263  -1.892  0.00  0.00    -0.283 N 
ATOM      2  C   UNL     1       4.843  -4.716  -2.349  0.00  0.00    +0.255 C 
ATOM      3  O   UNL     1       5.569  -3.981  -2.985  0.00  0.00    -0.272 OA
ATOM      4  H   UNL     1       3.112  -4.825  -1.321  0.00  0.00    +0.155 HD
ENDROOT
BRANCH   1   9
ATOM      5  C   UNL     1       2.033  -0.971  -1.690  0.00  0.00    +0.110 A 
ATOM      6  C   UNL     1       2.345  -0.449  -2.932  0.00  0.00    +0.029 A 
ATOM      7  C   UNL     1       3.092  -1.189  -3.829  0.00  0.00    +0.004 A 
ATOM      8  C   UNL     1       3.529  -2.454  -3.487  0.00  0.00    +0.023 A 
ATOM      9  C   UNL     1       3.218  -2.982  -2.241  0.00  0.00    +0.035 A 
ATOM     10  C   UNL     1       2.472  -2.233  -1.340  0.00  0.00    +0.052 A 
BRANCH   5  11
ATOM     11  S   UNL     1       1.082  -0.023  -0.550  0.00  0.00    +0.075 S 
ATOM     12  O   UNL     1       0.590  -0.933   0.425  0.00  0.00    -0.150 OA
ATOM     13  O   UNL     1       0.222   0.801  -1.325  0.00  0.00    -0.150 OA
BRANCH  11  15
ATOM     14  C   UNL     1       2.413   2.320  -0.315  0.00  0.00    +0.157 C 
ATOM     15  N   UNL     1       2.128   0.992   0.236  0.00  0.00    -0.206 N 
BRANCH  15  16
ATOM     16  C   UNL     1       2.739   0.583   1.423  0.00  0.00    +0.051 A 
ATOM     17  C   UNL     1       2.937  -0.769   1.674  0.00  0.00    +0.025 A 
ATOM     18  C   UNL     1       3.542  -1.170   2.849  0.00  0.00    +0.002 A 
ATOM     19  C   UNL     1       3.949  -0.228   3.776  0.00  0.00    +0.000 A 
ATOM     20  C   UNL     1       3.753   1.119   3.530  0.00  0.00    +0.002 A 
ATOM     21  C   UNL     1       3.154   1.527   2.354  0.00  0.00    +0.025 A 
ENDBRANCH  15  16
ENDBRANCH  11  15
ENDBRANCH   5  11
ENDBRANCH   1   9
BRANCH   2  22
ATOM     22  C   UNL     1       5.265  -6.136  -2.071  0.00  0.00    +0.328 C 
BRANCH  22  23
ATOM     23  O   UNL     1       6.548  -6.374  -2.655  0.00  0.00    -0.455 OA
BRANCH  23  24
ATOM     24  C   UNL     1       7.070  -7.601  -2.497  0.00  0.00    +0.312 C 
ATOM     25  O   UNL     1       6.459  -8.443  -1.884  0.00  0.00    -0.250 OA
BRANCH  24  26
ATOM     26  C   UNL     1       8.419  -7.926  -3.085  0.00  0.00    +0.153 C 
BRANCH  26  27
ATOM     27  C   UNL     1       8.773  -9.356  -2.768  0.00  0.00    -0.031 C 
ATOM     28  C   UNL     1       8.576 -10.437  -3.557  0.00  0.00    -0.001 A 
ATOM     29  C   UNL     1       7.995 -10.598  -4.895  0.00  0.00    +0.010 A 
ATOM     30  C   UNL     1       7.932 -11.835  -5.438  0.00  0.00    +0.001 A 
ATOM     31  C   UNL     1       8.406 -12.964  -4.757  0.00  0.00    +0.002 A 
ATOM     32  C   UNL     1       8.953 -12.896  -3.525  0.00  0.00    +0.026 A 
ATOM     33  C   UNL     1       9.070 -11.645  -2.859  0.00  0.00    +0.043 A 
ATOM     34  N   UNL     1       9.554 -11.324  -1.683  0.00  0.00    -0.380 N 
ATOM     35  C   UNL     1       9.427  -9.873  -1.505  0.00  0.00    +0.145 C 
ATOM     36  H   UNL     1       9.936 -11.941  -1.040  0.00  0.00    +0.160 HD
ENDBRANCH  26  27
ENDBRANCH  24  26
ENDBRANCH  23  24
ENDBRANCH  22  23
ENDBRANCH   2  22
TORSDOF 9
