REMARK  Name = ZINC36597268
REMARK  13 active torsions:
REMARK  status: ('A' for Active; 'I' for Inactive)
REMARK    1  A    between atoms: C_1  and  C_2
REMARK    2  A    between atoms: C_5  and  C_7
REMARK    3  A    between atoms: C_7  and  N_8
REMARK    4  A    between atoms: N_8  and  C_9
REMARK    5  A    between atoms: C_9  and  C_11
REMARK    6  A    between atoms: C_9  and  C_21
REMARK    7  A    between atoms: C_13  and  N_18
REMARK    8  A    between atoms: N_23  and  C_24
REMARK    9  A    between atoms: C_24  and  C_25
REMARK   10  A    between atoms: C_24  and  C_26
REMARK   11  A    between atoms: C_24  and  C_27
REMARK   12  A    between atoms: C_28  and  C_30
REMARK   13  A    between atoms: C_33  and  O_36
REMARK                            x       y       z     vdW  Elec       q    Type
REMARK                         _______ _______ _______ _____ _____    ______ ____
ROOT
ATOM      1  C   UNL     1       2.581  -2.761  -1.801  0.00  0.00    +0.194 C 
ENDROOT
BRANCH   1   2
ATOM      2  C   UNL     1       3.729  -2.741  -0.825  0.00  0.00    +0.002 A 
ATOM      3  C   UNL     1       3.998  -1.597  -0.098  0.00  0.00    +0.040 A 
ATOM      4  C   UNL     1       5.051  -1.578   0.797  0.00  0.00    +0.127 A 
ATOM      5  C   UNL     1       5.836  -2.704   0.966  0.00  0.00    +0.034 A 
ATOM      6  C   UNL     1       5.567  -3.849   0.240  0.00  0.00    +0.022 A 
ATOM      7  C   UNL     1       4.510  -3.870  -0.652  0.00  0.00    +0.047 A 
ATOM      8 CL   UNL     1       4.167  -5.310  -1.558  0.00  0.00    -0.083 Cl
BRANCH   4   9
ATOM      9  N   UNL     1       5.340  -0.352   1.574  0.00  0.00    +0.056 N 
ATOM     10  O   UNL     1       4.654   0.633   1.426  0.00  0.00    -0.126 OA
ATOM     11  O   UNL     1       6.261  -0.335   2.357  0.00  0.00    -0.126 OA
ENDBRANCH   4   9
ENDBRANCH   1   2
BRANCH   1  12
ATOM     12  C   UNL     1       2.150  -1.349  -2.099  0.00  0.00    +0.239 C 
ATOM     13  O   UNL     1       1.075  -0.947  -1.706  0.00  0.00    -0.273 OA
ATOM     14  N   UNL     1       2.959  -0.532  -2.803  0.00  0.00    -0.309 N 
ATOM     15  H   UNL     1       3.778  -0.877  -3.191  0.00  0.00    +0.149 HD
BRANCH  14  16
ATOM     16  C   UNL     1       2.600   0.878  -2.982  0.00  0.00    +0.026 C 
ATOM     17  C   UNL     1       2.491   1.554  -1.614  0.00  0.00    +0.031 C 
ATOM     18  C   UNL     1       3.679   1.577  -3.812  0.00  0.00    +0.031 C 
ATOM     19  C   UNL     1       1.256   0.974  -3.707  0.00  0.00    +0.031 C 
ENDBRANCH  14  16
ENDBRANCH   1  12
BRANCH   1  20
ATOM     20  N   UNL     1       1.458  -3.502  -1.220  0.00  0.00    -0.275 N 
ATOM     21  C   UNL     1       0.382  -3.797  -1.976  0.00  0.00    +0.248 C 
ATOM     22  O   UNL     1      -0.347  -4.718  -1.662  0.00  0.00    -0.270 OA
BRANCH  21  23
ATOM     23  C   UNL     1       0.089  -3.003  -3.185  0.00  0.00    +0.037 A 
ATOM     24  C   UNL     1       1.127  -2.374  -3.879  0.00  0.00    +0.016 A 
ATOM     25  C   UNL     1       0.850  -1.635  -5.006  0.00  0.00    +0.046 A 
ATOM     26  C   UNL     1      -0.460  -1.513  -5.455  0.00  0.00    +0.117 A 
ATOM     27  C   UNL     1      -1.495  -2.137  -4.768  0.00  0.00    +0.046 A 
ATOM     28  C   UNL     1      -1.225  -2.883  -3.643  0.00  0.00    +0.016 A 
BRANCH  26  29
ATOM     29  O   UNL     1      -0.730  -0.783  -6.567  0.00  0.00    -0.507 OA
ATOM     30  H   UNL     1      -0.704  -1.292  -7.388  0.00  0.00    +0.292 HD
ENDBRANCH  26  29
ENDBRANCH  21  23
BRANCH  20  31
ATOM     31  C   UNL     1       1.506  -3.921   0.183  0.00  0.00    +0.183 C 
BRANCH  31  36
ATOM     32  C   UNL     1       0.746   0.050   3.198  0.00  0.00    +0.086 C 
ATOM     33  C   UNL     1       0.480  -1.167   2.349  0.00  0.00    +0.102 A 
ATOM     34  C   UNL     1      -0.724  -1.723   2.126  0.00  0.00    +0.045 A 
ATOM     35  C   UNL     1      -0.511  -2.836   1.281  0.00  0.00    +0.046 A 
ATOM     36  C   UNL     1       0.811  -2.894   1.038  0.00  0.00    +0.122 A 
ATOM     37  O   UNL     1       1.405  -1.877   1.683  0.00  0.00    -0.463 OA
ENDBRANCH  31  36
ENDBRANCH  20  31
ENDBRANCH   1  20
TORSDOF 9
