REMARK  Name = ZINC33400005
REMARK  6 active torsions:
REMARK  status: ('A' for Active; 'I' for Inactive)
REMARK    1  A    between atoms: C_3  and  C_7
REMARK    2  A    between atoms: N_9  and  N_10
REMARK    3  A    between atoms: C_11  and  C_12
REMARK    4  A    between atoms: C_15  and  N_18
REMARK    5  A    between atoms: C_19  and  C_31
REMARK    6  A    between atoms: C_22  and  C_24
REMARK                            x       y       z     vdW  Elec       q    Type
REMARK                         _______ _______ _______ _____ _____    ______ ____
ROOT
ATOM      1  N   UNL     1      -5.931  -2.165  -0.050  0.00  0.00    -0.216 N 
ATOM      2  C   UNL     1      -6.099  -0.716  -0.243  0.00  0.00    +0.134 C 
ATOM      3  C   UNL     1      -7.623  -0.510  -0.131  0.00  0.00    +0.087 C 
ATOM      4  C   UNL     1      -8.160  -1.900   0.127  0.00  0.00    +0.069 C 
ATOM      5  N   UNL     1      -7.183  -2.740   0.157  0.00  0.00    -0.183 NA
ENDROOT
BRANCH   4   6
ATOM      6  C   UNL     1      -9.582  -2.241   0.316  0.00  0.00    -0.002 A 
ATOM      7  C   UNL     1     -10.556  -1.240   0.269  0.00  0.00    +0.011 A 
ATOM      8  C   UNL     1     -11.884  -1.567   0.440  0.00  0.00    +0.020 A 
ATOM      9  C   UNL     1     -12.253  -2.882   0.671  0.00  0.00    +0.041 A 
ATOM     10  C   UNL     1     -11.292  -3.877   0.726  0.00  0.00    +0.020 A 
ATOM     11  C   UNL     1      -9.961  -3.565   0.550  0.00  0.00    +0.011 A 
ATOM     12 CL   UNL     1     -13.927  -3.283   0.894  0.00  0.00    -0.084 Cl
ENDBRANCH   4   6
BRANCH   2  13
ATOM     13  C   UNL     1      -5.609  -0.302  -1.607  0.00  0.00    -0.025 A 
ATOM     14  C   UNL     1      -5.832  -1.120  -2.698  0.00  0.00    +0.007 A 
ATOM     15  C   UNL     1      -5.388  -0.739  -3.950  0.00  0.00    +0.020 A 
ATOM     16  C   UNL     1      -4.710   0.457  -4.109  0.00  0.00    +0.041 A 
ATOM     17  C   UNL     1      -4.482   1.272  -3.015  0.00  0.00    +0.020 A 
ATOM     18  C   UNL     1      -4.932   0.892  -1.764  0.00  0.00    +0.007 A 
ATOM     19 CL   UNL     1      -4.145   0.933  -5.680  0.00  0.00    -0.084 Cl
ENDBRANCH   2  13
BRANCH   1  23
ATOM     20  C   UNL     1      -2.303  -4.210  -0.095  0.00  0.00    -0.005 A 
ATOM     21  C   UNL     1      -2.330  -2.826  -0.292  0.00  0.00    +0.011 A 
ATOM     22  C   UNL     1      -3.531  -2.154  -0.282  0.00  0.00    +0.025 A 
ATOM     23  C   UNL     1      -4.718  -2.849  -0.065  0.00  0.00    +0.052 A 
ATOM     24  C   UNL     1      -4.694  -4.226   0.137  0.00  0.00    +0.025 A 
ATOM     25  C   UNL     1      -3.496  -4.905   0.123  0.00  0.00    +0.011 A 
BRANCH  20  27
ATOM     26  N   UNL     1      -1.006  -6.229  -0.186  0.00  0.00    -0.187 NA
ATOM     27  C   UNL     1      -1.020  -4.933  -0.111  0.00  0.00    +0.138 C 
BRANCH  26  30
ATOM     28  C   UNL     1      -2.154  -8.260  -0.661  0.00  0.00    +0.265 C 
ATOM     29  O   UNL     1      -1.222  -8.882  -0.187  0.00  0.00    -0.268 OA
ATOM     30  N   UNL     1      -2.117  -6.913  -0.696  0.00  0.00    -0.203 N 
ATOM     31  H   UNL     1      -2.960  -6.351  -1.125  0.00  0.00    +0.178 HD
BRANCH  28  34
ATOM     32  C   UNL     1      -4.497 -11.008  -1.686  0.00  0.00    +0.020 A 
ATOM     33  C   UNL     1      -3.377 -10.380  -1.169  0.00  0.00    +0.016 A 
ATOM     34  C   UNL     1      -3.326  -8.982  -1.199  0.00  0.00    +0.056 A 
ATOM     35  C   UNL     1      -4.402  -8.280  -1.746  0.00  0.00    +0.123 A 
ATOM     36  N   UNL     1      -5.446  -8.923  -2.225  0.00  0.00    -0.263 NA
ATOM     37  C   UNL     1      -5.521 -10.240  -2.210  0.00  0.00    +0.111 A 
ENDBRANCH  28  34
ENDBRANCH  26  30
ENDBRANCH  20  27
ENDBRANCH   1  23
TORSDOF 6
