REMARK  Name = ZINC14201710
REMARK  5 active torsions:
REMARK  status: ('A' for Active; 'I' for Inactive)
REMARK    1  A    between atoms: C_8  and  C_28
REMARK    2  A    between atoms: C_12  and  C_14
REMARK    3  A    between atoms: C_14  and  C_15
REMARK    4  A    between atoms: C_15  and  C_16
REMARK    5  A    between atoms: C_16  and  N_17
REMARK                            x       y       z     vdW  Elec       q    Type
REMARK                         _______ _______ _______ _____ _____    ______ ____
ROOT
ATOM      1  C   UNL     1       4.075   0.105   2.653  0.00  0.00    +0.000 A 
ATOM      2  C   UNL     1       4.436   1.315   2.090  0.00  0.00    +0.000 A 
ATOM      3  C   UNL     1       3.554   1.969   1.254  0.00  0.00    +0.005 A 
ATOM      4  C   UNL     1       2.309   1.422   0.975  0.00  0.00    -0.027 A 
ATOM      5  C   UNL     1       1.946   0.222   1.542  0.00  0.00    -0.040 A 
ATOM      6  C   UNL     1       2.837  -0.437   2.381  0.00  0.00    +0.004 A 
ATOM      7  C   UNL     1       0.607  -0.425   1.300  0.00  0.00    +0.067 C 
ATOM      8  C   UNL     1      -0.038   0.122   0.028  0.00  0.00    +0.166 C 
ATOM      9  N   UNL     1       0.060   1.590   0.064  0.00  0.00    -0.285 N 
ATOM     10  C   UNL     1       1.405   2.176   0.032  0.00  0.00    +0.144 C 
ATOM     11  C   UNL     1      -1.041   2.366   0.120  0.00  0.00    +0.217 C 
ATOM     12  O   UNL     1      -2.141   1.864   0.029  0.00  0.00    -0.276 OA
ENDROOT
BRANCH   8  13
ATOM     13  C   UNL     1      -1.487  -0.291  -0.028  0.00  0.00    +0.231 C 
ATOM     14  O   UNL     1      -2.137  -0.360   0.993  0.00  0.00    -0.274 OA
ATOM     15  N   UNL     1      -2.059  -0.582  -1.213  0.00  0.00    -0.328 N 
ATOM     16  H   UNL     1      -1.539  -0.526  -2.030  0.00  0.00    +0.145 HD
ATOM     17  H   UNL     1      -2.992  -0.848  -1.249  0.00  0.00    +0.145 HD
ENDBRANCH   8  13
BRANCH  11  18
ATOM     18  C   UNL     1      -0.905   3.856   0.294  0.00  0.00    +0.097 C 
BRANCH  18  19
ATOM     19  C   UNL     1      -2.295   4.495   0.325  0.00  0.00    +0.029 C 
BRANCH  19  20
ATOM     20  C   UNL     1      -2.156   6.009   0.502  0.00  0.00    +0.118 C 
BRANCH  20  21
ATOM     21  N   UNL     1      -3.487   6.620   0.532  0.00  0.00    -0.224 N 
ATOM     22  C   UNL     1      -4.141   7.069  -0.561  0.00  0.00    +0.246 C 
ATOM     23  O   UNL     1      -3.756   7.044  -1.711  0.00  0.00    -0.273 OA
ATOM     24  C   UNL     1      -5.453   7.606  -0.048  0.00  0.00    +0.113 C 
ATOM     25  C   UNL     1      -5.604   9.095  -0.384  0.00  0.00    +0.035 C 
ATOM     26  C   UNL     1      -6.499   9.105  -1.650  0.00  0.00    +0.003 C 
ATOM     27  C   UNL     1      -7.495   7.949  -1.377  0.00  0.00    +0.003 C 
ATOM     28  C   UNL     1      -6.641   6.871  -0.674  0.00  0.00    +0.035 C 
ATOM     29  N   UNL     1      -5.394   7.393   1.399  0.00  0.00    -0.285 N 
ATOM     30  C   UNL     1      -4.204   6.809   1.647  0.00  0.00    +0.309 C 
ATOM     31  O   UNL     1      -3.825   6.491   2.757  0.00  0.00    -0.252 OA
ATOM     32  H   UNL     1      -6.075   7.625   2.050  0.00  0.00    +0.151 HD
ENDBRANCH  20  21
ENDBRANCH  19  20
ENDBRANCH  18  19
ENDBRANCH  11  18
TORSDOF 5
