REMARK  Name = ZINC36094106
REMARK  9 active torsions:
REMARK  status: ('A' for Active; 'I' for Inactive)
REMARK    1  A    between atoms: C_1  and  C_2
REMARK    2  A    between atoms: C_2  and  C_3
REMARK    3  A    between atoms: C_3  and  C_5
REMARK    4  A    between atoms: C_3  and  N_6
REMARK    5  A    between atoms: N_6  and  C_7
REMARK    6  A    between atoms: C_7  and  C_8
REMARK    7  A    between atoms: C_19  and  C_22
REMARK    8  A    between atoms: C_25  and  C_28
REMARK    9  A    between atoms: C_34  and  C_36
REMARK                            x       y       z     vdW  Elec       q    Type
REMARK                         _______ _______ _______ _____ _____    ______ ____
ROOT
ATOM      1  C   UNL     1       4.040  -2.133  -0.178  0.00  0.00    +0.233 C 
ATOM      2  O   UNL     1       3.234  -3.023  -0.349  0.00  0.00    -0.274 OA
ATOM      3  N   UNL     1       5.360  -2.405  -0.204  0.00  0.00    -0.297 N 
ATOM      4  C   UNL     1       6.348  -1.337   0.007  0.00  0.00    +0.126 C 
ATOM      5  C   UNL     1       7.269  -1.744   1.163  0.00  0.00    +0.125 C 
ATOM      6  N   UNL     1       7.747  -3.113   0.925  0.00  0.00    -0.311 N 
ATOM      7  C   UNL     1       6.759  -4.181   0.714  0.00  0.00    +0.125 C 
ATOM      8  C   UNL     1       5.837  -3.775  -0.437  0.00  0.00    +0.126 C 
ATOM      9  C   UNL     1       9.108  -3.393   0.898  0.00  0.00    +0.144 A 
ATOM     10  C   UNL     1      10.028  -2.429   1.314  0.00  0.00    +0.047 A 
ATOM     11  C   UNL     1      11.372  -2.753   1.270  0.00  0.00    +0.033 A 
ATOM     12  C   UNL     1      11.725  -4.027   0.813  0.00  0.00    +0.093 A 
ATOM     13  N   UNL     1      10.780  -4.879   0.438  0.00  0.00    -0.147 NA
ATOM     14  N   UNL     1       9.533  -4.578   0.484  0.00  0.00    -0.134 NA
ENDROOT
BRANCH  12  15
ATOM     15  C   UNL     1      13.152  -4.424   0.747  0.00  0.00    +0.002 A 
ATOM     16  C   UNL     1      14.144  -3.529   1.146  0.00  0.00    +0.010 A 
ATOM     17  C   UNL     1      15.470  -3.898   1.084  0.00  0.00    +0.009 A 
ATOM     18  C   UNL     1      15.820  -5.166   0.623  0.00  0.00    -0.018 A 
ATOM     19  C   UNL     1      14.828  -6.061   0.223  0.00  0.00    +0.009 A 
ATOM     20  C   UNL     1      13.502  -5.695   0.290  0.00  0.00    +0.010 A 
BRANCH  18  21
ATOM     21  C   UNL     1      17.248  -5.563   0.556  0.00  0.00    -0.018 A 
ATOM     22  C   UNL     1      18.241  -4.673   0.960  0.00  0.00    +0.008 A 
ATOM     23  C   UNL     1      19.568  -5.047   0.896  0.00  0.00    +0.001 A 
ATOM     24  C   UNL     1      19.913  -6.304   0.432  0.00  0.00    +0.000 A 
ATOM     25  C   UNL     1      18.931  -7.192   0.030  0.00  0.00    +0.001 A 
ATOM     26  C   UNL     1      17.601  -6.830   0.095  0.00  0.00    +0.008 A 
ENDBRANCH  18  21
ENDBRANCH  12  15
BRANCH   1  27
ATOM     27  C   UNL     1       3.566  -0.723   0.062  0.00  0.00    +0.204 C 
BRANCH  27  28
ATOM     28  N   UNL     1       2.101  -0.691   0.043  0.00  0.00    -0.286 N 
ATOM     29  C   UNL     1       1.447  -0.473  -1.115  0.00  0.00    +0.247 C 
ATOM     30  O   UNL     1       1.858   0.360  -1.899  0.00  0.00    -0.270 OA
BRANCH  29  31
ATOM     31  C   UNL     1       0.229  -1.249  -1.433  0.00  0.00    +0.037 A 
ATOM     32  C   UNL     1      -0.698  -1.540  -0.430  0.00  0.00    +0.013 A 
ATOM     33  C   UNL     1      -1.833  -2.263  -0.734  0.00  0.00    +0.001 A 
ATOM     34  C   UNL     1      -2.053  -2.700  -2.027  0.00  0.00    +0.000 A 
ATOM     35  C   UNL     1      -1.138  -2.416  -3.026  0.00  0.00    +0.001 A 
ATOM     36  C   UNL     1      -0.002  -1.688  -2.737  0.00  0.00    +0.013 A 
ENDBRANCH  29  31
BRANCH  28  37
ATOM     37  C   UNL     1       1.348  -0.894   1.283  0.00  0.00    +0.074 C 
ATOM     38  C   UNL     1       0.785  -2.317   1.309  0.00  0.00    +0.028 C 
BRANCH  37  40
ATOM     39  C   UNL     1       0.737   1.477   1.779  0.00  0.00    +0.005 C 
ATOM     40  C   UNL     1       0.197   0.111   1.351  0.00  0.00    +0.019 C 
ENDBRANCH  37  40
ENDBRANCH  28  37
ENDBRANCH  27  28
ENDBRANCH   1  27
TORSDOF 7
