REMARK  Name = ZINC39684263
REMARK  9 active torsions:
REMARK  status: ('A' for Active; 'I' for Inactive)
REMARK    1  A    between atoms: C_1  and  C_2
REMARK    2  A    between atoms: C_7  and  C_11
REMARK    3  A    between atoms: C_11  and  C_12
REMARK    4  A    between atoms: C_12  and  N_13
REMARK    5  A    between atoms: C_14  and  C_16
REMARK    6  A    between atoms: C_27  and  C_29
REMARK    7  A    between atoms: C_29  and  C_30
REMARK    8  A    between atoms: C_30  and  O_31
REMARK    9  A    between atoms: O_31  and  C_32
REMARK                            x       y       z     vdW  Elec       q    Type
REMARK                         _______ _______ _______ _____ _____    ______ ____
ROOT
ATOM      1  C   UNL     1      -8.680   1.722  -6.216  0.00  0.00    +0.100 C 
ATOM      2  C   UNL     1      -9.909   2.121  -5.369  0.00  0.00    +0.121 C 
ATOM      3  N   UNL     1     -11.075   1.668  -6.164  0.00  0.00    -0.300 N 
ATOM      4  C   UNL     1     -10.652   0.364  -6.728  0.00  0.00    +0.115 C 
ATOM      5  C   UNL     1      -9.171   0.568  -7.106  0.00  0.00    -0.004 C 
ATOM      6  C   UNL     1      -8.373  -0.699  -6.817  0.00  0.00    -0.010 C 
ATOM      7  C   UNL     1      -8.840  -1.816  -7.754  0.00  0.00    -0.082 C 
ATOM      8  N   UNL     1      -8.647  -1.400  -9.149  0.00  0.00    +0.379 N 
ATOM      9  C   UNL     1      -9.490  -0.236  -9.445  0.00  0.00    -0.082 C 
ATOM     10  C   UNL     1      -9.050   0.948  -8.579  0.00  0.00    -0.010 C 
ATOM     11  C   UNL     1     -12.253   2.299  -6.335  0.00  0.00    +0.218 C 
ATOM     12  O   UNL     1     -13.117   1.795  -7.021  0.00  0.00    -0.276 OA
ATOM     13  H   UNL     1      -7.678  -1.159  -9.295  0.00  0.00    -0.086 HD
ATOM     14  H   UNL     1      -8.898  -2.160  -9.763  0.00  0.00    -0.086 HD
ENDROOT
BRANCH   1  16
ATOM     15  N   UNL     1      -6.277   1.406  -5.721  0.00  0.00    -0.315 N 
ATOM     16  C   UNL     1      -7.557   1.256  -5.326  0.00  0.00    +0.218 C 
ATOM     17  O   UNL     1      -7.805   0.747  -4.253  0.00  0.00    -0.275 OA
ATOM     18  H   UNL     1      -6.079   1.814  -6.579  0.00  0.00    +0.149 HD
BRANCH  15  19
ATOM     19  C   UNL     1      -5.186   0.953  -4.855  0.00  0.00    +0.109 C 
BRANCH  19  20
ATOM     20  C   UNL     1      -3.845   1.238  -5.534  0.00  0.00    +0.056 C 
BRANCH  20  27
ATOM     21  C   UNL     1       0.667  -1.664  -2.287  0.00  0.00    +0.046 C 
ATOM     22  C   UNL     1      -0.435  -1.695  -3.314  0.00  0.00    -0.027 A 
ATOM     23  C   UNL     1      -0.739  -2.869  -3.967  0.00  0.00    +0.005 A 
ATOM     24  C   UNL     1      -1.752  -2.911  -4.915  0.00  0.00    +0.001 A 
ATOM     25  C   UNL     1      -2.466  -1.785  -5.218  0.00  0.00    +0.010 A 
ATOM     26  C   UNL     1      -2.175  -0.585  -4.569  0.00  0.00    +0.003 A 
ATOM     27  C   UNL     1      -2.722   0.772  -4.644  0.00  0.00    -0.021 A 
ATOM     28  C   UNL     1      -2.033   1.522  -3.769  0.00  0.00    +0.087 A 
ATOM     29  N   UNL     1      -1.089   0.757  -3.140  0.00  0.00    -0.360 N 
ATOM     30  C   UNL     1      -1.153  -0.539  -3.602  0.00  0.00    +0.050 A 
ATOM     31  H   UNL     1      -0.470   1.078  -2.466  0.00  0.00    +0.165 HD
ENDBRANCH  20  27
ENDBRANCH  19  20
ENDBRANCH  15  19
ENDBRANCH   1  16
BRANCH  11  32
ATOM     32  C   UNL     1     -12.498   3.631  -5.675  0.00  0.00    +0.124 C 
BRANCH  32  33
ATOM     33  C   UNL     1     -13.902   4.126  -6.028  0.00  0.00    +0.168 C 
BRANCH  33  34
ATOM     34  O   UNL     1     -14.134   5.389  -5.401  0.00  0.00    -0.382 OA
ATOM     35  C   UNL     1     -15.424   5.942  -5.669  0.00  0.00    +0.194 C 
ENDBRANCH  33  34
ENDBRANCH  32  33
ENDBRANCH  11  32
TORSDOF 7
