REMARK  Name = ZINC30882849
REMARK  15 active torsions:
REMARK  status: ('A' for Active; 'I' for Inactive)
REMARK    1  A    between atoms: C_1  and  C_2
REMARK    2  A    between atoms: C_4  and  C_26
REMARK    3  A    between atoms: C_6  and  C_23
REMARK    4  A    between atoms: C_9  and  C_11
REMARK    5  A    between atoms: C_11  and  C_12
REMARK    6  A    between atoms: C_15  and  C_17
REMARK    7  A    between atoms: C_23  and  C_24
REMARK    8  A    between atoms: C_23  and  C_25
REMARK    9  A    between atoms: C_26  and  N_27
REMARK   10  A    between atoms: N_27  and  C_28
REMARK   11  A    between atoms: N_27  and  C_29
REMARK   12  A    between atoms: C_29  and  C_30
REMARK   13  A    between atoms: C_30  and  N_31
REMARK   14  A    between atoms: N_31  and  C_32
REMARK   15  A    between atoms: N_31  and  C_33
REMARK                            x       y       z     vdW  Elec       q    Type
REMARK                         _______ _______ _______ _____ _____    ______ ____
ROOT
ATOM      1  C   UNL     1       3.186   3.544   0.066  0.00  0.00    +0.039 C 
ATOM      2  C   UNL     1       1.867   2.869   0.339  0.00  0.00    -0.073 C 
ATOM      3  C   UNL     1       1.538   1.859  -0.401  0.00  0.00    -0.026 C 
ATOM      4  C   UNL     1       0.255   1.093  -0.256  0.00  0.00    -0.002 C 
ATOM      5  C   UNL     1      -0.380   1.382   1.106  0.00  0.00    -0.003 C 
ATOM      6  C   UNL     1      -0.420   2.902   1.310  0.00  0.00    +0.012 C 
ATOM      7  C   UNL     1       1.017   3.409   1.451  0.00  0.00    +0.024 C 
ENDROOT
BRANCH   5   8
ATOM      8  C   UNL     1      -1.803   0.821   1.139  0.00  0.00    -0.014 C 
ATOM      9  C   UNL     1      -2.410   1.051   2.525  0.00  0.00    +0.007 C 
ATOM     10  C   UNL     1      -2.655   1.530   0.085  0.00  0.00    +0.007 C 
ENDBRANCH   5   8
BRANCH   7  11
ATOM     11  C   UNL     1       1.585   2.947   2.794  0.00  0.00    +0.105 C 
BRANCH  11  12
ATOM     12  C   UNL     1       0.808   3.586   3.916  0.00  0.00    +0.218 A 
ATOM     13  N   UNL     1      -0.197   3.056   4.556  0.00  0.00    -0.112 NA
ATOM     14  N   UNL     1      -0.620   3.879   5.449  0.00  0.00    -0.107 NA
ATOM     15  C   UNL     1       0.106   4.972   5.410  0.00  0.00    +0.248 A 
ATOM     16  O   UNL     1       1.028   4.804   4.441  0.00  0.00    -0.420 OA
BRANCH  15  17
ATOM     17  C   UNL     1      -0.053   6.162   6.272  0.00  0.00    +0.038 A 
ATOM     18  C   UNL     1       0.799   7.256   6.120  0.00  0.00    +0.013 A 
ATOM     19  C   UNL     1       0.642   8.367   6.924  0.00  0.00    +0.001 A 
ATOM     20  C   UNL     1      -0.352   8.392   7.886  0.00  0.00    +0.000 A 
ATOM     21  C   UNL     1      -1.198   7.309   8.045  0.00  0.00    +0.001 A 
ATOM     22  C   UNL     1      -1.054   6.195   7.244  0.00  0.00    +0.013 A 
ENDBRANCH  15  17
ENDBRANCH  11  12
ENDBRANCH   7  11
BRANCH   4  23
ATOM     23  C   UNL     1       0.543  -0.405  -0.375  0.00  0.00    -0.071 C 
BRANCH  23  24
ATOM     24  N   UNL     1      -0.725  -1.146  -0.396  0.00  0.00    +0.379 N 
ATOM     25  C   UNL     1      -1.375  -1.039  -1.709  0.00  0.00    -0.096 C 
ATOM     26  H   UNL     1      -1.394  -0.694   0.351  0.00  0.00    -0.082 HD
BRANCH  24  27
ATOM     27  C   UNL     1      -0.519  -2.553  -0.025  0.00  0.00    -0.064 C 
BRANCH  27  28
ATOM     28  C   UNL     1      -1.875  -3.229   0.184  0.00  0.00    +0.065 C 
BRANCH  28  29
ATOM     29  N   UNL     1      -1.669  -4.635   0.555  0.00  0.00    -0.310 NA
ATOM     30  C   UNL     1      -2.927  -5.254   0.994  0.00  0.00    +0.104 C 
ATOM     31  C   UNL     1      -1.069  -5.390  -0.553  0.00  0.00    +0.104 C 
ENDBRANCH  28  29
ENDBRANCH  27  28
ENDBRANCH  24  27
ENDBRANCH  23  24
ENDBRANCH   4  23
TORSDOF 9
