REMARK  Name = ZINC40339828
REMARK  9 active torsions:
REMARK  status: ('A' for Active; 'I' for Inactive)
REMARK    1  A    between atoms: C_4  and  C_7
REMARK    2  A    between atoms: N_15  and  C_33
REMARK    3  A    between atoms: C_16  and  C_18
REMARK    4  A    between atoms: C_21  and  O_24
REMARK    5  A    between atoms: O_24  and  C_25
REMARK    6  A    between atoms: C_25  and  C_26
REMARK    7  A    between atoms: C_33  and  C_34
REMARK    8  A    between atoms: C_34  and  C_35
REMARK    9  A    between atoms: C_35  and  N_36
REMARK                            x       y       z     vdW  Elec       q    Type
REMARK                         _______ _______ _______ _____ _____    ______ ____
ROOT
ATOM      1  C   UNL     1       3.696  -0.686  -0.038  0.00  0.00    +0.072 A 
ATOM      2  C   UNL     1       4.038  -1.757   0.723  0.00  0.00    +0.035 A 
ATOM      3  C   UNL     1       5.362  -2.090   0.354  0.00  0.00    +0.153 A 
ATOM      4  N   UNL     1       5.728  -1.230  -0.575  0.00  0.00    -0.168 NA
ATOM      5  H   UNL     1       4.817   0.312  -1.478  0.00  0.00    +0.189 HD
ATOM      6  N   UNL     1       4.775  -0.405  -0.827  0.00  0.00    -0.276 N 
ATOM      7  C   UNL     1       5.777  -3.253   1.159  0.00  0.00    +0.268 C 
ATOM      8  O   UNL     1       6.864  -3.793   1.088  0.00  0.00    -0.268 OA
ATOM      9  N   UNL     1       4.785  -3.633   1.982  0.00  0.00    -0.285 N 
ATOM     10  C   UNL     1       3.633  -2.745   1.783  0.00  0.00    +0.141 C 
ENDROOT
BRANCH   1  14
ATOM     11  C   UNL     1      -0.017   1.379   0.010  0.00  0.00    +0.000 A 
ATOM     12  C   UNL     1       1.168   2.093   0.002  0.00  0.00    +0.001 A 
ATOM     13  C   UNL     1       2.377   1.428  -0.013  0.00  0.00    +0.010 A 
ATOM     14  C   UNL     1       2.403   0.033  -0.021  0.00  0.00    +0.000 A 
ATOM     15  C   UNL     1       1.205  -0.680  -0.013  0.00  0.00    +0.010 A 
ATOM     16  C   UNL     1       0.002  -0.004   0.002  0.00  0.00    +0.001 A 
ENDBRANCH   1  14
BRANCH  10  17
ATOM     17  C   UNL     1       3.308  -2.023   3.065  0.00  0.00    -0.022 A 
ATOM     18  C   UNL     1       4.329  -1.577   3.884  0.00  0.00    +0.009 A 
ATOM     19  C   UNL     1       4.034  -0.915   5.060  0.00  0.00    +0.046 A 
ATOM     20  C   UNL     1       2.712  -0.699   5.420  0.00  0.00    +0.121 A 
ATOM     21  C   UNL     1       1.689  -1.148   4.597  0.00  0.00    +0.046 A 
ATOM     22  C   UNL     1       1.990  -1.804   3.419  0.00  0.00    +0.009 A 
BRANCH  20  23
ATOM     23  O   UNL     1       2.419  -0.049   6.577  0.00  0.00    -0.487 OA
BRANCH  23  24
ATOM     24  C   UNL     1       1.036   0.138   6.883  0.00  0.00    +0.264 C 
BRANCH  24  25
ATOM     25  C   UNL     1       0.906   0.872   8.193  0.00  0.00    -0.010 A 
ATOM     26  C   UNL     1       0.841   0.163   9.378  0.00  0.00    +0.008 A 
ATOM     27  C   UNL     1       0.722   0.835  10.580  0.00  0.00    +0.020 A 
ATOM     28  C   UNL     1       0.669   2.218  10.597  0.00  0.00    +0.041 A 
ATOM     29  C   UNL     1       0.735   2.926   9.411  0.00  0.00    +0.020 A 
ATOM     30  C   UNL     1       0.859   2.253   8.210  0.00  0.00    +0.008 A 
ATOM     31 CL   UNL     1       0.519   3.063  12.106  0.00  0.00    -0.084 Cl
ENDBRANCH  24  25
ENDBRANCH  23  24
ENDBRANCH  20  23
ENDBRANCH  10  17
BRANCH   9  32
ATOM     32  C   UNL     1       4.843  -4.752   2.925  0.00  0.00    +0.111 C 
BRANCH  32  33
ATOM     33  C   UNL     1       5.370  -4.256   4.273  0.00  0.00    +0.040 C 
BRANCH  33  34
ATOM     34  C   UNL     1       5.430  -5.425   5.258  0.00  0.00    +0.124 C 
BRANCH  34  35
ATOM     35  N   UNL     1       5.935  -4.950   6.549  0.00  0.00    -0.338 N 
ATOM     36  C   UNL     1       7.246  -4.899   6.940  0.00  0.00    +0.104 A 
ATOM     37  C   UNL     1       7.260  -4.400   8.191  0.00  0.00    +0.101 A 
ATOM     38  N   UNL     1       5.993  -4.153   8.554  0.00  0.00    -0.352 N 
ATOM     39  C   UNL     1       5.194  -4.475   7.574  0.00  0.00    +0.173 A 
ATOM     40  H   UNL     1       5.714  -3.789   9.409  0.00  0.00    +0.166 HD
ENDBRANCH  34  35
ENDBRANCH  33  34
ENDBRANCH  32  33
ENDBRANCH   9  32
TORSDOF 9
