REMARK  Name = ZINC33253897
REMARK  7 active torsions:
REMARK  status: ('A' for Active; 'I' for Inactive)
REMARK    1  A    between atoms: C_4  and  S_7
REMARK    2  A    between atoms: S_7  and  N_10
REMARK    3  A    between atoms: N_10  and  C_11
REMARK    4  A    between atoms: C_13  and  C_32
REMARK    5  A    between atoms: C_16  and  N_17
REMARK    6  A    between atoms: C_20  and  C_23
REMARK    7  A    between atoms: C_20  and  N_26
REMARK                            x       y       z     vdW  Elec       q    Type
REMARK                         _______ _______ _______ _____ _____    ______ ____
ROOT
ATOM      1  C   UNL     1       3.683   0.654  -2.570  0.00  0.00    +0.070 A 
ATOM      2  C   UNL     1       4.122   1.895  -2.150  0.00  0.00    +0.041 A 
ATOM      3  C   UNL     1       4.285   2.926  -3.080  0.00  0.00    +0.065 A 
ATOM      4  C   UNL     1       3.995   2.701  -4.429  0.00  0.00    +0.017 A 
ATOM      5  C   UNL     1       3.552   1.464  -4.842  0.00  0.00    +0.026 A 
ATOM      6  C   UNL     1       3.394   0.436  -3.920  0.00  0.00    +0.052 A 
ENDROOT
BRANCH   6   7
ATOM      7  N   UNL     1       2.946  -0.814  -4.343  0.00  0.00    -0.329 N 
ATOM      8  C   UNL     1       3.912  -1.438  -5.255  0.00  0.00    +0.104 C 
ATOM      9  C   UNL     1       3.459  -2.863  -5.583  0.00  0.00    +0.016 C 
ATOM     10  C   UNL     1       2.072  -2.816  -6.231  0.00  0.00    +0.015 C 
ATOM     11  C   UNL     1       1.096  -2.118  -5.280  0.00  0.00    +0.016 C 
ATOM     12  C   UNL     1       1.617  -0.715  -4.961  0.00  0.00    +0.104 C 
BRANCH  10  13
ATOM     13  N   UNL     1       1.607  -4.185  -6.494  0.00  0.00    +0.389 N 
ATOM     14  C   UNL     1       1.390  -4.917  -5.240  0.00  0.00    -0.077 C 
ATOM     15  C   UNL     1       0.770  -6.283  -5.546  0.00  0.00    -0.019 C 
ATOM     16  C   UNL     1       1.710  -7.070  -6.463  0.00  0.00    -0.004 C 
ATOM     17  C   UNL     1       1.958  -6.264  -7.741  0.00  0.00    -0.019 C 
ATOM     18  C   UNL     1       2.543  -4.899  -7.372  0.00  0.00    -0.077 C 
ATOM     19  H   UNL     1       0.641  -4.120  -7.016  0.00  0.00    -0.080 HD
ENDBRANCH  10  13
BRANCH  10  20
ATOM     20  C   UNL     1       2.146  -2.051  -7.527  0.00  0.00    +0.200 C 
ATOM     21  O   UNL     1       3.069  -1.292  -7.731  0.00  0.00    -0.278 OA
ATOM     22  N   UNL     1       1.186  -2.211  -8.460  0.00  0.00    -0.330 N 
ATOM     23  H   UNL     1       1.240  -1.653  -9.406  0.00  0.00    +0.145 HD
ATOM     24  H   UNL     1       0.349  -2.900  -8.274  0.00  0.00    +0.145 HD
ENDBRANCH  10  20
ENDBRANCH   6   7
BRANCH   3  25
ATOM     25  C   UNL     1       4.759   4.250  -2.638  0.00  0.00    +0.387 C 
ATOM     26  O   UNL     1       5.011   4.445  -1.465  0.00  0.00    -0.241 OA
ATOM     27  O   UNL     1       4.912   5.245  -3.534  0.00  0.00    -0.241 OA
ENDBRANCH   3  25
BRANCH   1  28
ATOM     28  N   UNL     1       3.522  -0.384  -1.643  0.00  0.00    -0.214 N 
ATOM     29  H   UNL     1       3.750  -1.420  -1.932  0.00  0.00    +0.174 HD
BRANCH  28  30
ATOM     30  S   UNL     1       2.988  -0.049  -0.111  0.00  0.00    +0.072 S 
ATOM     31  O   UNL     1       3.850   0.953   0.409  0.00  0.00    -0.150 OA
ATOM     32  O   UNL     1       2.798  -1.301   0.535  0.00  0.00    -0.150 OA
BRANCH  30  36
ATOM     33  C   UNL     1      -1.106   1.840  -0.502  0.00  0.00    +0.000 A 
ATOM     34  C   UNL     1       0.025   2.635  -0.502  0.00  0.00    +0.002 A 
ATOM     35  C   UNL     1       1.275   2.058  -0.383  0.00  0.00    +0.029 A 
ATOM     36  C   UNL     1       1.395   0.686  -0.263  0.00  0.00    +0.108 A 
ATOM     37  C   UNL     1       0.264  -0.109  -0.263  0.00  0.00    +0.029 A 
ATOM     38  C   UNL     1      -0.987   0.469  -0.382  0.00  0.00    +0.002 A 
ENDBRANCH  30  36
ENDBRANCH  28  30
ENDBRANCH   1  28
TORSDOF 7
