REMARK  Name = ZINC22495872
REMARK  11 active torsions:
REMARK  status: ('A' for Active; 'I' for Inactive)
REMARK    1  A    between atoms: C_1  and  C_2
REMARK    2  A    between atoms: C_2  and  C_3
REMARK    3  A    between atoms: C_2  and  C_4
REMARK    4  A    between atoms: C_7  and  C_10
REMARK    5  A    between atoms: C_10  and  C_12
REMARK    6  A    between atoms: C_12  and  N_13
REMARK    7  A    between atoms: C_16  and  C_20
REMARK    8  A    between atoms: C_16  and  C_21
REMARK    9  A    between atoms: C_24  and  C_27
REMARK   10  A    between atoms: C_27  and  C_28
REMARK   11  A    between atoms: C_27  and  C_29
REMARK                            x       y       z     vdW  Elec       q    Type
REMARK                         _______ _______ _______ _____ _____    ______ ____
ROOT
ATOM      1  N   UNL     1      -7.276  -3.241  -0.841  0.00  0.00    -0.216 N 
ATOM      2  C   UNL     1      -7.658  -4.338  -0.157  0.00  0.00    +0.251 C 
ATOM      3  O   UNL     1      -6.939  -5.170   0.354  0.00  0.00    -0.272 OA
ATOM      4  C   UNL     1      -9.174  -4.315  -0.158  0.00  0.00    +0.135 C 
ATOM      5  N   UNL     1      -9.501  -3.093  -0.913  0.00  0.00    -0.281 N 
ATOM      6  C   UNL     1      -8.329  -2.533  -1.265  0.00  0.00    +0.310 C 
ATOM      7  O   UNL     1      -8.237  -1.501  -1.900  0.00  0.00    -0.252 OA
ATOM      8  C   UNL     1      -9.730  -5.551  -0.867  0.00  0.00    +0.047 C 
ATOM      9  H   UNL     1     -10.387  -2.756  -1.115  0.00  0.00    +0.152 HD
ENDROOT
BRANCH   4  10
ATOM     10  C   UNL     1      -9.704  -4.226   1.250  0.00  0.00    -0.015 A 
ATOM     11  C   UNL     1      -8.983  -4.771   2.296  0.00  0.00    +0.006 A 
ATOM     12  C   UNL     1      -9.469  -4.689   3.587  0.00  0.00    +0.004 A 
ATOM     13  C   UNL     1     -10.676  -4.062   3.833  0.00  0.00    -0.045 A 
ATOM     14  C   UNL     1     -11.396  -3.515   2.787  0.00  0.00    +0.004 A 
ATOM     15  C   UNL     1     -10.908  -3.594   1.496  0.00  0.00    +0.006 A 
BRANCH  13  16
ATOM     16  C   UNL     1     -11.207  -3.974   5.240  0.00  0.00    +0.013 C 
ATOM     17  C   UNL     1     -11.370  -2.504   5.633  0.00  0.00    +0.012 C 
ATOM     18  C   UNL     1     -12.564  -4.676   5.319  0.00  0.00    +0.012 C 
ENDBRANCH  13  16
ENDBRANCH   4  10
BRANCH   1  19
ATOM     19  C   UNL     1      -5.881  -2.867  -1.084  0.00  0.00    +0.197 C 
BRANCH  19  20
ATOM     20  C   UNL     1      -5.391  -1.995   0.044  0.00  0.00    +0.181 C 
ATOM     21  O   UNL     1      -6.134  -1.714   0.960  0.00  0.00    -0.290 OA
BRANCH  20  25
ATOM     22  C   UNL     1      -1.412  -0.526   0.013  0.00  0.00    -0.045 A 
ATOM     23  C   UNL     1      -2.257  -0.202   1.060  0.00  0.00    +0.004 A 
ATOM     24  C   UNL     1      -3.552  -0.675   1.077  0.00  0.00    +0.012 A 
ATOM     25  C   UNL     1      -4.010  -1.485   0.033  0.00  0.00    +0.019 A 
ATOM     26  C   UNL     1      -3.150  -1.807  -1.022  0.00  0.00    +0.012 A 
ATOM     27  C   UNL     1      -1.860  -1.322  -1.027  0.00  0.00    +0.004 A 
BRANCH  22  29
ATOM     28  C   UNL     1      -0.019   1.526   0.010  0.00  0.00    +0.012 C 
ATOM     29  C   UNL     1       0.002  -0.004   0.002  0.00  0.00    +0.013 C 
ATOM     30  C   UNL     1       0.742  -0.511   1.242  0.00  0.00    +0.012 C 
ENDBRANCH  22  29
ENDBRANCH  20  25
ENDBRANCH  19  20
ENDBRANCH   1  19
TORSDOF 6
