REMARK  Name = ZINC06530528
REMARK  10 active torsions:
REMARK  status: ('A' for Active; 'I' for Inactive)
REMARK    1  A    between atoms: C_1  and  C_2
REMARK    2  A    between atoms: C_7  and  N_12
REMARK    3  A    between atoms: C_9  and  C_11
REMARK    4  A    between atoms: C_13  and  C_15
REMARK    5  A    between atoms: C_15  and  N_53
REMARK    6  A    between atoms: C_16  and  C_17
REMARK    7  A    between atoms: C_16  and  N_53
REMARK    8  A    between atoms: C_17  and  C_18
REMARK    9  A    between atoms: C_21  and  S_24
REMARK   10  A    between atoms: S_24  and  N_27
REMARK                            x       y       z     vdW  Elec       q    Type
REMARK                         _______ _______ _______ _____ _____    ______ ____
ROOT
ATOM      1  N   UNL     1       3.564   1.900  -0.022  0.00  0.00    +0.385 N 
ATOM      2  H   UNL     1       3.502   2.484   0.820  0.00  0.00    -0.085 HD
ATOM      3  H   UNL     1       3.486   2.493  -0.856  0.00  0.00    -0.085 HD
ENDROOT
BRANCH   1   4
ATOM      4  C   UNL     1       2.462   0.920  -0.017  0.00  0.00    +0.015 C 
BRANCH   4   6
ATOM      5  N   UNL     1      -0.011   0.966   0.007  0.00  0.00    -0.314 N 
ATOM      6  C   UNL     1       1.147   1.655   0.000  0.00  0.00    +0.196 C 
ATOM      7  O   UNL     1       1.130   2.868   0.007  0.00  0.00    -0.278 OA
ATOM      8  H   UNL     1       0.002  -0.004   0.002  0.00  0.00    +0.149 HD
BRANCH   5  14
ATOM      9  C   UNL     1      -3.583   2.824  -1.403  0.00  0.00    +0.008 C 
ATOM     10  C   UNL     1      -3.711   1.539  -0.582  0.00  0.00    -0.009 C 
ATOM     11  C   UNL     1      -4.088   1.890   0.859  0.00  0.00    +0.003 C 
ATOM     12  C   UNL     1      -3.002   2.779   1.468  0.00  0.00    +0.002 C 
ATOM     13  C   UNL     1      -1.667   2.032   1.458  0.00  0.00    +0.022 C 
ATOM     14  C   UNL     1      -1.290   1.681   0.017  0.00  0.00    +0.076 C 
ATOM     15  C   UNL     1      -2.376   0.792  -0.592  0.00  0.00    +0.009 C 
ATOM     16  C   UNL     1      -1.999   0.442  -2.033  0.00  0.00    +0.009 C 
ENDBRANCH   5  14
ENDBRANCH   4   6
ENDBRANCH   1   4
BRANCH   1  17
ATOM     17  C   UNL     1       4.866   1.207  -0.038  0.00  0.00    -0.077 C 
BRANCH  17  18
ATOM     18  C   UNL     1       5.988   2.247  -0.043  0.00  0.00    +0.016 C 
BRANCH  18  19
ATOM     19  C   UNL     1       7.322   1.547  -0.059  0.00  0.00    -0.049 A 
ATOM     20  C   UNL     1       7.948   1.224   1.130  0.00  0.00    +0.005 A 
ATOM     21  C   UNL     1       9.170   0.577   1.115  0.00  0.00    +0.029 A 
ATOM     22  C   UNL     1       9.771   0.263  -0.090  0.00  0.00    +0.105 A 
ATOM     23  C   UNL     1       9.147   0.590  -1.279  0.00  0.00    +0.029 A 
ATOM     24  C   UNL     1       7.923   1.232  -1.264  0.00  0.00    +0.005 A 
BRANCH  22  25
ATOM     25  S   UNL     1      11.331  -0.555  -0.109  0.00  0.00    +0.056 S 
ATOM     26  O   UNL     1      11.447  -1.238   1.132  0.00  0.00    -0.153 OA
ATOM     27  O   UNL     1      11.423  -1.225  -1.359  0.00  0.00    -0.153 OA
BRANCH  25  28
ATOM     28  N   UNL     1      12.499   0.618  -0.114  0.00  0.00    -0.204 NA
ATOM     29  H   UNL     1      12.246   1.554  -0.107  0.00  0.00    +0.144 HD
ATOM     30  H   UNL     1      13.437   0.369  -0.125  0.00  0.00    +0.144 HD
ENDBRANCH  25  28
ENDBRANCH  22  25
ENDBRANCH  18  19
ENDBRANCH  17  18
ENDBRANCH   1  17
TORSDOF 8
