REMARK  Name = ZINC63114776
REMARK  11 active torsions:
REMARK  status: ('A' for Active; 'I' for Inactive)
REMARK    1  A    between atoms: C_1  and  C_2
REMARK    2  A    between atoms: C_2  and  C_3
REMARK    3  A    between atoms: C_3  and  C_5
REMARK    4  A    between atoms: C_3  and  N_6
REMARK    5  A    between atoms: C_7  and  C_9
REMARK    6  A    between atoms: C_9  and  C_11
REMARK    7  A    between atoms: C_9  and  N_12
REMARK    8  A    between atoms: N_12  and  C_13
REMARK    9  A    between atoms: N_12  and  C_15
REMARK   10  A    between atoms: C_13  and  C_14
REMARK   11  A    between atoms: C_18  and  N_21
REMARK                            x       y       z     vdW  Elec       q    Type
REMARK                         _______ _______ _______ _____ _____    ______ ____
ROOT
ATOM      1  N   UNL     1       4.803   0.553  -3.671  0.00  0.00    -0.385 NA
ATOM      2  H   UNL     1       4.274   1.232  -4.197  0.00  0.00    +0.127 HD
ENDROOT
BRANCH   1   3
ATOM      3  C   UNL     1       4.700  -0.697  -4.288  0.00  0.00    +0.014 A 
ATOM      4  C   UNL     1       5.342  -1.792  -3.740  0.00  0.00    +0.023 A 
ATOM      5  C   UNL     1       5.242  -3.029  -4.347  0.00  0.00    +0.024 A 
ATOM      6  C   UNL     1       4.495  -3.172  -5.510  0.00  0.00    +0.025 A 
ATOM      7  C   UNL     1       3.852  -2.069  -6.058  0.00  0.00    +0.024 A 
ATOM      8  C   UNL     1       3.951  -0.837  -5.442  0.00  0.00    +0.023 A 
BRANCH   6   9
ATOM      9  N   UNL     1       4.392  -4.420  -6.126  0.00  0.00    -0.358 N 
ATOM     10  H   UNL     1       4.843  -5.189  -5.743  0.00  0.00    +0.142 HD
ATOM     11  H   UNL     1       3.871  -4.519  -6.938  0.00  0.00    +0.142 HD
ENDBRANCH   6   9
ENDBRANCH   1   3
BRANCH   1  12
ATOM     12  C   UNL     1       4.271   0.470  -2.304  0.00  0.00    +0.140 C 
ATOM     13  C   UNL     1       4.384   1.838  -1.629  0.00  0.00    +0.036 C 
BRANCH  12  15
ATOM     14  N   UNL     1       2.125  -0.091  -1.209  0.00  0.00    -0.311 N 
ATOM     15  C   UNL     1       2.824   0.051  -2.353  0.00  0.00    +0.232 C 
ATOM     16  O   UNL     1       2.289  -0.157  -3.421  0.00  0.00    -0.274 OA
ATOM     17  H   UNL     1       2.553   0.075  -0.355  0.00  0.00    +0.149 HD
BRANCH  14  18
ATOM     18  C   UNL     1       0.718  -0.497  -1.257  0.00  0.00    +0.070 C 
ATOM     19  C   UNL     1       0.630  -2.023  -1.329  0.00  0.00    +0.028 C 
BRANCH  18  21
ATOM     20  C   UNL     1      -0.019   1.526   0.010  0.00  0.00    +0.005 C 
ATOM     21  C   UNL     1       0.002  -0.004   0.002  0.00  0.00    +0.018 C 
ENDBRANCH  18  21
ENDBRANCH  14  18
ENDBRANCH  12  15
ENDBRANCH   1  12
BRANCH   1  22
ATOM     22  C   UNL     1       6.214   0.960  -3.623  0.00  0.00    +0.082 C 
ATOM     23  C   UNL     1       6.733   1.168  -5.047  0.00  0.00    +0.022 C 
ENDBRANCH   1  22
TORSDOF 7
