REMARK  Name = ZINC64667261
REMARK  4 active torsions:
REMARK  status: ('A' for Active; 'I' for Inactive)
REMARK    1  A    between atoms: C_1  and  C_2
REMARK    2  A    between atoms: C_2  and  C_3
REMARK    3  A    between atoms: C_6  and  C_9
REMARK    4  A    between atoms: N_19  and  C_20
REMARK                            x       y       z     vdW  Elec       q    Type
REMARK                         _______ _______ _______ _____ _____    ______ ____
ROOT
ATOM      1  C   UNL     1      -5.419  -2.005   0.043  0.00  0.00    +0.063 C 
ATOM      2  C   UNL     1      -5.478  -3.348  -0.691  0.00  0.00    +0.109 C 
ATOM      3  C   UNL     1      -5.416  -3.163  -2.180  0.00  0.00    +0.219 C 
ATOM      4  O   UNL     1      -4.813  -3.977  -2.846  0.00  0.00    -0.275 OA
ATOM      5  N   UNL     1      -6.009  -2.122  -2.803  0.00  0.00    -0.270 N 
ATOM      6  C   UNL     1      -6.580  -1.124  -2.013  0.00  0.00    +0.132 A 
ATOM      7  C   UNL     1      -6.325  -1.033  -0.669  0.00  0.00    +0.020 A 
ATOM      8  C   UNL     1      -7.028   0.054  -0.171  0.00  0.00    +0.141 A 
ATOM      9  N   UNL     1      -7.687   0.607  -1.163  0.00  0.00    -0.173 NA
ATOM     10  N   UNL     1      -7.421  -0.121  -2.337  0.00  0.00    -0.218 N 
ATOM     11  H   UNL     1      -6.038  -2.070  -3.771  0.00  0.00    +0.156 HD
ENDROOT
BRANCH  10  12
ATOM     12  C   UNL     1      -7.936   0.148  -3.613  0.00  0.00    +0.068 A 
ATOM     13  C   UNL     1      -7.158  -0.083  -4.740  0.00  0.00    +0.030 A 
ATOM     14  C   UNL     1      -7.667   0.182  -5.996  0.00  0.00    +0.040 A 
ATOM     15  C   UNL     1      -8.953   0.679  -6.132  0.00  0.00    +0.124 A 
ATOM     16  C   UNL     1      -9.730   0.911  -5.009  0.00  0.00    +0.040 A 
ATOM     17  C   UNL     1      -9.226   0.641  -3.752  0.00  0.00    +0.030 A 
ATOM     18  F   UNL     1      -9.449   0.939  -7.361  0.00  0.00    -0.205 F 
ENDBRANCH  10  12
BRANCH   1  22
ATOM     19  C   UNL     1      -1.412  -0.526   0.013  0.00  0.00    -0.048 A 
ATOM     20  C   UNL     1      -2.051  -0.766   1.215  0.00  0.00    +0.004 A 
ATOM     21  C   UNL     1      -3.348  -1.244   1.225  0.00  0.00    +0.004 A 
ATOM     22  C   UNL     1      -4.006  -1.482   0.032  0.00  0.00    -0.039 A 
ATOM     23  C   UNL     1      -3.367  -1.241  -1.170  0.00  0.00    +0.004 A 
ATOM     24  C   UNL     1      -2.072  -0.758  -1.179  0.00  0.00    +0.004 A 
BRANCH  19  26
ATOM     25  C   UNL     1      -0.019   1.526   0.010  0.00  0.00    +0.009 C 
ATOM     26  C   UNL     1       0.002  -0.004   0.002  0.00  0.00    +0.032 C 
ENDBRANCH  19  26
ENDBRANCH   1  22
TORSDOF 3
