REMARK  Name = ZINC40320264
REMARK  13 active torsions:
REMARK  status: ('A' for Active; 'I' for Inactive)
REMARK    1  A    between atoms: C_1  and  C_2
REMARK    2  A    between atoms: C_2  and  O_3
REMARK    3  A    between atoms: O_3  and  C_4
REMARK    4  A    between atoms: C_6  and  C_36
REMARK    5  A    between atoms: C_9  and  O_10
REMARK    6  A    between atoms: O_10  and  C_11
REMARK    7  A    between atoms: C_11  and  C_12
REMARK    8  A    between atoms: C_12  and  C_14
REMARK    9  A    between atoms: C_12  and  O_35
REMARK   10  A    between atoms: C_14  and  N_15
REMARK   11  A    between atoms: N_15  and  C_16
REMARK   12  A    between atoms: N_15  and  C_27
REMARK   13  A    between atoms: C_16  and  C_17
REMARK                            x       y       z     vdW  Elec       q    Type
REMARK                         _______ _______ _______ _____ _____    ______ ____
ROOT
ATOM      1  N   UNL     1       4.428  -0.499   7.652  0.00  0.00    +0.387 N 
ATOM      2  H   UNL     1       5.058   0.244   7.390  0.00  0.00    -0.081 HD
ENDROOT
BRANCH   1   3
ATOM      3  C   UNL     1       3.294   0.062   8.399  0.00  0.00    -0.045 C 
ATOM      4  C   UNL     1       3.811   0.862   9.606  0.00  0.00    +0.009 C 
ATOM      5  C   UNL     1       2.641   1.181  10.567  0.00  0.00    +0.164 C 
ATOM      6  S   UNL     1       1.480  -0.214  10.269  0.00  0.00    -0.033 S 
ATOM      7  O   UNL     1       0.266   0.300   9.740  0.00  0.00    -0.174 OA
ATOM      8  O   UNL     1       1.445  -1.041  11.424  0.00  0.00    -0.174 OA
ATOM      9  C   UNL     1       2.394  -1.091   8.931  0.00  0.00    +0.151 C 
ENDBRANCH   1   3
BRANCH   1  10
ATOM     10  C   UNL     1       3.934  -1.172   6.444  0.00  0.00    -0.043 C 
BRANCH  10  11
ATOM     11  C   UNL     1       3.321  -0.137   5.498  0.00  0.00    +0.135 C 
BRANCH  11  12
ATOM     12  O   UNL     1       4.316   0.819   5.128  0.00  0.00    -0.390 OA
ATOM     13  H   UNL     1       5.080   0.437   4.676  0.00  0.00    +0.210 HD
ENDBRANCH  11  12
BRANCH  11  14
ATOM     14  C   UNL     1       2.798  -0.840   4.244  0.00  0.00    +0.258 C 
BRANCH  14  15
ATOM     15  O   UNL     1       2.122   0.107   3.414  0.00  0.00    -0.486 OA
BRANCH  15  21
ATOM     16  C   UNL     1       0.921   0.516   1.397  0.00  0.00    +0.163 A 
ATOM     17  C   UNL     1       0.388   0.048   0.213  0.00  0.00    +0.060 A 
ATOM     18  C   UNL     1       0.520  -1.305  -0.123  0.00  0.00    +0.018 A 
ATOM     19  C   UNL     1       1.192  -2.176   0.743  0.00  0.00    +0.015 A 
ATOM     20  C   UNL     1       1.720  -1.700   1.923  0.00  0.00    +0.050 A 
ATOM     21  C   UNL     1       1.594  -0.357   2.253  0.00  0.00    +0.162 A 
BRANCH  18  22
ATOM     22  C   UNL     1      -0.045  -1.810  -1.382  0.00  0.00    +0.258 C 
ATOM     23  O   UNL     1       0.070  -2.982  -1.671  0.00  0.00    -0.296 OA
ENDBRANCH  18  22
BRANCH  16  24
ATOM     24  O   UNL     1       0.795   1.829   1.727  0.00  0.00    -0.489 OA
BRANCH  24  26
ATOM     25  C   UNL     1       0.054   4.097   1.343  0.00  0.00    +0.048 C 
ATOM     26  C   UNL     1       0.094   2.665   0.805  0.00  0.00    +0.226 C 
ENDBRANCH  24  26
ENDBRANCH  16  24
ENDBRANCH  15  21
ENDBRANCH  14  15
ENDBRANCH  11  14
ENDBRANCH  10  11
ENDBRANCH   1  10
BRANCH   1  27
ATOM     27  C   UNL     1       5.139  -1.468   8.497  0.00  0.00    -0.042 C 
BRANCH  27  28
ATOM     28  C   UNL     1       6.385  -1.932   7.788  0.00  0.00    -0.056 A 
ATOM     29  C   UNL     1       6.431  -3.171   7.224  0.00  0.00    +0.002 A 
ATOM     30  C   UNL     1       7.574  -3.617   6.565  0.00  0.00    +0.001 A 
ATOM     31  C   UNL     1       8.679  -2.829   6.466  0.00  0.00    +0.008 A 
ATOM     32  C   UNL     1       8.670  -1.545   7.036  0.00  0.00    -0.018 A 
ATOM     33  C   UNL     1       7.505  -1.088   7.701  0.00  0.00    -0.017 A 
ATOM     34  C   UNL     1       7.494   0.199   8.266  0.00  0.00    +0.009 A 
ATOM     35  C   UNL     1       8.597   0.990   8.162  0.00  0.00    +0.001 A 
ATOM     36  C   UNL     1       9.740   0.543   7.502  0.00  0.00    +0.001 A 
ATOM     37  C   UNL     1       9.792  -0.702   6.955  0.00  0.00    +0.008 A 
ENDBRANCH  27  28
ENDBRANCH   1  27
TORSDOF 12
