REMARK  Name = ZINC63491762
REMARK  12 active torsions:
REMARK  status: ('A' for Active; 'I' for Inactive)
REMARK    1  A    between atoms: C_1  and  C_2
REMARK    2  A    between atoms: C_2  and  O_3
REMARK    3  A    between atoms: O_3  and  C_4
REMARK    4  A    between atoms: C_8  and  C_10
REMARK    5  A    between atoms: C_25  and  C_27
REMARK    6  A    between atoms: C_27  and  C_28
REMARK    7  A    between atoms: C_32  and  O_37
REMARK    8  A    between atoms: C_33  and  O_34
REMARK    9  A    between atoms: O_34  and  C_35
REMARK   10  A    between atoms: C_35  and  C_36
REMARK   11  A    between atoms: O_37  and  C_38
REMARK   12  A    between atoms: C_38  and  C_39
REMARK                            x       y       z     vdW  Elec       q    Type
REMARK                         _______ _______ _______ _____ _____    ______ ____
ROOT
ATOM      1  C   UNL     1       2.237  -4.269  -3.813  0.00  0.00    +0.133 C 
ATOM      2  C   UNL     1       3.696  -4.604  -3.485  0.00  0.00    +0.131 C 
ATOM      3  C   UNL     1       4.232  -5.411  -4.660  0.00  0.00    -0.035 C 
ATOM      4  C   UNL     1       5.308  -4.767  -5.098  0.00  0.00    -0.001 A 
ATOM      5  C   UNL     1       6.280  -5.090  -6.154  0.00  0.00    +0.010 A 
ATOM      6  C   UNL     1       7.275  -4.185  -6.349  0.00  0.00    +0.001 A 
ATOM      7  C   UNL     1       7.399  -3.006  -5.609  0.00  0.00    +0.002 A 
ATOM      8  C   UNL     1       6.553  -2.631  -4.616  0.00  0.00    +0.026 A 
ATOM      9  C   UNL     1       5.468  -3.504  -4.314  0.00  0.00    +0.043 A 
ATOM     10  N   UNL     1       4.524  -3.400  -3.395  0.00  0.00    -0.375 N 
ATOM     11  C   UNL     1       3.534  -6.643  -5.182  0.00  0.00    +0.052 C 
ATOM     12  C   UNL     1       2.060  -6.258  -5.403  0.00  0.00    +0.113 C 
ATOM     13  N   UNL     1       1.572  -5.511  -4.239  0.00  0.00    -0.292 N 
ATOM     14  C   UNL     1       0.506  -5.967  -3.552  0.00  0.00    +0.221 C 
ATOM     15  O   UNL     1       0.031  -5.300  -2.656  0.00  0.00    -0.275 OA
ATOM     16  H   UNL     1       4.392  -2.665  -2.776  0.00  0.00    +0.160 HD
ENDROOT
BRANCH   1  21
ATOM     17  C   UNL     1       1.258  -3.688  -0.209  0.00  0.00    +0.121 A 
ATOM     18  C   UNL     1       0.290  -2.703  -0.344  0.00  0.00    +0.045 A 
ATOM     19  C   UNL     1      -0.043  -2.229  -1.598  0.00  0.00    +0.004 A 
ATOM     20  C   UNL     1       0.588  -2.736  -2.719  0.00  0.00    +0.006 A 
ATOM     21  C   UNL     1       1.552  -3.718  -2.588  0.00  0.00    -0.021 A 
ATOM     22  C   UNL     1       1.893  -4.191  -1.336  0.00  0.00    +0.051 A 
BRANCH  17  23
ATOM     23  O   UNL     1       1.587  -4.155   1.023  0.00  0.00    -0.492 OA
BRANCH  23  25
ATOM     24  C   UNL     1       1.395  -4.237   3.431  0.00  0.00    +0.048 C 
ATOM     25  C   UNL     1       0.893  -3.591   2.138  0.00  0.00    +0.225 C 
ENDBRANCH  23  25
ENDBRANCH  17  23
ENDBRANCH   1  21
BRANCH  14  26
ATOM     26  C   UNL     1      -0.095  -7.305  -3.896  0.00  0.00    +0.135 C 
BRANCH  26  27
ATOM     27  C   UNL     1      -1.266  -7.578  -2.987  0.00  0.00    +0.007 A 
ATOM     28  C   UNL     1      -1.088  -8.319  -1.833  0.00  0.00    +0.008 A 
ATOM     29  C   UNL     1      -2.159  -8.571  -0.997  0.00  0.00    +0.004 A 
ATOM     30  C   UNL     1      -3.414  -8.084  -1.311  0.00  0.00    +0.049 A 
ATOM     31  C   UNL     1      -3.600  -7.341  -2.465  0.00  0.00    +0.162 A 
ATOM     32  C   UNL     1      -2.520  -7.081  -3.304  0.00  0.00    +0.165 A 
BRANCH  32  33
ATOM     33  O   UNL     1      -2.696  -6.348  -4.435  0.00  0.00    -0.488 OA
BRANCH  33  34
ATOM     34  C   UNL     1      -3.037  -7.062  -5.625  0.00  0.00    +0.226 C 
ATOM     35  C   UNL     1      -3.193  -6.076  -6.785  0.00  0.00    +0.048 C 
ENDBRANCH  33  34
ENDBRANCH  32  33
BRANCH  31  36
ATOM     36  O   UNL     1      -4.834  -6.861  -2.776  0.00  0.00    -0.489 OA
BRANCH  36  37
ATOM     37  C   UNL     1      -5.895  -7.161  -1.866  0.00  0.00    +0.226 C 
ATOM     38  C   UNL     1      -7.197  -6.542  -2.379  0.00  0.00    +0.048 C 
ENDBRANCH  36  37
ENDBRANCH  31  36
ENDBRANCH  26  27
ENDBRANCH  14  26
TORSDOF 9
