REMARK  Name = ZINC48520323
REMARK  5 active torsions:
REMARK  status: ('A' for Active; 'I' for Inactive)
REMARK    1  A    between atoms: C_3  and  C_11
REMARK    2  A    between atoms: C_5  and  N_7
REMARK    3  A    between atoms: C_11  and  N_12
REMARK    4  A    between atoms: N_12  and  C_13
REMARK    5  A    between atoms: C_13  and  C_14
REMARK                            x       y       z     vdW  Elec       q    Type
REMARK                         _______ _______ _______ _____ _____    ______ ____
ROOT
ATOM      1  C   UNL     1      -0.028   1.373  -0.012  0.00  0.00    +0.002 A 
ATOM      2  C   UNL     1       1.157   2.086  -0.017  0.00  0.00    +0.002 A 
ATOM      3  C   UNL     1       2.368   1.419  -0.023  0.00  0.00    -0.063 A 
ATOM      4  C   UNL     1       2.398   0.038  -0.025  0.00  0.00    +0.025 A 
ATOM      5  C   UNL     1       1.210  -0.681  -0.020  0.00  0.00    +0.035 A 
ATOM      6  C   UNL     1      -0.005  -0.008  -0.014  0.00  0.00    +0.023 A 
ENDROOT
BRANCH   5   7
ATOM      7  N   UNL     1       1.237  -2.080  -0.021  0.00  0.00    -0.270 N 
ATOM      8  C   UNL     1       0.299  -2.773   0.653  0.00  0.00    +0.301 C 
ATOM      9  O   UNL     1      -0.619  -2.186   1.193  0.00  0.00    -0.253 OA
ATOM     10  N   UNL     1       0.378  -4.116   0.730  0.00  0.00    -0.313 N 
ATOM     11  H   UNL     1       1.932  -2.551  -0.508  0.00  0.00    +0.156 HD
ATOM     12  H   UNL     1       1.110  -4.584   0.299  0.00  0.00    +0.146 HD
ATOM     13  H   UNL     1      -0.298  -4.615   1.215  0.00  0.00    +0.146 HD
ENDBRANCH   5   7
BRANCH   3  14
ATOM     14  C   UNL     1       3.657   2.200  -0.029  0.00  0.00    -0.046 C 
BRANCH  14  15
ATOM     15  N   UNL     1       4.082   2.453   1.354  0.00  0.00    +0.384 N 
ATOM     16  H   UNL     1       3.370   2.983   1.833  0.00  0.00    -0.085 HD
ATOM     17  H   UNL     1       4.224   1.574   1.828  0.00  0.00    -0.085 HD
BRANCH  15  18
ATOM     18  C   UNL     1       5.339   3.215   1.348  0.00  0.00    -0.046 C 
BRANCH  18  19
ATOM     19  C   UNL     1       5.775   3.474   2.767  0.00  0.00    -0.056 A 
ATOM     20  C   UNL     1       5.357   4.612   3.433  0.00  0.00    +0.024 A 
ATOM     21  C   UNL     1       5.768   4.815   4.709  0.00  0.00    +0.055 A 
ATOM     22  S   UNL     1       6.778   3.373   5.005  0.00  0.00    -0.090 S 
ATOM     23  C   UNL     1       6.579   2.594   3.411  0.00  0.00    +0.048 A 
ATOM     24 BR   UNL     1       5.375   6.253   5.872  0.00  0.00    -0.043 Br
ENDBRANCH  18  19
ENDBRANCH  15  18
ENDBRANCH  14  15
ENDBRANCH   3  14
TORSDOF 5
