REMARK  Name = ZINC11590150
REMARK  13 active torsions:
REMARK  status: ('A' for Active; 'I' for Inactive)
REMARK    1  A    between atoms: C_1  and  C_2
REMARK    2  A    between atoms: C_2  and  C_3
REMARK    3  A    between atoms: C_3  and  C_4
REMARK    4  A    between atoms: C_4  and  N_5
REMARK    5  A    between atoms: C_13  and  C_16
REMARK    6  A    between atoms: C_16  and  C_17
REMARK    7  A    between atoms: C_17  and  C_18
REMARK    8  A    between atoms: C_18  and  O_20
REMARK    9  A    between atoms: O_20  and  C_21
REMARK   10  A    between atoms: C_21  and  C_23
REMARK   11  A    between atoms: C_21  and  C_24
REMARK   12  A    between atoms: C_30  and  C_36
REMARK   13  A    between atoms: C_31  and  C_35
REMARK                            x       y       z     vdW  Elec       q    Type
REMARK                         _______ _______ _______ _____ _____    ______ ____
ROOT
ATOM      1  C   UNL     1      -5.019   3.750   0.072  0.00  0.00    +0.308 C 
ATOM      2  O   UNL     1      -5.058   4.957   0.079  0.00  0.00    -0.251 OA
ENDROOT
BRANCH   1   3
ATOM      3  C   UNL     1      -3.690   3.039   0.055  0.00  0.00    +0.127 C 
BRANCH   3   4
ATOM      4  C   UNL     1      -2.560   4.071   0.050  0.00  0.00    +0.072 C 
BRANCH   4  13
ATOM      5  N   UNL     1       1.197   3.486   0.010  0.00  0.00    -0.305 N 
ATOM      6  C   UNL     1       1.200   2.106   0.002  0.00  0.00    +0.070 A 
ATOM      7  C   UNL     1       2.403   1.405  -0.013  0.00  0.00    +0.028 A 
ATOM      8  C   UNL     1       2.394   0.028  -0.020  0.00  0.00    +0.002 A 
ATOM      9  C   UNL     1       1.193  -0.669  -0.013  0.00  0.00    +0.002 A 
ATOM     10  C   UNL     1       0.002  -0.004   0.002  0.00  0.00    +0.030 A 
ATOM     11  C   UNL     1      -0.017   1.399   0.010  0.00  0.00    +0.088 A 
ATOM     12  N   UNL     1      -1.191   2.059   0.030  0.00  0.00    -0.245 NA
ATOM     13  C   UNL     1      -1.231   3.360   0.033  0.00  0.00    +0.107 A 
ATOM     14  C   UNL     1       0.013   4.137   0.025  0.00  0.00    +0.273 A 
ATOM     15  O   UNL     1      -0.020   5.355   0.033  0.00  0.00    -0.266 OA
BRANCH   5  16
ATOM     16  C   UNL     1       2.457   4.233   0.001  0.00  0.00    +0.125 C 
BRANCH  16  17
ATOM     17  C   UNL     1       2.881   4.502  -1.444  0.00  0.00    +0.021 C 
BRANCH  17  19
ATOM     18  C   UNL     1       4.622   5.550  -2.898  0.00  0.00    +0.004 C 
ATOM     19  C   UNL     1       4.197   5.282  -1.453  0.00  0.00    -0.002 C 
ENDBRANCH  17  19
ENDBRANCH  16  17
ENDBRANCH   5  16
ENDBRANCH   4  13
ENDBRANCH   3   4
ENDBRANCH   1   3
BRANCH   1  20
ATOM     20  O   UNL     1      -6.159   3.041   0.079  0.00  0.00    -0.454 OA
BRANCH  20  21
ATOM     21  C   UNL     1      -7.401   3.792   0.095  0.00  0.00    +0.239 C 
ATOM     22  C   UNL     1      -7.852   4.064  -1.341  0.00  0.00    +0.060 C 
BRANCH  21  23
ATOM     23  C   UNL     1      -8.460   2.994   0.812  0.00  0.00    +0.152 A 
ATOM     24  N   UNL     1      -8.419   2.895   2.165  0.00  0.00    -0.307 N 
ATOM     25  H   UNL     1      -7.708   3.339   2.653  0.00  0.00    +0.170 HD
ATOM     26  C   UNL     1      -9.349   2.198   2.845  0.00  0.00    +0.260 A 
ATOM     27  O   UNL     1      -9.300   2.123   4.060  0.00  0.00    -0.267 OA
ATOM     28  C   UNL     1     -10.393   1.540   2.116  0.00  0.00    +0.075 A 
ATOM     29  C   UNL     1     -11.493   0.734   2.610  0.00  0.00    -0.026 A 
ATOM     30  C   UNL     1     -12.365   0.208   1.734  0.00  0.00    -0.008 A 
ATOM     31  S   UNL     1     -11.756   0.771   0.156  0.00  0.00    -0.073 S 
ATOM     32  C   UNL     1     -10.349   1.695   0.718  0.00  0.00    +0.116 A 
ATOM     33  N   UNL     1      -9.399   2.406   0.119  0.00  0.00    -0.223 NA
ATOM     34  C   UNL     1     -13.570  -0.652   2.018  0.00  0.00    +0.052 C 
ATOM     35  C   UNL     1     -11.656   0.489   4.088  0.00  0.00    +0.045 C 
ENDBRANCH  21  23
ENDBRANCH  20  21
ENDBRANCH   1  20
TORSDOF 9
