REMARK  Name = ZINC09386835
REMARK  13 active torsions:
REMARK  status: ('A' for Active; 'I' for Inactive)
REMARK    1  A    between atoms: C_1  and  C_2
REMARK    2  A    between atoms: C_2  and  N_63
REMARK    3  A    between atoms: C_3  and  C_4
REMARK    4  A    between atoms: C_3  and  N_63
REMARK    5  A    between atoms: C_5  and  C_6
REMARK    6  A    between atoms: C_5  and  N_63
REMARK    7  A    between atoms: C_6  and  N_7
REMARK    8  A    between atoms: C_11  and  C_18
REMARK    9  A    between atoms: C_13  and  C_17
REMARK   10  A    between atoms: C_19  and  C_21
REMARK   11  A    between atoms: C_21  and  C_22
REMARK   12  A    between atoms: C_22  and  S_23
REMARK   13  A    between atoms: S_23  and  C_26
REMARK                            x       y       z     vdW  Elec       q    Type
REMARK                         _______ _______ _______ _____ _____    ______ ____
ROOT
ATOM      1  N   UNL     1       5.669   4.043   0.125  0.00  0.00    -0.252 N 
ATOM      2  C   UNL     1       4.294   3.937   0.259  0.00  0.00    +0.168 A 
ATOM      3  N   UNL     1       3.400   4.894   0.350  0.00  0.00    -0.224 NA
ATOM      4  C   UNL     1       2.079   4.644   0.478  0.00  0.00    +0.083 A 
ATOM      5  C   UNL     1       1.020   5.575   0.585  0.00  0.00    -0.024 A 
ATOM      6  C   UNL     1      -0.276   5.149   0.711  0.00  0.00    +0.009 A 
ATOM      7  C   UNL     1      -0.597   3.800   0.732  0.00  0.00    -0.049 A 
ATOM      8  C   UNL     1       0.413   2.861   0.634  0.00  0.00    +0.020 A 
ATOM      9  C   UNL     1       1.715   3.278   0.508  0.00  0.00    +0.041 A 
ATOM     10  S   UNL     1       3.287   2.464   0.352  0.00  0.00    -0.052 S 
ATOM     11  C   UNL     1      -2.033   3.361   0.865  0.00  0.00    +0.044 C 
ATOM     12  C   UNL     1       1.321   7.051   0.562  0.00  0.00    +0.046 C 
ATOM     13  C   UNL     1       6.250   5.258   0.072  0.00  0.00    +0.223 C 
ATOM     14  O   UNL     1       5.569   6.259   0.143  0.00  0.00    -0.275 OA
ENDROOT
BRANCH   1  15
ATOM     15  C   UNL     1       6.492   2.833   0.041  0.00  0.00    +0.097 C 
BRANCH  15  16
ATOM     16  C   UNL     1       6.638   2.417  -1.425  0.00  0.00    -0.059 C 
BRANCH  16  17
ATOM     17  N   UNL     1       7.486   1.209  -1.495  0.00  0.00    +0.380 N 
ATOM     18  H   UNL     1       8.355   1.381  -0.975  0.00  0.00    -0.082 HD
BRANCH  17  20
ATOM     19  C   UNL     1       5.479  -0.227  -1.636  0.00  0.00    -0.017 C 
ATOM     20  C   UNL     1       6.782   0.060  -0.887  0.00  0.00    -0.082 C 
ENDBRANCH  17  20
BRANCH  17  21
ATOM     21  C   UNL     1       7.822   0.909  -2.903  0.00  0.00    -0.082 C 
ATOM     22  C   UNL     1       8.965  -0.108  -2.930  0.00  0.00    -0.017 C 
ENDBRANCH  17  21
ENDBRANCH  16  17
ENDBRANCH  15  16
ENDBRANCH   1  15
BRANCH  13  23
ATOM     23  C   UNL     1       7.746   5.372  -0.073  0.00  0.00    +0.119 C 
BRANCH  23  24
ATOM     24  C   UNL     1       8.143   6.849  -0.107  0.00  0.00    +0.181 C 
BRANCH  24  25
ATOM     25  S   UNL     1       9.944   6.987  -0.283  0.00  0.00    -0.003 S 
ATOM     26  O   UNL     1      10.587   6.516   0.893  0.00  0.00    -0.169 OA
ATOM     27  O   UNL     1      10.347   6.524  -1.564  0.00  0.00    -0.169 OA
BRANCH  25  28
ATOM     28  C   UNL     1      10.265   8.719  -0.308  0.00  0.00    +0.088 A 
ATOM     29  C   UNL     1      10.280   9.401  -1.510  0.00  0.00    +0.028 A 
ATOM     30  C   UNL     1      10.526  10.761  -1.530  0.00  0.00    +0.022 A 
ATOM     31  C   UNL     1      10.769  11.438  -0.348  0.00  0.00    +0.041 A 
ATOM     32  C   UNL     1      10.759  10.753   0.854  0.00  0.00    +0.022 A 
ATOM     33  C   UNL     1      10.507   9.394   0.874  0.00  0.00    +0.028 A 
ATOM     34 CL   UNL     1      11.085  13.144  -0.373  0.00  0.00    -0.084 Cl
ENDBRANCH  25  28
ENDBRANCH  24  25
ENDBRANCH  23  24
ENDBRANCH  13  23
TORSDOF 9
