REMARK  Name = ZINC08881015
REMARK  6 active torsions:
REMARK  status: ('A' for Active; 'I' for Inactive)
REMARK    1  A    between atoms: C_4  and  C_7
REMARK    2  A    between atoms: C_7  and  C_9
REMARK    3  A    between atoms: C_7  and  N_63
REMARK    4  A    between atoms: C_9  and  C_11
REMARK    5  A    between atoms: C_23  and  C_26
REMARK    6  A    between atoms: N_28  and  C_29
REMARK                            x       y       z     vdW  Elec       q    Type
REMARK                         _______ _______ _______ _____ _____    ______ ____
ROOT
ATOM      1  C   UNL     1       8.830   2.215   0.715  0.00  0.00    -0.077 C 
ATOM      2  C   UNL     1       7.475   1.628   1.115  0.00  0.00    -0.006 C 
ATOM      3  C   UNL     1       6.503   2.769   1.431  0.00  0.00    +0.072 C 
ATOM      4  C   UNL     1       6.385   3.681   0.207  0.00  0.00    -0.006 C 
ATOM      5  C   UNL     1       7.772   4.208  -0.167  0.00  0.00    -0.077 C 
ATOM      6  N   UNL     1       8.652   3.063  -0.482  0.00  0.00    +0.389 N 
ATOM      7  H   UNL     1       8.216   2.503  -1.225  0.00  0.00    -0.080 HD
ENDROOT
BRANCH   3   8
ATOM      8  C   UNL     1       5.149   2.199   1.767  0.00  0.00    +0.220 C 
ATOM      9  O   UNL     1       4.977   0.999   1.756  0.00  0.00    -0.275 OA
ATOM     10  N   UNL     1       4.130   3.024   2.081  0.00  0.00    -0.285 N 
ATOM     11  H   UNL     1       4.247   3.985   2.017  0.00  0.00    +0.155 HD
BRANCH  10  12
ATOM     12  C   UNL     1       2.903   2.493   2.498  0.00  0.00    +0.037 A 
ATOM     13  C   UNL     1       2.870   1.317   3.235  0.00  0.00    +0.027 A 
ATOM     14  C   UNL     1       1.660   0.792   3.648  0.00  0.00    +0.051 A 
ATOM     15  C   UNL     1       0.477   1.439   3.329  0.00  0.00    +0.166 A 
ATOM     16  C   UNL     1       0.507   2.619   2.591  0.00  0.00    +0.168 A 
ATOM     17  C   UNL     1       1.720   3.144   2.177  0.00  0.00    +0.072 A 
ATOM     18  O   UNL     1      -0.775   3.051   2.406  0.00  0.00    -0.453 OA
ATOM     19  C   UNL     1      -1.610   1.915   2.692  0.00  0.00    +0.466 C 
ATOM     20  O   UNL     1      -0.824   1.134   3.612  0.00  0.00    -0.453 OA
ENDBRANCH  10  12
ENDBRANCH   3   8
BRANCH   6  21
ATOM     21  C   UNL     1       9.964   3.550  -0.956  0.00  0.00    +0.035 C 
BRANCH  21  25
ATOM     22  C   UNL     1      12.464   0.192  -1.804  0.00  0.00    +0.000 A 
ATOM     23  C   UNL     1      12.967   1.266  -1.093  0.00  0.00    +0.000 A 
ATOM     24  C   UNL     1      12.157   2.352  -0.819  0.00  0.00    +0.002 A 
ATOM     25  C   UNL     1      10.846   2.365  -1.256  0.00  0.00    -0.054 A 
ATOM     26  C   UNL     1      10.342   1.289  -1.962  0.00  0.00    +0.002 A 
ATOM     27  C   UNL     1      11.152   0.204  -2.240  0.00  0.00    +0.000 A 
ENDBRANCH  21  25
BRANCH  21  28
ATOM     28  C   UNL     1       9.760   4.355  -2.214  0.00  0.00    +0.156 C 
ATOM     29  O   UNL     1       8.752   4.206  -2.873  0.00  0.00    -0.293 OA
BRANCH  28  30
ATOM     30  C   UNL     1      10.746   5.285  -2.627  0.00  0.00    +0.041 A 
ATOM     31  C   UNL     1      11.934   5.572  -1.988  0.00  0.00    +0.095 A 
ATOM     32  N   UNL     1      12.607   6.507  -2.684  0.00  0.00    -0.360 N 
ATOM     33  H   UNL     1      13.472   6.867  -2.430  0.00  0.00    +0.165 HD
ATOM     34  C   UNL     1      11.897   6.889  -3.804  0.00  0.00    +0.047 A 
ATOM     35  C   UNL     1      10.704   6.148  -3.824  0.00  0.00    +0.010 A 
ATOM     36  C   UNL     1       9.786   6.330  -4.853  0.00  0.00    +0.011 A 
ATOM     37  C   UNL     1      10.052   7.241  -5.853  0.00  0.00    +0.001 A 
ATOM     38  C   UNL     1      11.229   7.974  -5.835  0.00  0.00    +0.002 A 
ATOM     39  C   UNL     1      12.148   7.803  -4.822  0.00  0.00    +0.026 A 
ENDBRANCH  28  30
ENDBRANCH  21  28
ENDBRANCH   6  21
TORSDOF 6
