REMARK  Name = ZINC29467939
REMARK  11 active torsions:
REMARK  status: ('A' for Active; 'I' for Inactive)
REMARK    1  A    between atoms: C_1  and  C_2
REMARK    2  A    between atoms: C_2  and  C_3
REMARK    3  A    between atoms: C_2  and  C_4
REMARK    4  A    between atoms: C_2  and  N_35
REMARK    5  A    between atoms: C_4  and  C_5
REMARK    6  A    between atoms: N_7  and  C_8
REMARK    7  A    between atoms: C_8  and  C_10
REMARK    8  A    between atoms: C_8  and  C_19
REMARK    9  A    between atoms: C_10  and  O_11
REMARK   10  A    between atoms: O_11  and  C_12
REMARK   11  A    between atoms: C_12  and  C_13
REMARK                            x       y       z     vdW  Elec       q    Type
REMARK                         _______ _______ _______ _____ _____    ______ ____
ROOT
ATOM      1  C   UNL     1       6.733   5.136  -2.088  0.00  0.00    +0.185 C 
ENDROOT
BRANCH   1   2
ATOM      2  C   UNL     1       6.268   4.902  -0.673  0.00  0.00    +0.238 C 
ATOM      3  O   UNL     1       7.071   4.614   0.189  0.00  0.00    -0.273 OA
ATOM      4  N   UNL     1       4.961   5.014  -0.366  0.00  0.00    -0.300 N 
ATOM      5  C   UNL     1       4.494   4.789   1.009  0.00  0.00    +0.108 C 
ATOM      6  C   UNL     1       3.383   3.733   0.985  0.00  0.00    +0.030 C 
ATOM      7  C   UNL     1       2.297   4.162   0.003  0.00  0.00    -0.001 C 
ATOM      8  C   UNL     1       1.679   5.499   0.453  0.00  0.00    +0.016 C 
ATOM      9  C   UNL     1       0.203   5.337   0.031  0.00  0.00    +0.036 C 
ATOM     10  C   UNL     1      -0.047   3.844   0.025  0.00  0.00    -0.044 A 
ATOM     11  C   UNL     1       1.161   3.168   0.008  0.00  0.00    -0.038 A 
ATOM     12  C   UNL     1       1.174   1.783   0.000  0.00  0.00    +0.004 A 
ATOM     13  C   UNL     1      -0.013   1.076   0.008  0.00  0.00    +0.000 A 
ATOM     14  C   UNL     1      -1.218   1.751   0.017  0.00  0.00    +0.000 A 
ATOM     15  C   UNL     1      -1.234   3.132   0.032  0.00  0.00    +0.004 A 
ATOM     16  C   UNL     1       2.871   4.302  -1.405  0.00  0.00    +0.030 C 
ATOM     17  C   UNL     1       3.977   5.363  -1.400  0.00  0.00    +0.108 C 
ENDBRANCH   1   2
BRANCH   1  20
ATOM     18  C   UNL     1       9.092   4.900  -1.526  0.00  0.00    +0.212 C 
ATOM     19  O   UNL     1       8.948   5.765  -0.687  0.00  0.00    -0.276 OA
ATOM     20  N   UNL     1       8.044   4.513  -2.280  0.00  0.00    -0.302 N 
ATOM     21  H   UNL     1       8.175   3.728  -3.041  0.00  0.00    +0.150 HD
BRANCH  18  22
ATOM     22  C   UNL     1      10.441   4.259  -1.724  0.00  0.00    +0.082 C 
BRANCH  22  24
ATOM     23  C   UNL     1      12.817   4.225  -0.950  0.00  0.00    -0.010 C 
ATOM     24  C   UNL     1      11.447   4.875  -0.749  0.00  0.00    -0.069 C 
ATOM     25  C   UNL     1      11.553   6.380  -1.009  0.00  0.00    -0.010 C 
BRANCH  24  26
ATOM     26  N   UNL     1      10.994   4.648   0.630  0.00  0.00    +0.382 N 
ATOM     27  H   UNL     1      10.009   5.116   0.775  0.00  0.00    -0.089 HD
ATOM     28  H   UNL     1      11.717   5.091   1.331  0.00  0.00    -0.089 HD
ATOM     29  H   UNL     1      10.918   3.567   0.817  0.00  0.00    -0.089 HD
ENDBRANCH  24  26
ENDBRANCH  22  24
ENDBRANCH  18  22
ENDBRANCH   1  20
BRANCH   1  30
ATOM     30  C   UNL     1       6.839   6.639  -2.348  0.00  0.00    +0.192 C 
BRANCH  30  31
ATOM     31  O   UNL     1       7.166   6.863  -3.721  0.00  0.00    -0.373 OA
BRANCH  31  32
ATOM     32  C   UNL     1       7.290   8.243  -4.071  0.00  0.00    +0.195 C 
BRANCH  32  33
ATOM     33  C   UNL     1       7.635   8.361  -5.533  0.00  0.00    -0.022 A 
ATOM     34  C   UNL     1       8.958   8.385  -5.932  0.00  0.00    +0.006 A 
ATOM     35  C   UNL     1       9.274   8.488  -7.274  0.00  0.00    +0.000 A 
ATOM     36  C   UNL     1       8.267   8.578  -8.216  0.00  0.00    +0.000 A 
ATOM     37  C   UNL     1       6.944   8.559  -7.817  0.00  0.00    +0.000 A 
ATOM     38  C   UNL     1       6.627   8.451  -6.476  0.00  0.00    +0.006 A 
ENDBRANCH  32  33
ENDBRANCH  31  32
ENDBRANCH  30  31
ENDBRANCH   1  30
TORSDOF 9
