REMARK  Name = ZINC20611254
REMARK  10 active torsions:
REMARK  status: ('A' for Active; 'I' for Inactive)
REMARK    1  A    between atoms: C_1  and  C_2
REMARK    2  A    between atoms: C_2  and  C_3
REMARK    3  A    between atoms: C_6  and  N_9
REMARK    4  A    between atoms: C_13  and  C_32
REMARK    5  A    between atoms: C_14  and  N_18
REMARK    6  A    between atoms: C_19  and  C_21
REMARK    7  A    between atoms: C_21  and  O_22
REMARK    8  A    between atoms: O_22  and  C_23
REMARK    9  A    between atoms: C_24  and  C_31
REMARK   10  A    between atoms: C_26  and  C_30
REMARK                            x       y       z     vdW  Elec       q    Type
REMARK                         _______ _______ _______ _____ _____    ______ ____
ROOT
ATOM      1  N   UNL     1       1.179   1.761   0.052  0.00  0.00    -0.149 N 
ATOM      2  N   UNL     1       2.051   0.814   0.030  0.00  0.00    -0.147 NA
ATOM      3  C   UNL     1       1.419  -0.349   0.018  0.00  0.00    +0.114 A 
ATOM      4  C   UNL     1       1.786  -1.706  -0.005  0.00  0.00    +0.037 A 
ATOM      5  C   UNL     1       0.821  -2.661  -0.011  0.00  0.00    -0.027 A 
ATOM      6  C   UNL     1      -0.540  -2.331   0.006  0.00  0.00    +0.039 A 
ATOM      7  C   UNL     1      -0.961  -1.033   0.029  0.00  0.00    +0.055 A 
ATOM      8  C   UNL     1      -0.009   0.001   0.036  0.00  0.00    +0.115 A 
ATOM      9  N   UNL     1      -0.032   1.325   0.056  0.00  0.00    -0.147 NA
ATOM     10  C   UNL     1       1.225  -4.113  -0.035  0.00  0.00    +0.046 C 
ENDROOT
BRANCH   1  14
ATOM     11  C   UNL     1       2.171   5.809   0.106  0.00  0.00    -0.047 A 
ATOM     12  C   UNL     1       0.843   5.424   0.111  0.00  0.00    +0.006 A 
ATOM     13  C   UNL     1       0.511   4.083   0.093  0.00  0.00    +0.030 A 
ATOM     14  C   UNL     1       1.512   3.122   0.070  0.00  0.00    +0.086 A 
ATOM     15  C   UNL     1       2.845   3.511   0.069  0.00  0.00    +0.030 A 
ATOM     16  C   UNL     1       3.171   4.854   0.082  0.00  0.00    +0.006 A 
BRANCH  11  18
ATOM     17  C   UNL     1       2.664   7.745   1.574  0.00  0.00    +0.009 C 
ATOM     18  C   UNL     1       2.530   7.272   0.125  0.00  0.00    +0.032 C 
ENDBRANCH  11  18
ENDBRANCH   1  14
BRANCH   6  19
ATOM     19  N   UNL     1      -1.492  -3.357  -0.001  0.00  0.00    -0.282 N 
ATOM     20  C   UNL     1      -2.730  -3.125  -0.481  0.00  0.00    +0.255 C 
ATOM     21  O   UNL     1      -2.989  -2.060  -0.999  0.00  0.00    -0.272 OA
ATOM     22  H   UNL     1      -1.230  -4.353   0.386  0.00  0.00    +0.155 HD
BRANCH  20  23
ATOM     23  C   UNL     1      -3.791  -4.189  -0.374  0.00  0.00    +0.325 C 
BRANCH  23  24
ATOM     24  O   UNL     1      -5.008  -3.709  -0.950  0.00  0.00    -0.481 OA
BRANCH  24  25
ATOM     25  C   UNL     1      -6.073  -4.552  -0.935  0.00  0.00    +0.142 A 
ATOM     26  C   UNL     1      -6.950  -4.545   0.140  0.00  0.00    -0.007 A 
ATOM     27  C   UNL     1      -8.032  -5.404   0.153  0.00  0.00    +0.010 A 
ATOM     28  C   UNL     1      -8.243  -6.270  -0.904  0.00  0.00    -0.049 A 
ATOM     29  C   UNL     1      -7.371  -6.280  -1.977  0.00  0.00    +0.027 A 
ATOM     30  C   UNL     1      -6.290  -5.418  -1.998  0.00  0.00    +0.083 A 
ATOM     31 CL   UNL     1      -5.199  -5.425  -3.349  0.00  0.00    -0.080 Cl
ATOM     32  C   UNL     1      -9.424  -7.205  -0.886  0.00  0.00    +0.044 C 
ATOM     33  C   UNL     1      -6.721  -3.602   1.293  0.00  0.00    +0.047 C 
ENDBRANCH  24  25
ENDBRANCH  23  24
ENDBRANCH  20  23
ENDBRANCH   6  19
TORSDOF 6
