REMARK  Name = ZINC09250608
REMARK  12 active torsions:
REMARK  status: ('A' for Active; 'I' for Inactive)
REMARK    1  A    between atoms: C_1  and  C_2
REMARK    2  A    between atoms: C_2  and  C_3
REMARK    3  A    between atoms: C_6  and  C_9
REMARK    4  A    between atoms: C_9  and  N_10
REMARK    5  A    between atoms: N_10  and  C_11
REMARK    6  A    between atoms: N_10  and  C_17
REMARK    7  A    between atoms: C_11  and  C_12
REMARK    8  A    between atoms: C_20  and  S_33
REMARK    9  A    between atoms: C_22  and  C_23
REMARK   10  A    between atoms: N_25  and  C_26
REMARK   11  A    between atoms: C_29  and  C_32
REMARK   12  A    between atoms: S_33  and  C_36
REMARK                            x       y       z     vdW  Elec       q    Type
REMARK                         _______ _______ _______ _____ _____    ______ ____
ROOT
ATOM      1  C   UNL     1       1.468  -4.035  -1.456  0.00  0.00    +0.080 A 
ATOM      2  C   UNL     1       0.623  -4.942  -0.810  0.00  0.00    +0.140 A 
ATOM      3  N   UNL     1       0.895  -6.231  -0.877  0.00  0.00    -0.218 NA
ATOM      4  C   UNL     1       1.946  -6.673  -1.542  0.00  0.00    +0.271 A 
ATOM      5  N   UNL     1       2.771  -5.863  -2.166  0.00  0.00    -0.205 NA
ATOM      6  C   UNL     1       2.571  -4.546  -2.156  0.00  0.00    +0.152 A 
ENDROOT
BRANCH   6   7
ATOM      7  C   UNL     1       3.499  -3.638  -2.866  0.00  0.00    +0.269 C 
ATOM      8  O   UNL     1       3.309  -2.437  -2.846  0.00  0.00    -0.268 OA
ATOM      9  N   UNL     1       4.555  -4.141  -3.535  0.00  0.00    -0.280 N 
ATOM     10  H   UNL     1       4.746  -5.092  -3.495  0.00  0.00    +0.155 HD
BRANCH   9  11
ATOM     11  C   UNL     1       5.377  -3.294  -4.285  0.00  0.00    +0.034 A 
ATOM     12  C   UNL     1       5.947  -3.746  -5.468  0.00  0.00    +0.023 A 
ATOM     13  C   UNL     1       6.753  -2.905  -6.210  0.00  0.00    +0.005 A 
ATOM     14  C   UNL     1       7.003  -1.618  -5.769  0.00  0.00    -0.050 A 
ATOM     15  C   UNL     1       6.441  -1.167  -4.589  0.00  0.00    +0.005 A 
ATOM     16  C   UNL     1       5.629  -2.001  -3.846  0.00  0.00    +0.023 A 
ATOM     17  C   UNL     1       7.888  -0.705  -6.578  0.00  0.00    +0.044 C 
ENDBRANCH   9  11
ENDBRANCH   6   7
BRANCH   4  18
ATOM     18  S   UNL     1       2.254  -8.408  -1.594  0.00  0.00    +0.029 S 
ATOM     19  O   UNL     1       3.656  -8.521  -1.795  0.00  0.00    -0.167 OA
ATOM     20  O   UNL     1       1.647  -8.919  -0.415  0.00  0.00    -0.167 OA
ATOM     21  C   UNL     1       1.363  -8.995  -3.060  0.00  0.00    +0.204 C 
ENDBRANCH   4  18
BRANCH   1  22
ATOM     22  N   UNL     1       1.219  -2.670  -1.412  0.00  0.00    -0.315 N 
BRANCH  22  23
ATOM     23  C   UNL     1       1.226  -2.178  -0.028  0.00  0.00    +0.140 C 
BRANCH  23  27
ATOM     24  C   UNL     1       1.150   2.093  -0.032  0.00  0.00    -0.048 A 
ATOM     25  C   UNL     1      -0.035   1.381  -0.018  0.00  0.00    +0.004 A 
ATOM     26  C   UNL     1      -0.010  -0.001  -0.017  0.00  0.00    +0.005 A 
ATOM     27  C   UNL     1       1.199  -0.671  -0.030  0.00  0.00    -0.030 A 
ATOM     28  C   UNL     1       2.384   0.041  -0.044  0.00  0.00    +0.005 A 
ATOM     29  C   UNL     1       2.359   1.423  -0.046  0.00  0.00    +0.004 A 
BRANCH  24  31
ATOM     30  C   UNL     1       1.130   4.111   1.409  0.00  0.00    +0.009 C 
ATOM     31  C   UNL     1       1.123   3.600  -0.033  0.00  0.00    +0.032 C 
ENDBRANCH  24  31
ENDBRANCH  23  27
ENDBRANCH  22  23
BRANCH  22  32
ATOM     32  C   UNL     1      -0.048  -2.344  -2.080  0.00  0.00    +0.179 C 
BRANCH  32  33
ATOM     33  C   UNL     1       0.070  -2.639  -3.553  0.00  0.00    +0.122 A 
ATOM     34  C   UNL     1      -0.223  -3.810  -4.147  0.00  0.00    +0.046 A 
ATOM     35  C   UNL     1       0.031  -3.644  -5.527  0.00  0.00    +0.041 A 
ATOM     36  C   UNL     1       0.464  -2.381  -5.695  0.00  0.00    +0.195 A 
ATOM     37  O   UNL     1       0.480  -1.775  -4.497  0.00  0.00    -0.466 OA
ENDBRANCH  32  33
ENDBRANCH  22  32
ENDBRANCH   1  22
TORSDOF 9
