REMARK  Name = ZINC20582594
REMARK  7 active torsions:
REMARK  status: ('A' for Active; 'I' for Inactive)
REMARK    1  A    between atoms: C_1  and  C_2
REMARK    2  A    between atoms: C_6  and  N_8
REMARK    3  A    between atoms: C_9  and  C_11
REMARK    4  A    between atoms: C_11  and  S_12
REMARK    5  A    between atoms: S_12  and  C_13
REMARK    6  A    between atoms: N_25  and  C_29
REMARK    7  A    between atoms: C_29  and  C_30
REMARK                            x       y       z     vdW  Elec       q    Type
REMARK                         _______ _______ _______ _____ _____    ______ ____
ROOT
ATOM      1  C   UNL     1      -0.036   1.355  -0.347  0.00  0.00    +0.189 A 
ATOM      2  N   UNL     1       0.001   0.042  -0.172  0.00  0.00    -0.228 NA
ATOM      3  C   UNL     1       1.158  -0.608  -0.146  0.00  0.00    +0.144 A 
ATOM      4  C   UNL     1       2.320   0.112  -0.302  0.00  0.00    +0.153 A 
ATOM      5  C   UNL     1       2.260   1.495  -0.483  0.00  0.00    +0.104 A 
ATOM      6  N   UNL     1       1.062   2.079  -0.500  0.00  0.00    -0.220 NA
ATOM      7  C   UNL     1       3.491   2.299  -0.649  0.00  0.00    +0.025 A 
ATOM      8  C   UNL     1       3.402   3.685  -0.476  0.00  0.00    +0.012 A 
ATOM      9  C   UNL     1       4.519   4.477  -0.620  0.00  0.00    +0.001 A 
ATOM     10  C   UNL     1       5.742   3.909  -0.939  0.00  0.00    +0.002 A 
ATOM     11  C   UNL     1       5.846   2.545  -1.113  0.00  0.00    +0.025 A 
ATOM     12  C   UNL     1       4.726   1.731  -0.971  0.00  0.00    +0.061 A 
ATOM     13  N   UNL     1       4.882   0.355  -1.157  0.00  0.00    -0.198 N 
ATOM     14  S   UNL     1       3.902  -0.669  -0.282  0.00  0.00    +0.079 S 
ATOM     15  O   UNL     1       4.364  -0.639   1.062  0.00  0.00    -0.150 OA
ATOM     16  O   UNL     1       3.782  -1.872  -1.028  0.00  0.00    -0.150 OA
ENDROOT
BRANCH   1  17
ATOM     17  S   UNL     1      -1.601   2.165  -0.383  0.00  0.00    -0.077 S 
BRANCH  17  18
ATOM     18  C   UNL     1      -2.696   0.744  -0.142  0.00  0.00    +0.173 C 
BRANCH  18  20
ATOM     19  N   UNL     1      -5.127   0.318   0.028  0.00  0.00    -0.285 N 
ATOM     20  C   UNL     1      -4.129   1.209  -0.138  0.00  0.00    +0.227 C 
ATOM     21  O   UNL     1      -4.385   2.386  -0.284  0.00  0.00    -0.275 OA
ATOM     22  H   UNL     1      -4.901  -0.758   0.073  0.00  0.00    +0.155 HD
BRANCH  19  28
ATOM     23  C   UNL     1      -9.920  -0.413  -0.786  0.00  0.00    +0.044 C 
ATOM     24  C   UNL     1      -8.792   0.427  -0.244  0.00  0.00    -0.049 A 
ATOM     25  C   UNL     1      -9.064   1.637   0.368  0.00  0.00    +0.003 A 
ATOM     26  C   UNL     1      -8.032   2.410   0.867  0.00  0.00    +0.002 A 
ATOM     27  C   UNL     1      -6.726   1.973   0.761  0.00  0.00    +0.023 A 
ATOM     28  C   UNL     1      -6.449   0.761   0.142  0.00  0.00    +0.034 A 
ATOM     29  C   UNL     1      -7.488  -0.013  -0.358  0.00  0.00    +0.026 A 
ENDBRANCH  19  28
ENDBRANCH  18  20
ENDBRANCH  17  18
ENDBRANCH   1  17
BRANCH  13  30
ATOM     30  C   UNL     1       5.877  -0.172  -2.094  0.00  0.00    +0.166 C 
BRANCH  30  31
ATOM     31  C   UNL     1       5.292  -0.205  -3.482  0.00  0.00    -0.028 A 
ATOM     32  C   UNL     1       4.627  -1.333  -3.924  0.00  0.00    +0.008 A 
ATOM     33  C   UNL     1       4.086  -1.364  -5.196  0.00  0.00    +0.038 A 
ATOM     34  C   UNL     1       4.220  -0.267  -6.031  0.00  0.00    +0.123 A 
ATOM     35  C   UNL     1       4.891   0.860  -5.589  0.00  0.00    +0.038 A 
ATOM     36  C   UNL     1       5.427   0.890  -4.315  0.00  0.00    +0.008 A 
ATOM     37  F   UNL     1       3.695  -0.297  -7.276  0.00  0.00    -0.205 F 
ENDBRANCH  30  31
ENDBRANCH  13  30
TORSDOF 6
