REMARK  Name = ZINC36502903
REMARK  15 active torsions:
REMARK  status: ('A' for Active; 'I' for Inactive)
REMARK    1  A    between atoms: C_1  and  C_2
REMARK    2  A    between atoms: C_5  and  S_8
REMARK    3  A    between atoms: S_8  and  C_11
REMARK    4  A    between atoms: C_11  and  N_12
REMARK    5  A    between atoms: C_13  and  C_15
REMARK    6  A    between atoms: C_15  and  C_17
REMARK    7  A    between atoms: C_15  and  N_26
REMARK    8  A    between atoms: C_20  and  N_23
REMARK    9  A    between atoms: N_23  and  C_24
REMARK   10  A    between atoms: N_23  and  C_25
REMARK   11  A    between atoms: N_26  and  C_27
REMARK   12  A    between atoms: C_27  and  C_28
REMARK   13  A    between atoms: C_33  and  C_35
REMARK   14  A    between atoms: C_36  and  C_37
REMARK   15  A    between atoms: C_36  and  C_38
REMARK                            x       y       z     vdW  Elec       q    Type
REMARK                         _______ _______ _______ _____ _____    ______ ____
ROOT
ATOM      1  C   UNL     1       3.636  -4.991   3.556  0.00  0.00    +0.193 C 
ENDROOT
BRANCH   1   2
ATOM      2  C   UNL     1       5.066  -4.513   3.576  0.00  0.00    -0.018 A 
ATOM      3  C   UNL     1       6.099  -5.431   3.634  0.00  0.00    +0.008 A 
ATOM      4  C   UNL     1       7.410  -4.996   3.652  0.00  0.00    +0.023 A 
ATOM      5  C   UNL     1       7.689  -3.636   3.611  0.00  0.00    +0.029 A 
ATOM      6  C   UNL     1       6.649  -2.717   3.553  0.00  0.00    +0.023 A 
ATOM      7  C   UNL     1       5.341  -3.159   3.530  0.00  0.00    +0.008 A 
BRANCH   5   8
ATOM      8  N   UNL     1       9.014  -3.193   3.630  0.00  0.00    -0.336 N 
ATOM      9  C   UNL     1      10.105  -4.153   3.817  0.00  0.00    +0.129 C 
ATOM     10  C   UNL     1       9.312  -1.769   3.463  0.00  0.00    +0.129 C 
ENDBRANCH   5   8
ENDBRANCH   1   2
BRANCH   1  12
ATOM     11  N   UNL     1       2.579  -4.786   1.330  0.00  0.00    -0.294 N 
ATOM     12  C   UNL     1       3.305  -5.529   2.188  0.00  0.00    +0.239 C 
ATOM     13  O   UNL     1       3.692  -6.630   1.859  0.00  0.00    -0.273 OA
ATOM     14  H   UNL     1       2.269  -3.906   1.593  0.00  0.00    +0.150 HD
BRANCH  11  15
ATOM     15  C   UNL     1       2.256  -5.309  -0.000  0.00  0.00    +0.278 C 
BRANCH  15  16
ATOM     16  S   UNL     1       0.618  -6.087   0.036  0.00  0.00    +0.013 S 
ATOM     17  O   UNL     1       0.510  -6.948   1.161  0.00  0.00    -0.168 OA
ATOM     18  O   UNL     1       0.264  -6.544  -1.262  0.00  0.00    -0.168 OA
BRANCH  16  23
ATOM     19  C   UNL     1      -3.220  -1.574   1.179  0.00  0.00    +0.044 C 
ATOM     20  C   UNL     1      -2.261  -2.701   0.894  0.00  0.00    -0.050 A 
ATOM     21  C   UNL     1      -1.940  -3.021  -0.412  0.00  0.00    +0.005 A 
ATOM     22  C   UNL     1      -1.060  -4.055  -0.674  0.00  0.00    +0.027 A 
ATOM     23  C   UNL     1      -0.502  -4.769   0.370  0.00  0.00    +0.090 A 
ATOM     24  C   UNL     1      -0.822  -4.448   1.676  0.00  0.00    +0.027 A 
ATOM     25  C   UNL     1      -1.698  -3.411   1.938  0.00  0.00    +0.005 A 
ENDBRANCH  16  23
ENDBRANCH  15  16
ENDBRANCH  11  15
ENDBRANCH   1  12
BRANCH   1  26
ATOM     26  N   UNL     1       3.462  -6.051   4.553  0.00  0.00    -0.275 N 
ATOM     27  C   UNL     1       3.633  -5.779   5.862  0.00  0.00    +0.241 C 
ATOM     28  O   UNL     1       3.579  -6.677   6.681  0.00  0.00    -0.271 OA
BRANCH  27  29
ATOM     29  C   UNL     1       3.885  -4.398   6.300  0.00  0.00    +0.066 C 
ATOM     30  C   UNL     1       4.100  -4.137   7.586  0.00  0.00    -0.071 C 
ATOM     31  C   UNL     1       3.907  -5.219   8.617  0.00  0.00    +0.039 C 
ATOM     32  C   UNL     1       4.536  -2.759   8.013  0.00  0.00    +0.039 C 
ENDBRANCH  27  29
BRANCH  26  33
ATOM     33  C   UNL     1       3.102  -7.405   4.127  0.00  0.00    +0.183 C 
BRANCH  33  34
ATOM     34  C   UNL     1       4.348  -8.248   4.026  0.00  0.00    +0.122 A 
ATOM     35  C   UNL     1       4.878  -8.989   5.014  0.00  0.00    +0.046 A 
ATOM     36  C   UNL     1       6.034  -9.610   4.486  0.00  0.00    +0.041 A 
ATOM     37  C   UNL     1       6.140  -9.211   3.206  0.00  0.00    +0.195 A 
ATOM     38  O   UNL     1       5.113  -8.390   2.931  0.00  0.00    -0.466 OA
ENDBRANCH  33  34
ENDBRANCH  26  33
ENDBRANCH   1  26
TORSDOF 10
