REMARK  Name = ZINC20082417
REMARK  14 active torsions:
REMARK  status: ('A' for Active; 'I' for Inactive)
REMARK    1  A    between atoms: C_1  and  C_2
REMARK    2  A    between atoms: C_2  and  C_3
REMARK    3  A    between atoms: C_10  and  C_15
REMARK    4  A    between atoms: C_15  and  C_17
REMARK    5  A    between atoms: C_15  and  N_27
REMARK    6  A    between atoms: N_21  and  C_22
REMARK    7  A    between atoms: C_22  and  C_23
REMARK    8  A    between atoms: C_22  and  C_24
REMARK    9  A    between atoms: C_22  and  C_25
REMARK   10  A    between atoms: C_25  and  C_26
REMARK   11  A    between atoms: N_27  and  C_28
REMARK   12  A    between atoms: N_27  and  C_35
REMARK   13  A    between atoms: C_28  and  C_29
REMARK   14  A    between atoms: C_35  and  C_36
REMARK                            x       y       z     vdW  Elec       q    Type
REMARK                         _______ _______ _______ _____ _____    ______ ____
ROOT
ATOM      1  C   UNL     1      -3.069   1.573   0.342  0.00  0.00    +0.163 C 
ENDROOT
BRANCH   1   9
ATOM      2  C   UNL     1      -6.746  -0.038   5.051  0.00  0.00    -0.047 A 
ATOM      3  C   UNL     1      -7.129   1.251   5.397  0.00  0.00    +0.005 A 
ATOM      4  C   UNL     1      -6.650   2.338   4.699  0.00  0.00    +0.026 A 
ATOM      5  C   UNL     1      -5.774   2.145   3.636  0.00  0.00    +0.049 A 
ATOM      6  C   UNL     1      -5.388   0.837   3.287  0.00  0.00    -0.001 A 
ATOM      7  C   UNL     1      -5.887  -0.252   4.010  0.00  0.00    +0.013 A 
ATOM      8  C   UNL     1      -4.471   0.643   2.163  0.00  0.00    +0.021 A 
ATOM      9  C   UNL     1      -4.018   1.737   1.501  0.00  0.00    +0.042 A 
ATOM     10  C   UNL     1      -4.436   3.027   1.891  0.00  0.00    +0.254 A 
ATOM     11  O   UNL     1      -4.020   3.996   1.280  0.00  0.00    -0.268 OA
ATOM     12  N   UNL     1      -5.281   3.215   2.920  0.00  0.00    -0.322 N 
ATOM     13  H   UNL     1      -5.578   4.240   3.187  0.00  0.00    +0.169 HD
BRANCH   2  15
ATOM     14  C   UNL     1      -6.345  -1.519   6.999  0.00  0.00    +0.009 C 
ATOM     15  C   UNL     1      -7.283  -1.211   5.829  0.00  0.00    +0.032 C 
ENDBRANCH   2  15
ENDBRANCH   1   9
BRANCH   1  16
ATOM     16  C   UNL     1      -1.740   2.194   0.689  0.00  0.00    +0.174 A 
ATOM     17  N   UNL     1      -1.452   3.473   0.698  0.00  0.00    -0.111 NA
ATOM     18  N   UNL     1      -0.217   3.600   1.041  0.00  0.00    -0.023 NA
ATOM     19  N   UNL     1       0.289   2.437   1.256  0.00  0.00    -0.043 NA
ATOM     20  N   UNL     1      -0.620   1.543   1.053  0.00  0.00    -0.222 N 
BRANCH  20  21
ATOM     21  C   UNL     1      -0.460   0.093   1.187  0.00  0.00    +0.062 C 
ATOM     22  C   UNL     1      -1.505  -0.447   2.164  0.00  0.00    +0.036 C 
ATOM     23  C   UNL     1      -0.649  -0.569  -0.179  0.00  0.00    +0.036 C 
BRANCH  21  24
ATOM     24  C   UNL     1       0.942  -0.219   1.715  0.00  0.00    +0.026 C 
ATOM     25  C   UNL     1       1.109  -1.733   1.855  0.00  0.00    +0.006 C 
ENDBRANCH  21  24
ENDBRANCH  20  21
ENDBRANCH   1  16
BRANCH   1  26
ATOM     26  N   UNL     1      -3.625   2.237  -0.844  0.00  0.00    -0.277 NA
BRANCH  26  27
ATOM     27  C   UNL     1      -2.820   1.946  -2.037  0.00  0.00    +0.121 C 
BRANCH  27  28
ATOM     28  C   UNL     1      -1.598   2.828  -2.046  0.00  0.00    -0.033 A 
ATOM     29  C   UNL     1      -1.724   4.181  -2.298  0.00  0.00    +0.005 A 
ATOM     30  C   UNL     1      -0.604   4.992  -2.301  0.00  0.00    +0.000 A 
ATOM     31  C   UNL     1       0.644   4.447  -2.064  0.00  0.00    +0.000 A 
ATOM     32  C   UNL     1       0.771   3.092  -1.817  0.00  0.00    +0.000 A 
ATOM     33  C   UNL     1      -0.350   2.283  -1.808  0.00  0.00    +0.005 A 
ENDBRANCH  27  28
ENDBRANCH  26  27
BRANCH  26  34
ATOM     34  C   UNL     1      -5.029   1.857  -1.051  0.00  0.00    +0.160 C 
BRANCH  34  35
ATOM     35  C   UNL     1      -5.609   2.671  -2.178  0.00  0.00    +0.119 A 
ATOM     36  C   UNL     1      -5.696   2.284  -3.464  0.00  0.00    +0.046 A 
ATOM     37  C   UNL     1      -6.302   3.348  -4.171  0.00  0.00    +0.041 A 
ATOM     38  C   UNL     1      -6.549   4.321  -3.276  0.00  0.00    +0.195 A 
ATOM     39  O   UNL     1      -6.133   3.903  -2.069  0.00  0.00    -0.467 OA
ENDBRANCH  34  35
ENDBRANCH  26  34
ENDBRANCH   1  26
TORSDOF 10
