REMARK  Name = ZINC51999393
REMARK  4 active torsions:
REMARK  status: ('A' for Active; 'I' for Inactive)
REMARK    1  A    between atoms: C_4  and  N_21
REMARK    2  A    between atoms: C_7  and  N_11
REMARK    3  A    between atoms: N_11  and  C_12
REMARK    4  A    between atoms: C_18  and  O_20
REMARK                            x       y       z     vdW  Elec       q    Type
REMARK                         _______ _______ _______ _____ _____    ______ ____
ROOT
ATOM      1  C   UNL     1      -0.017   1.388   0.010  0.00  0.00    +0.020 A 
ATOM      2  C   UNL     1       1.159   2.086   0.002  0.00  0.00    +0.013 A 
ATOM      3  C   UNL     1       2.362   1.359  -0.013  0.00  0.00    +0.023 A 
ATOM      4  C   UNL     1       3.611   2.013  -0.021  0.00  0.00    +0.034 A 
ATOM      5  C   UNL     1       4.770   1.267  -0.036  0.00  0.00    +0.025 A 
ATOM      6  C   UNL     1       4.721  -0.124  -0.043  0.00  0.00    +0.027 A 
ATOM      7  C   UNL     1       3.515  -0.789  -0.036  0.00  0.00    +0.054 A 
ATOM      8  C   UNL     1       2.309  -0.056  -0.020  0.00  0.00    +0.093 A 
ATOM      9  N   UNL     1       1.127  -0.678  -0.012  0.00  0.00    -0.253 NA
ATOM     10  C   UNL     1       0.002  -0.004   0.002  0.00  0.00    +0.111 A 
ENDROOT
BRANCH   4  11
ATOM     11  N   UNL     1       3.674   3.408  -0.014  0.00  0.00    -0.357 N 
ATOM     12  H   UNL     1       2.857   3.930  -0.004  0.00  0.00    +0.142 HD
ATOM     13  H   UNL     1       4.535   3.855  -0.020  0.00  0.00    +0.142 HD
ENDBRANCH   4  11
BRANCH   7  14
ATOM     14  N   UNL     1       3.486  -2.188  -0.044  0.00  0.00    -0.337 N 
ATOM     15  H   UNL     1       2.636  -2.655  -0.039  0.00  0.00    +0.147 HD
BRANCH  14  16
ATOM     16  C   UNL     1       4.739  -2.947  -0.061  0.00  0.00    +0.099 C 
ATOM     17  C   UNL     1       5.226  -3.095  -1.504  0.00  0.00    +0.025 C 
ATOM     18  C   UNL     1       4.170  -3.836  -2.325  0.00  0.00    +0.002 C 
ATOM     19  C   UNL     1       3.935  -5.222  -1.722  0.00  0.00    +0.003 C 
ATOM     20  C   UNL     1       3.447  -5.074  -0.279  0.00  0.00    +0.033 C 
ATOM     21  C   UNL     1       4.503  -4.333   0.543  0.00  0.00    +0.135 C 
BRANCH  21  22
ATOM     22  O   UNL     1       4.048  -4.195   1.890  0.00  0.00    -0.390 OA
ATOM     23  H   UNL     1       3.878  -5.036   2.336  0.00  0.00    +0.210 HD
ENDBRANCH  21  22
ENDBRANCH  14  16
ENDBRANCH   7  14
TORSDOF 4
