REMARK  Name = ZINC40985911
REMARK  13 active torsions:
REMARK  status: ('A' for Active; 'I' for Inactive)
REMARK    1  A    between atoms: C_1  and  N_2
REMARK    2  A    between atoms: N_2  and  C_3
REMARK    3  A    between atoms: N_2  and  C_4
REMARK    4  A    between atoms: C_7  and  C_10
REMARK    5  A    between atoms: C_10  and  C_12
REMARK    6  A    between atoms: C_10  and  N_32
REMARK    7  A    between atoms: C_12  and  N_13
REMARK    8  A    between atoms: C_14  and  C_16
REMARK    9  A    between atoms: C_19  and  S_23
REMARK   10  A    between atoms: S_23  and  C_24
REMARK   11  A    between atoms: C_24  and  C_25
REMARK   12  A    between atoms: N_32  and  C_33
REMARK   13  A    between atoms: N_32  and  C_34
REMARK                            x       y       z     vdW  Elec       q    Type
REMARK                         _______ _______ _______ _____ _____    ______ ____
ROOT
ATOM      1  N   UNL     1      -4.123  -4.135   1.821  0.00  0.00    -0.312 N 
ATOM      2  C   UNL     1      -4.251  -4.530   3.103  0.00  0.00    +0.248 C 
ATOM      3  O   UNL     1      -5.154  -4.088   3.788  0.00  0.00    -0.270 OA
ATOM      4  H   UNL     1      -3.403  -4.487   1.275  0.00  0.00    +0.149 HD
ENDROOT
BRANCH   2   5
ATOM      5  C   UNL     1      -3.297  -5.497   3.676  0.00  0.00    +0.092 A 
ATOM      6  C   UNL     1      -2.247  -6.014   2.905  0.00  0.00    +0.129 A 
ATOM      7  N   UNL     1      -1.415  -6.877   3.454  0.00  0.00    -0.229 NA
ATOM      8  C   UNL     1      -1.561  -7.258   4.718  0.00  0.00    +0.190 A 
ATOM      9  N   UNL     1      -2.542  -6.793   5.481  0.00  0.00    -0.209 NA
ATOM     10  C   UNL     1      -3.414  -5.921   5.008  0.00  0.00    +0.146 A 
ATOM     11 CL   UNL     1      -4.689  -5.314   6.018  0.00  0.00    -0.061 Cl
BRANCH   8  12
ATOM     12  S   UNL     1      -0.420  -8.414   5.401  0.00  0.00    -0.081 S 
BRANCH  12  13
ATOM     13  C   UNL     1      -0.991  -8.637   7.108  0.00  0.00    +0.112 C 
BRANCH  13  14
ATOM     14  C   UNL     1      -0.090  -9.617   7.815  0.00  0.00    -0.037 A 
ATOM     15  C   UNL     1      -0.377 -10.969   7.781  0.00  0.00    +0.007 A 
ATOM     16  C   UNL     1       0.449 -11.867   8.428  0.00  0.00    +0.038 A 
ATOM     17  C   UNL     1       1.565 -11.414   9.111  0.00  0.00    +0.123 A 
ATOM     18  C   UNL     1       1.852 -10.060   9.145  0.00  0.00    +0.038 A 
ATOM     19  C   UNL     1       1.027  -9.163   8.492  0.00  0.00    +0.007 A 
ATOM     20  F   UNL     1       2.373 -12.292   9.745  0.00  0.00    -0.205 F 
ENDBRANCH  13  14
ENDBRANCH  12  13
ENDBRANCH   8  12
ENDBRANCH   2   5
BRANCH   1  21
ATOM     21  C   UNL     1      -5.071  -3.174   1.252  0.00  0.00    +0.094 C 
BRANCH  21  22
ATOM     22  C   UNL     1      -4.761  -2.970  -0.233  0.00  0.00    -0.021 C 
BRANCH  22  26
ATOM     23  C   UNL     1      -0.898  -1.188  -0.652  0.00  0.00    +0.029 A 
ATOM     24  C   UNL     1      -1.058  -2.556  -0.836  0.00  0.00    +0.023 A 
ATOM     25  C   UNL     1      -2.307  -3.128  -0.700  0.00  0.00    +0.004 A 
ATOM     26  C   UNL     1      -3.399  -2.342  -0.380  0.00  0.00    -0.059 A 
ATOM     27  C   UNL     1      -3.244  -0.980  -0.196  0.00  0.00    +0.004 A 
ATOM     28  C   UNL     1      -1.996  -0.402  -0.325  0.00  0.00    +0.023 A 
BRANCH  23  30
ATOM     29  C   UNL     1       0.531   0.835  -0.588  0.00  0.00    +0.129 C 
ATOM     30  N   UNL     1       0.364  -0.606  -0.789  0.00  0.00    -0.336 N 
ATOM     31  C   UNL     1       1.520  -1.437  -1.133  0.00  0.00    +0.129 C 
ENDBRANCH  23  30
ENDBRANCH  22  26
BRANCH  22  32
ATOM     32  N   UNL     1      -5.774  -2.088  -0.828  0.00  0.00    +0.382 N 
ATOM     33  C   UNL     1      -5.451  -1.855  -2.242  0.00  0.00    -0.096 C 
ATOM     34  C   UNL     1      -7.096  -2.720  -0.724  0.00  0.00    -0.096 C 
ATOM     35  H   UNL     1      -5.783  -1.207  -0.336  0.00  0.00    -0.082 HD
ENDBRANCH  22  32
ENDBRANCH  21  22
ENDBRANCH   1  21
TORSDOF 9
