REMARK  Name = ZINC17672717
REMARK  9 active torsions:
REMARK  status: ('A' for Active; 'I' for Inactive)
REMARK    1  A    between atoms: C_1  and  C_2
REMARK    2  A    between atoms: C_5  and  N_8
REMARK    3  A    between atoms: C_12  and  C_13
REMARK    4  A    between atoms: C_16  and  C_19
REMARK    5  A    between atoms: C_19  and  C_20
REMARK    6  A    between atoms: C_19  and  C_21
REMARK    7  A    between atoms: C_23  and  S_24
REMARK    8  A    between atoms: S_24  and  C_25
REMARK    9  A    between atoms: C_25  and  C_26
REMARK                            x       y       z     vdW  Elec       q    Type
REMARK                         _______ _______ _______ _____ _____    ______ ____
ROOT
ATOM      1  N   UNL     1      -0.198   1.282  -3.682  0.00  0.00    -0.214 N 
ATOM      2  C   UNL     1       0.681   0.603  -4.451  0.00  0.00    +0.275 C 
ATOM      3  O   UNL     1       0.694   0.529  -5.666  0.00  0.00    -0.268 OA
ATOM      4  C   UNL     1       1.618  -0.037  -3.506  0.00  0.00    +0.129 C 
ATOM      5  C   UNL     1       2.681  -0.835  -3.816  0.00  0.00    +0.041 C 
ATOM      6  N   UNL     1       1.203   0.334  -2.258  0.00  0.00    -0.220 NA
ATOM      7  C   UNL     1       0.150   1.102  -2.365  0.00  0.00    +0.169 C 
ENDROOT
BRANCH   1  12
ATOM      8  C   UNL     1      -4.573   4.364  -5.572  0.00  0.00    +0.044 C 
ATOM      9  C   UNL     1      -3.411   3.546  -5.070  0.00  0.00    -0.050 A 
ATOM     10  C   UNL     1      -2.130   3.828  -5.505  0.00  0.00    +0.005 A 
ATOM     11  C   UNL     1      -1.063   3.080  -5.047  0.00  0.00    +0.024 A 
ATOM     12  C   UNL     1      -1.279   2.044  -4.148  0.00  0.00    +0.044 A 
ATOM     13  C   UNL     1      -2.567   1.760  -3.717  0.00  0.00    +0.024 A 
ATOM     14  C   UNL     1      -3.630   2.515  -4.175  0.00  0.00    +0.005 A 
ENDBRANCH   1  12
BRANCH   5  15
ATOM     15  C   UNL     1       3.585  -1.296  -2.756  0.00  0.00    -0.023 A 
ATOM     16  C   UNL     1       3.291  -1.028  -1.413  0.00  0.00    +0.008 A 
ATOM     17  C   UNL     1       4.144  -1.470  -0.424  0.00  0.00    +0.004 A 
ATOM     18  C   UNL     1       5.293  -2.166  -0.755  0.00  0.00    -0.045 A 
ATOM     19  C   UNL     1       5.594  -2.432  -2.080  0.00  0.00    +0.004 A 
ATOM     20  C   UNL     1       4.750  -2.002  -3.082  0.00  0.00    +0.008 A 
BRANCH  18  21
ATOM     21  C   UNL     1       6.222  -2.639   0.333  0.00  0.00    +0.013 C 
ATOM     22  C   UNL     1       6.733  -1.435   1.127  0.00  0.00    +0.012 C 
ATOM     23  C   UNL     1       5.469  -3.586   1.270  0.00  0.00    +0.012 C 
ENDBRANCH  18  21
ENDBRANCH   5  15
BRANCH   7  24
ATOM     24  S   UNL     1      -0.713   1.807  -1.000  0.00  0.00    -0.082 S 
BRANCH  24  25
ATOM     25  C   UNL     1       0.275   1.152   0.368  0.00  0.00    +0.153 C 
BRANCH  25  26
ATOM     26  C   UNL     1      -0.294   1.638   1.676  0.00  0.00    +0.146 A 
ATOM     27  N   UNL     1       0.138   2.771   2.203  0.00  0.00    -0.199 NA
ATOM     28  C   UNL     1      -0.366   3.206   3.355  0.00  0.00    +0.217 A 
ATOM     29  N   UNL     1      -1.297   2.495   3.982  0.00  0.00    -0.181 NA
ATOM     30  C   UNL     1      -1.725   1.354   3.452  0.00  0.00    +0.217 A 
ATOM     31  N   UNL     1      -1.220   0.928   2.296  0.00  0.00    -0.199 NA
ATOM     32  N   UNL     1      -2.692   0.612   4.099  0.00  0.00    -0.327 N 
ATOM     33  N   UNL     1       0.082   4.391   3.902  0.00  0.00    -0.327 N 
ATOM     34  H   UNL     1      -3.004  -0.221   3.711  0.00  0.00    +0.145 HD
ATOM     35  H   UNL     1      -3.060   0.923   4.941  0.00  0.00    +0.145 HD
ATOM     36  H   UNL     1      -0.282   4.706   4.744  0.00  0.00    +0.145 HD
ATOM     37  H   UNL     1       0.762   4.910   3.444  0.00  0.00    +0.145 HD
ENDBRANCH  25  26
ENDBRANCH  24  25
ENDBRANCH   7  24
TORSDOF 6
