REMARK  Name = ZINC35867036
REMARK  6 active torsions:
REMARK  status: ('A' for Active; 'I' for Inactive)
REMARK    1  A    between atoms: C_1  and  C_2
REMARK    2  A    between atoms: C_2  and  C_3
REMARK    3  A    between atoms: C_3  and  C_5
REMARK    4  A    between atoms: C_3  and  C_6
REMARK    5  A    between atoms: N_27  and  C_28
REMARK    6  A    between atoms: C_31  and  C_34
REMARK                            x       y       z     vdW  Elec       q    Type
REMARK                         _______ _______ _______ _____ _____    ______ ____
ROOT
ATOM      1  C   UNL     1      -1.220  -1.317  -0.589  0.00  0.00    +0.135 A 
ATOM      2  N   UNL     1      -1.864  -1.949  -1.553  0.00  0.00    -0.216 NA
ATOM      3  C   UNL     1      -2.168  -3.235  -1.474  0.00  0.00    +0.133 A 
ATOM      4  C   UNL     1      -1.790  -3.964  -0.312  0.00  0.00    +0.051 A 
ATOM      5  C   UNL     1      -2.017  -5.377  -0.004  0.00  0.00    -0.025 A 
ATOM      6  C   UNL     1      -1.552  -5.827   1.180  0.00  0.00    -0.004 A 
ATOM      7  S   UNL     1      -0.795  -4.418   1.945  0.00  0.00    -0.073 S 
ATOM      8  C   UNL     1      -1.106  -3.223   0.672  0.00  0.00    +0.114 A 
ATOM      9  N   UNL     1      -0.839  -1.942   0.509  0.00  0.00    -0.224 NA
ATOM     10  C   UNL     1      -1.657  -7.218   1.726  0.00  0.00    +0.043 C 
ATOM     11  C   UNL     1      -2.702  -7.985   0.904  0.00  0.00    +0.005 C 
ATOM     12  C   UNL     1      -2.416  -7.760  -0.584  0.00  0.00    +0.005 C 
ATOM     13  C   UNL     1      -2.743  -6.316  -0.963  0.00  0.00    +0.037 C 
ATOM     14  N   UNL     1      -2.844  -3.860  -2.506  0.00  0.00    -0.312 N 
ATOM     15  C   UNL     1      -4.302  -4.032  -2.449  0.00  0.00    +0.125 C 
ATOM     16  C   UNL     1      -4.918  -3.414  -3.710  0.00  0.00    +0.128 C 
ATOM     17  N   UNL     1      -4.191  -3.918  -4.883  0.00  0.00    -0.282 N 
ATOM     18  C   UNL     1      -2.732  -3.746  -4.940  0.00  0.00    +0.128 C 
ATOM     19  C   UNL     1      -2.117  -4.359  -3.682  0.00  0.00    +0.125 C 
ATOM     20  C   UNL     1      -4.849  -4.528  -5.889  0.00  0.00    +0.307 C 
ATOM     21  O   UNL     1      -6.065  -4.551  -5.893  0.00  0.00    -0.252 OA
ATOM     22  N   UNL     1      -4.161  -5.112  -6.889  0.00  0.00    -0.269 N 
ATOM     23  H   UNL     1      -3.198  -5.213  -6.821  0.00  0.00    +0.156 HD
ENDROOT
BRANCH  22  24
ATOM     24  C   UNL     1      -4.834  -5.574  -8.026  0.00  0.00    +0.035 A 
ATOM     25  C   UNL     1      -6.179  -5.909  -7.950  0.00  0.00    +0.024 A 
ATOM     26  C   UNL     1      -6.841  -6.364  -9.074  0.00  0.00    +0.014 A 
ATOM     27  C   UNL     1      -6.165  -6.484 -10.274  0.00  0.00    +0.055 A 
ATOM     28  C   UNL     1      -4.825  -6.152 -10.353  0.00  0.00    +0.014 A 
ATOM     29  C   UNL     1      -4.159  -5.691  -9.234  0.00  0.00    +0.024 A 
BRANCH  27  30
ATOM     30  C   UNL     1      -6.890  -6.981 -11.498  0.00  0.00    +0.417 C 
ATOM     31  F   UNL     1      -7.441  -5.894 -12.186  0.00  0.00    -0.166 F 
ATOM     32  F   UNL     1      -5.990  -7.653 -12.333  0.00  0.00    -0.166 F 
ATOM     33  F   UNL     1      -7.911  -7.855 -11.113  0.00  0.00    -0.166 F 
ENDBRANCH  27  30
ENDBRANCH  22  24
BRANCH   1  34
ATOM     34  C   UNL     1      -0.908   0.149  -0.748  0.00  0.00    +0.054 C 
ATOM     35  C   UNL     1      -1.567   0.936   0.386  0.00  0.00    +0.015 C 
BRANCH  34  37
ATOM     36  C   UNL     1       0.930   1.824  -0.985  0.00  0.00    +0.004 C 
ATOM     37  C   UNL     1       0.607   0.356  -0.699  0.00  0.00    +0.007 C 
ENDBRANCH  34  37
ENDBRANCH   1  34
TORSDOF 4
