REMARK  Name = ZINC32523006
REMARK  7 active torsions:
REMARK  status: ('A' for Active; 'I' for Inactive)
REMARK    1  A    between atoms: C_4  and  C_7
REMARK    2  A    between atoms: C_8  and  C_29
REMARK    3  A    between atoms: C_10  and  S_13
REMARK    4  A    between atoms: S_13  and  C_14
REMARK    5  A    between atoms: C_14  and  C_15
REMARK    6  A    between atoms: N_17  and  C_18
REMARK    7  A    between atoms: C_23  and  C_24
REMARK                            x       y       z     vdW  Elec       q    Type
REMARK                         _______ _______ _______ _____ _____    ______ ____
ROOT
ATOM      1  C   UNL     1      -8.482   2.842  -0.575  0.00  0.00    +0.075 A 
ATOM      2  C   UNL     1      -7.582   3.886  -0.494  0.00  0.00    +0.098 A 
ATOM      3  N   UNL     1      -6.347   3.356  -0.395  0.00  0.00    -0.221 NA
ATOM      4  C   UNL     1      -6.428   2.047  -0.410  0.00  0.00    +0.168 A 
ATOM      5  N   UNL     1      -7.735   1.680  -0.526  0.00  0.00    -0.332 N 
ATOM      6  H   UNL     1      -8.235   0.702  -0.580  0.00  0.00    +0.168 HD
ENDROOT
BRANCH   1  10
ATOM      7  C   UNL     1     -12.703   3.140  -0.924  0.00  0.00    +0.000 A 
ATOM      8  C   UNL     1     -12.007   2.250  -1.723  0.00  0.00    +0.001 A 
ATOM      9  C   UNL     1     -10.636   2.148  -1.615  0.00  0.00    +0.010 A 
ATOM     10  C   UNL     1      -9.949   2.946  -0.696  0.00  0.00    +0.000 A 
ATOM     11  C   UNL     1     -10.659   3.838   0.111  0.00  0.00    +0.010 A 
ATOM     12  C   UNL     1     -12.029   3.933  -0.012  0.00  0.00    +0.001 A 
ENDBRANCH   1  10
BRANCH   2  13
ATOM     13  C   UNL     1      -7.915   5.330  -0.513  0.00  0.00    +0.002 A 
ATOM     14  C   UNL     1      -8.971   5.795  -1.296  0.00  0.00    +0.010 A 
ATOM     15  C   UNL     1      -9.278   7.140  -1.306  0.00  0.00    +0.001 A 
ATOM     16  C   UNL     1      -8.535   8.028  -0.549  0.00  0.00    +0.000 A 
ATOM     17  C   UNL     1      -7.483   7.573   0.226  0.00  0.00    +0.001 A 
ATOM     18  C   UNL     1      -7.169   6.230   0.248  0.00  0.00    +0.010 A 
ENDBRANCH   2  13
BRANCH   4  19
ATOM     19  S   UNL     1      -5.062   0.939  -0.304  0.00  0.00    -0.079 S 
BRANCH  19  20
ATOM     20  C   UNL     1      -3.702   2.127  -0.184  0.00  0.00    +0.173 C 
BRANCH  20  21
ATOM     21  C   UNL     1      -2.395   1.385  -0.081  0.00  0.00    +0.227 C 
ATOM     22  O   UNL     1      -2.383   0.172  -0.088  0.00  0.00    -0.275 OA
ATOM     23  N   UNL     1      -1.238   2.069   0.019  0.00  0.00    -0.284 N 
ATOM     24  H   UNL     1      -1.253   3.166   0.100  0.00  0.00    +0.155 HD
BRANCH  23  25
ATOM     25  C   UNL     1      -0.017   1.384   0.020  0.00  0.00    +0.045 A 
ATOM     26  C   UNL     1       0.078   0.134   0.619  0.00  0.00    +0.025 A 
ATOM     27  C   UNL     1       1.282  -0.542   0.613  0.00  0.00    +0.022 A 
ATOM     28  C   UNL     1       2.393   0.024   0.012  0.00  0.00    +0.042 A 
ATOM     29  C   UNL     1       2.300   1.269  -0.584  0.00  0.00    +0.034 A 
ATOM     30  C   UNL     1       1.099   1.950  -0.582  0.00  0.00    +0.077 A 
ATOM     31 CL   UNL     1       3.905  -0.830   0.007  0.00  0.00    -0.084 Cl
BRANCH  30  32
ATOM     32  C   UNL     1       0.999   3.305  -1.232  0.00  0.00    +0.419 C 
ATOM     33  F   UNL     1       2.243   3.660  -1.765  0.00  0.00    -0.166 F 
ATOM     34  F   UNL     1       0.048   3.261  -2.257  0.00  0.00    -0.166 F 
ATOM     35  F   UNL     1       0.613   4.253  -0.278  0.00  0.00    -0.166 F 
ENDBRANCH  30  32
ENDBRANCH  23  25
ENDBRANCH  20  21
ENDBRANCH  19  20
ENDBRANCH   4  19
TORSDOF 7
