REMARK  Name = ZINC20466440
REMARK  13 active torsions:
REMARK  status: ('A' for Active; 'I' for Inactive)
REMARK    1  A    between atoms: C_1  and  C_2
REMARK    2  A    between atoms: C_4  and  N_29
REMARK    3  A    between atoms: C_8  and  C_28
REMARK    4  A    between atoms: C_11  and  O_27
REMARK    5  A    between atoms: C_13  and  C_17
REMARK    6  A    between atoms: C_17  and  C_19
REMARK    7  A    between atoms: C_17  and  C_20
REMARK    8  A    between atoms: N_22  and  C_23
REMARK    9  A    between atoms: C_23  and  C_24
REMARK   10  A    between atoms: C_23  and  C_25
REMARK   11  A    between atoms: C_23  and  C_26
REMARK   12  A    between atoms: C_30  and  C_32
REMARK   13  A    between atoms: C_35  and  C_38
REMARK                            x       y       z     vdW  Elec       q    Type
REMARK                         _______ _______ _______ _____ _____    ______ ____
ROOT
ATOM      1  C   UNL     1       3.366   2.472   1.522  0.00  0.00    +0.010 C 
ATOM      2  C   UNL     1       1.912   1.997   1.550  0.00  0.00    +0.012 C 
ATOM      3  C   UNL     1       1.871   0.473   1.423  0.00  0.00    +0.076 C 
ATOM      4  C   UNL     1       0.417  -0.002   1.450  0.00  0.00    +0.023 C 
ATOM      5  C   UNL     1      -0.347   0.627   0.284  0.00  0.00    +0.009 C 
ATOM      6  C   UNL     1      -0.306   2.152   0.410  0.00  0.00    -0.027 C 
ATOM      7  C   UNL     1       1.148   2.627   0.383  0.00  0.00    +0.028 C 
ATOM      8  C   UNL     1       1.189   4.151   0.510  0.00  0.00    +0.122 C 
ATOM      9  C   UNL     1       0.425   4.780  -0.657  0.00  0.00    +0.029 C 
ATOM     10  C   UNL     1      -1.029   4.305  -0.630  0.00  0.00    +0.007 C 
ATOM     11  C   UNL     1      -1.070   2.781  -0.756  0.00  0.00    +0.007 C 
ATOM     12  C   UNL     1      -0.955   2.571   1.731  0.00  0.00    +0.011 C 
ENDROOT
BRANCH   3  13
ATOM     13  N   UNL     1       2.603  -0.130   2.540  0.00  0.00    -0.308 N 
ATOM     14  C   UNL     1       3.138  -1.360   2.410  0.00  0.00    +0.244 C 
ATOM     15  O   UNL     1       3.013  -1.969   1.365  0.00  0.00    -0.270 OA
ATOM     16  H   UNL     1       2.716   0.422   3.485  0.00  0.00    +0.149 HD
BRANCH  14  17
ATOM     17  C   UNL     1       3.877  -1.968   3.537  0.00  0.00    +0.037 A 
ATOM     18  C   UNL     1       4.025  -1.266   4.735  0.00  0.00    +0.014 A 
ATOM     19  C   UNL     1       4.709  -1.834   5.787  0.00  0.00    +0.019 A 
ATOM     20  C   UNL     1       5.263  -3.109   5.652  0.00  0.00    +0.052 A 
ATOM     21  C   UNL     1       5.119  -3.809   4.452  0.00  0.00    +0.019 A 
ATOM     22  C   UNL     1       4.431  -3.243   3.402  0.00  0.00    +0.014 A 
BRANCH  20  23
ATOM     23  C   UNL     1       5.978  -3.698   6.744  0.00  0.00    +0.099 C 
ATOM     24  N   UNL     1       6.546  -4.165   7.610  0.00  0.00    -0.191 NA
ENDBRANCH  20  23
ENDBRANCH  14  17
ENDBRANCH   3  13
BRANCH   9  25
ATOM     25  C   UNL     1       1.074   4.361  -1.977  0.00  0.00    +0.077 C 
ATOM     26  C   UNL     1       2.551   4.760  -1.969  0.00  0.00    +0.017 C 
BRANCH  25  27
ATOM     27  C   UNL     1       0.374   5.048  -3.122  0.00  0.00    +0.217 C 
ATOM     28  O   UNL     1      -0.552   5.799  -2.903  0.00  0.00    -0.275 OA
ATOM     29  N   UNL     1       0.778   4.827  -4.388  0.00  0.00    -0.310 N 
ATOM     30  H   UNL     1       1.618   4.146  -4.587  0.00  0.00    +0.149 HD
BRANCH  29  31
ATOM     31  C   UNL     1       0.098   5.495  -5.501  0.00  0.00    +0.026 C 
ATOM     32  C   UNL     1       0.216   7.011  -5.334  0.00  0.00    +0.031 C 
ATOM     33  C   UNL     1       0.747   5.075  -6.821  0.00  0.00    +0.031 C 
ATOM     34  C   UNL     1      -1.379   5.096  -5.509  0.00  0.00    +0.031 C 
ENDBRANCH  29  31
ENDBRANCH  25  27
ENDBRANCH   9  25
BRANCH   8  35
ATOM     35  O   UNL     1       2.547   4.595   0.484  0.00  0.00    -0.391 OA
ATOM     36  H   UNL     1       2.777   5.667   0.564  0.00  0.00    +0.210 HD
ENDBRANCH   8  35
TORSDOF 7
