REMARK  Name = ZINC09153351
REMARK  6 active torsions:
REMARK  status: ('A' for Active; 'I' for Inactive)
REMARK    1  A    between atoms: C_4  and  N_7
REMARK    2  A    between atoms: N_10  and  C_13
REMARK    3  A    between atoms: C_13  and  C_14
REMARK    4  A    between atoms: C_14  and  C_15
REMARK    5  A    between atoms: C_15  and  N_16
REMARK    6  A    between atoms: C_17  and  C_19
REMARK                            x       y       z     vdW  Elec       q    Type
REMARK                         _______ _______ _______ _____ _____    ______ ____
ROOT
ATOM      1  N   UNL     1       8.177  -6.061  -2.456  0.00  0.00    -0.315 N 
ATOM      2  C   UNL     1       8.962  -6.814  -3.252  0.00  0.00    +0.218 C 
ATOM      3  O   UNL     1       9.466  -6.328  -4.242  0.00  0.00    -0.275 OA
ATOM      4  H   UNL     1       7.774  -6.450  -1.664  0.00  0.00    +0.149 HD
ENDROOT
BRANCH   2   5
ATOM      5  C   UNL     1       9.214  -8.260  -2.911  0.00  0.00    +0.092 C 
ATOM      6  C   UNL     1       7.884  -9.017  -2.883  0.00  0.00    +0.016 C 
ATOM      7  C   UNL     1       8.135 -10.479  -2.505  0.00  0.00    +0.020 C 
ATOM      8  C   UNL     1       9.038 -11.127  -3.559  0.00  0.00    +0.106 C 
ATOM      9  N   UNL     1      10.259 -10.321  -3.696  0.00  0.00    -0.313 N 
ATOM     10  C   UNL     1      10.130  -8.883  -3.969  0.00  0.00    +0.119 C 
ATOM     11  C   UNL     1      11.507 -10.905  -3.569  0.00  0.00    +0.152 A 
ATOM     12  C   UNL     1      12.673 -10.120  -3.585  0.00  0.00    +0.148 A 
ATOM     13  C   UNL     1      13.911 -10.770  -3.452  0.00  0.00    +0.166 A 
ATOM     14  N   UNL     1      13.936 -12.092  -3.316  0.00  0.00    -0.216 NA
ATOM     15  C   UNL     1      12.818 -12.786  -3.307  0.00  0.00    +0.225 A 
ATOM     16  N   UNL     1      11.631 -12.220  -3.424  0.00  0.00    -0.218 NA
ATOM     17  N   UNL     1      14.863  -9.783  -3.505  0.00  0.00    -0.312 N 
ATOM     18  C   UNL     1      14.214  -8.592  -3.654  0.00  0.00    +0.112 A 
ATOM     19  N   UNL     1      12.928  -8.796  -3.705  0.00  0.00    -0.227 NA
ATOM     20  C   UNL     1      14.887  -7.243  -3.736  0.00  0.00    +0.074 C 
ATOM     21  C   UNL     1      16.059  -7.320  -4.718  0.00  0.00    +0.008 C 
ATOM     22  C   UNL     1      17.319  -7.754  -3.976  0.00  0.00    +0.002 C 
ATOM     23  C   UNL     1      16.967  -8.719  -2.845  0.00  0.00    +0.022 C 
ATOM     24  C   UNL     1      16.314  -9.975  -3.425  0.00  0.00    +0.125 C 
ENDBRANCH   2   5
BRANCH   1  25
ATOM     25  C   UNL     1       7.933  -4.655  -2.787  0.00  0.00    +0.102 C 
BRANCH  25  26
ATOM     26  C   UNL     1       7.017  -4.034  -1.730  0.00  0.00    +0.000 C 
BRANCH  26  27
ATOM     27  C   UNL     1       6.762  -2.566  -2.076  0.00  0.00    -0.077 C 
BRANCH  27  31
ATOM     28  N   UNL     1       3.639  -0.617  -0.085  0.00  0.00    -0.333 N 
ATOM     29  C   UNL     1       4.912   0.111  -0.207  0.00  0.00    +0.086 C 
ATOM     30  C   UNL     1       5.734  -0.533  -1.328  0.00  0.00    -0.060 C 
ATOM     31  N   UNL     1       5.882  -1.969  -1.062  0.00  0.00    +0.382 N 
ATOM     32  C   UNL     1       4.569  -2.624  -1.110  0.00  0.00    -0.060 C 
ATOM     33  C   UNL     1       3.688  -2.083   0.027  0.00  0.00    +0.086 C 
ATOM     34  H   UNL     1       6.289  -2.101  -0.148  0.00  0.00    -0.082 HD
BRANCH  28  38
ATOM     35  C   UNL     1       0.005   1.414  -0.040  0.00  0.00    +0.000 A 
ATOM     36  C   UNL     1       0.022   0.031  -0.053  0.00  0.00    +0.002 A 
ATOM     37  C   UNL     1       1.226  -0.646  -0.068  0.00  0.00    +0.023 A 
ATOM     38  C   UNL     1       2.420   0.064  -0.070  0.00  0.00    +0.030 A 
ATOM     39  C   UNL     1       2.399   1.453  -0.057  0.00  0.00    +0.023 A 
ATOM     40  C   UNL     1       1.192   2.123  -0.042  0.00  0.00    +0.002 A 
ENDBRANCH  28  38
ENDBRANCH  27  31
ENDBRANCH  26  27
ENDBRANCH  25  26
ENDBRANCH   1  25
TORSDOF 6
