REMARK  Name = ZINC39668997
REMARK  4 active torsions:
REMARK  status: ('A' for Active; 'I' for Inactive)
REMARK    1  A    between atoms: C_10  and  C_12
REMARK    2  A    between atoms: C_12  and  N_13
REMARK    3  A    between atoms: C_14  and  C_16
REMARK    4  A    between atoms: C_27  and  C_29
REMARK                            x       y       z     vdW  Elec       q    Type
REMARK                         _______ _______ _______ _____ _____    ______ ____
ROOT
ATOM      1  C   UNL     1       8.275  -0.944  -1.852  0.00  0.00    +0.100 C 
ATOM      2  C   UNL     1       9.006  -0.731  -0.508  0.00  0.00    +0.121 C 
ATOM      3  N   UNL     1      10.434  -0.586  -0.877  0.00  0.00    -0.300 N 
ATOM      4  C   UNL     1      10.413   0.218  -2.122  0.00  0.00    +0.115 C 
ATOM      5  C   UNL     1       9.201  -0.319  -2.909  0.00  0.00    -0.004 C 
ATOM      6  C   UNL     1       8.489   0.824  -3.626  0.00  0.00    -0.010 C 
ATOM      7  C   UNL     1       9.408   1.391  -4.711  0.00  0.00    -0.082 C 
ATOM      8  N   UNL     1       9.755   0.331  -5.664  0.00  0.00    +0.379 N 
ATOM      9  C   UNL     1      10.521  -0.722  -4.985  0.00  0.00    -0.082 C 
ATOM     10  C   UNL     1       9.649  -1.378  -3.911  0.00  0.00    -0.010 C 
ATOM     11  C   UNL     1      11.509  -1.076  -0.228  0.00  0.00    +0.219 C 
ATOM     12  O   UNL     1      12.623  -0.870  -0.660  0.00  0.00    -0.275 OA
ATOM     13  H   UNL     1       8.910  -0.065  -6.048  0.00  0.00    -0.086 HD
ATOM     14  H   UNL     1      10.310   0.720  -6.412  0.00  0.00    -0.086 HD
ENDROOT
BRANCH   1  16
ATOM     15  N   UNL     1       5.924  -0.716  -2.587  0.00  0.00    -0.312 N 
ATOM     16  C   UNL     1       6.941  -0.242  -1.841  0.00  0.00    +0.218 C 
ATOM     17  O   UNL     1       6.784   0.750  -1.161  0.00  0.00    -0.275 OA
ATOM     18  H   UNL     1       6.050  -1.509  -3.131  0.00  0.00    +0.149 HD
BRANCH  15  19
ATOM     19  C   UNL     1       4.628  -0.033  -2.577  0.00  0.00    +0.140 C 
BRANCH  19  29
ATOM     20  C   UNL     1      -0.123   1.226  -3.388  0.00  0.00    +0.000 A 
ATOM     21  C   UNL     1       0.588   1.004  -2.223  0.00  0.00    +0.000 A 
ATOM     22  C   UNL     1       1.807   0.360  -2.273  0.00  0.00    +0.006 A 
ATOM     23  C   UNL     1       2.324  -0.065  -3.488  0.00  0.00    -0.014 A 
ATOM     24  C   UNL     1       1.617   0.160  -4.650  0.00  0.00    -0.040 A 
ATOM     25  C   UNL     1       0.390   0.804  -4.598  0.00  0.00    +0.004 A 
ATOM     26  C   UNL     1       2.151  -0.275  -5.990  0.00  0.00    +0.063 C 
ATOM     27  C   UNL     1       3.266  -1.304  -5.794  0.00  0.00    +0.165 C 
ATOM     28  O   UNL     1       4.189  -0.794  -4.825  0.00  0.00    -0.370 OA
ATOM     29  C   UNL     1       3.656  -0.769  -3.501  0.00  0.00    +0.165 C 
ENDBRANCH  19  29
ENDBRANCH  15  19
ENDBRANCH   1  16
BRANCH  11  30
ATOM     30  C   UNL     1      11.326  -1.879   1.034  0.00  0.00    +0.075 C 
ATOM     31  C   UNL     1      11.145  -1.015   2.293  0.00  0.00    +0.013 C 
ATOM     32  C   UNL     1      12.036  -2.033   3.024  0.00  0.00    +0.001 C 
ATOM     33  C   UNL     1      12.647  -2.365   1.652  0.00  0.00    +0.013 C 
ENDBRANCH  11  30
TORSDOF 4
