REMARK  Name = ZINC39695764
REMARK  10 active torsions:
REMARK  status: ('A' for Active; 'I' for Inactive)
REMARK    1  A    between atoms: C_1  and  C_2
REMARK    2  A    between atoms: C_2  and  C_3
REMARK    3  A    between atoms: C_3  and  C_4
REMARK    4  A    between atoms: C_3  and  C_6
REMARK    5  A    between atoms: C_4  and  C_5
REMARK    6  A    between atoms: C_10  and  C_19
REMARK    7  A    between atoms: N_21  and  C_22
REMARK    8  A    between atoms: C_22  and  C_24
REMARK    9  A    between atoms: C_22  and  C_25
REMARK   10  A    between atoms: C_31  and  C_35
REMARK                            x       y       z     vdW  Elec       q    Type
REMARK                         _______ _______ _______ _____ _____    ______ ____
ROOT
ATOM      1  C   UNL     1       1.220  -2.028   1.296  0.00  0.00    +0.219 C 
ATOM      2  O   UNL     1       0.961  -2.810   2.186  0.00  0.00    -0.275 OA
ATOM      3  N   UNL     1       1.750  -2.474   0.139  0.00  0.00    -0.300 N 
ATOM      4  C   UNL     1       2.136  -1.677  -1.049  0.00  0.00    +0.121 C 
ATOM      5  C   UNL     1       3.449  -2.324  -1.543  0.00  0.00    +0.100 C 
ATOM      6  C   UNL     1       3.404  -3.764  -1.004  0.00  0.00    -0.004 C 
ATOM      7  C   UNL     1       2.083  -3.871  -0.229  0.00  0.00    +0.115 C 
ATOM      8  C   UNL     1       4.581  -4.015  -0.067  0.00  0.00    -0.010 C 
ATOM      9  C   UNL     1       4.546  -5.470   0.411  0.00  0.00    -0.082 C 
ATOM     10  N   UNL     1       4.617  -6.368  -0.747  0.00  0.00    +0.379 N 
ATOM     11  C   UNL     1       3.434  -6.186  -1.597  0.00  0.00    -0.082 C 
ATOM     12  C   UNL     1       3.422  -4.761  -2.159  0.00  0.00    -0.010 C 
ATOM     13  H   UNL     1       5.448  -6.162  -1.281  0.00  0.00    -0.086 HD
ATOM     14  H   UNL     1       4.656  -7.325  -0.427  0.00  0.00    -0.086 HD
ENDROOT
BRANCH   5  15
ATOM     15  C   UNL     1       3.500  -2.326  -3.049  0.00  0.00    +0.219 C 
ATOM     16  O   UNL     1       2.470  -2.307  -3.690  0.00  0.00    -0.275 OA
ATOM     17  N   UNL     1       4.689  -2.350  -3.683  0.00  0.00    -0.305 N 
ATOM     18  H   UNL     1       5.512  -2.365  -3.171  0.00  0.00    +0.149 HD
BRANCH  17  19
ATOM     19  C   UNL     1       4.738  -2.352  -5.148  0.00  0.00    +0.136 C 
ATOM     20  C   UNL     1       4.601  -3.787  -5.660  0.00  0.00    +0.036 C 
BRANCH  19  21
ATOM     21  C   UNL     1       6.053  -1.777  -5.607  0.00  0.00    +0.128 A 
ATOM     22  H   UNL     1       5.612  -1.072  -7.522  0.00  0.00    +0.167 HD
ATOM     23  N   UNL     1       7.150  -1.773  -4.907  0.00  0.00    -0.231 NA
ATOM     24  C   UNL     1       8.143  -1.179  -5.618  0.00  0.00    +0.089 A 
ATOM     25  C   UNL     1       9.489  -0.913  -5.356  0.00  0.00    +0.030 A 
ATOM     26  C   UNL     1      10.254  -0.283  -6.296  0.00  0.00    +0.005 A 
ATOM     27  C   UNL     1       9.708   0.098  -7.514  0.00  0.00    -0.048 A 
ATOM     28  C   UNL     1       8.382  -0.155  -7.794  0.00  0.00    +0.031 A 
ATOM     29  C   UNL     1       7.589  -0.794  -6.851  0.00  0.00    +0.067 A 
ATOM     30  N   UNL     1       6.267  -1.191  -6.816  0.00  0.00    -0.340 N 
ATOM     31  C   UNL     1      10.570   0.791  -8.537  0.00  0.00    +0.044 C 
ENDBRANCH  19  21
ENDBRANCH  17  19
ENDBRANCH   5  15
BRANCH   1  32
ATOM     32  C   UNL     1       0.951  -0.557   1.484  0.00  0.00    +0.075 C 
BRANCH  32  34
ATOM     33  C   UNL     1      -0.202   1.438   0.518  0.00  0.00    +0.004 C 
ATOM     34  C   UNL     1      -0.037  -0.080   0.417  0.00  0.00    +0.009 C 
ENDBRANCH  32  34
BRANCH  32  35
ATOM     35  C   UNL     1       0.354  -0.321   2.873  0.00  0.00    +0.009 C 
ATOM     36  C   UNL     1       1.403  -0.645   3.939  0.00  0.00    +0.004 C 
ENDBRANCH  32  35
ENDBRANCH   1  32
TORSDOF 6
