REMARK  Name = ZINC53113357
REMARK  7 active torsions:
REMARK  status: ('A' for Active; 'I' for Inactive)
REMARK    1  A    between atoms: C_1  and  C_2
REMARK    2  A    between atoms: C_7  and  C_9
REMARK    3  A    between atoms: C_7  and  N_11
REMARK    4  A    between atoms: C_9  and  O_10
REMARK    5  A    between atoms: N_11  and  S_12
REMARK    6  A    between atoms: S_12  and  C_15
REMARK    7  A    between atoms: C_18  and  N_22
REMARK                            x       y       z     vdW  Elec       q    Type
REMARK                         _______ _______ _______ _____ _____    ______ ____
ROOT
ATOM      1  S   UNL     1      -1.148  -3.728   1.965  0.00  0.00    +0.060 S 
ATOM      2  O   UNL     1      -0.389  -4.396   2.963  0.00  0.00    -0.153 OA
ATOM      3  O   UNL     1      -2.514  -3.385   2.149  0.00  0.00    -0.153 OA
ENDROOT
BRANCH   1   4
ATOM      4  C   UNL     1      -1.071  -4.730   0.518  0.00  0.00    +0.119 A 
ATOM      5  C   UNL     1      -0.301  -5.879   0.515  0.00  0.00    +0.031 A 
ATOM      6  C   UNL     1      -0.237  -6.667  -0.617  0.00  0.00    +0.025 A 
ATOM      7  C   UNL     1      -0.949  -6.305  -1.754  0.00  0.00    +0.026 A 
ATOM      8  C   UNL     1      -1.722  -5.152  -1.749  0.00  0.00    +0.040 A 
ATOM      9  C   UNL     1      -1.785  -4.370  -0.611  0.00  0.00    +0.046 A 
ATOM     10 BR   UNL     1      -2.843  -2.803  -0.599  0.00  0.00    -0.048 Br
BRANCH   7  11
ATOM     11  N   UNL     1      -0.887  -7.100  -2.901  0.00  0.00    -0.358 N 
ATOM     12  H   UNL     1      -0.346  -7.906  -2.904  0.00  0.00    +0.142 HD
ATOM     13  H   UNL     1      -1.384  -6.847  -3.695  0.00  0.00    +0.142 HD
ENDBRANCH   7  11
ENDBRANCH   1   4
BRANCH   1  14
ATOM     14  N   UNL     1      -0.348  -2.318   1.627  0.00  0.00    -0.182 NA
ATOM     15  H   UNL     1      -0.820  -1.471   1.662  0.00  0.00    +0.149 HD
BRANCH  14  21
ATOM     16  C   UNL     1       1.434   1.354   0.280  0.00  0.00    +0.007 C 
ATOM     17  C   UNL     1       0.874  -0.070   0.268  0.00  0.00    -0.012 C 
ATOM     18  C   UNL     1       1.040  -0.672  -1.129  0.00  0.00    +0.003 C 
ATOM     19  C   UNL     1       0.480  -2.096  -1.140  0.00  0.00    +0.002 C 
ATOM     20  C   UNL     1       1.240  -2.951  -0.123  0.00  0.00    +0.026 C 
ATOM     21  C   UNL     1       1.074  -2.349   1.274  0.00  0.00    +0.063 C 
ATOM     22  C   UNL     1       1.633  -0.925   1.285  0.00  0.00    +0.029 C 
BRANCH  21  23
ATOM     23  C   UNL     1       1.833  -3.203   2.291  0.00  0.00    +0.179 C 
BRANCH  23  24
ATOM     24  O   UNL     1       1.530  -4.583   2.074  0.00  0.00    -0.393 OA
ATOM     25  H   UNL     1       1.920  -5.178   2.729  0.00  0.00    +0.209 HD
ENDBRANCH  23  24
ENDBRANCH  21  23
ENDBRANCH  14  21
ENDBRANCH   1  14
TORSDOF 6
