REMARK  Name = ZINC36577184
REMARK  16 active torsions:
REMARK  status: ('A' for Active; 'I' for Inactive)
REMARK    1  A    between atoms: C_1  and  C_2
REMARK    2  A    between atoms: C_2  and  C_3
REMARK    3  A    between atoms: C_3  and  N_4
REMARK    4  A    between atoms: N_4  and  C_5
REMARK    5  A    between atoms: C_5  and  C_7
REMARK    6  A    between atoms: C_5  and  C_17
REMARK    7  A    between atoms: C_9  and  N_14
REMARK    8  A    between atoms: N_19  and  C_20
REMARK    9  A    between atoms: C_20  and  C_21
REMARK   10  A    between atoms: C_20  and  C_22
REMARK   11  A    between atoms: C_20  and  C_23
REMARK   12  A    between atoms: C_23  and  C_24
REMARK   13  A    between atoms: C_24  and  C_25
REMARK   14  A    between atoms: C_24  and  C_26
REMARK   15  A    between atoms: C_24  and  C_27
REMARK   16  A    between atoms: C_28  and  C_30
REMARK                            x       y       z     vdW  Elec       q    Type
REMARK                         _______ _______ _______ _____ _____    ______ ____
ROOT
ATOM      1  C   UNL     1      -0.614  -2.473  -1.544  0.00  0.00    +0.194 C 
ENDROOT
BRANCH   1   2
ATOM      2  C   UNL     1      -1.831  -1.701  -1.102  0.00  0.00    +0.002 A 
ATOM      3  C   UNL     1      -1.706  -0.384  -0.699  0.00  0.00    +0.040 A 
ATOM      4  C   UNL     1      -2.821   0.324  -0.293  0.00  0.00    +0.127 A 
ATOM      5  C   UNL     1      -4.063  -0.284  -0.291  0.00  0.00    +0.034 A 
ATOM      6  C   UNL     1      -4.190  -1.600  -0.695  0.00  0.00    +0.022 A 
ATOM      7  C   UNL     1      -3.074  -2.307  -1.106  0.00  0.00    +0.047 A 
ATOM      8 CL   UNL     1      -3.233  -3.958  -1.620  0.00  0.00    -0.083 Cl
BRANCH   4   9
ATOM      9  N   UNL     1      -2.687   1.733   0.139  0.00  0.00    +0.056 N 
ATOM     10  O   UNL     1      -1.618   2.292   0.051  0.00  0.00    -0.126 OA
ATOM     11  O   UNL     1      -3.644   2.324   0.579  0.00  0.00    -0.126 OA
ENDBRANCH   4   9
ENDBRANCH   1   2
BRANCH   1  12
ATOM     12  C   UNL     1      -0.436  -2.321  -3.032  0.00  0.00    +0.239 C 
ATOM     13  O   UNL     1       0.634  -1.970  -3.482  0.00  0.00    -0.273 OA
ATOM     14  N   UNL     1      -1.466  -2.576  -3.864  0.00  0.00    -0.308 N 
ATOM     15  H   UNL     1      -2.332  -2.821  -3.502  0.00  0.00    +0.149 HD
BRANCH  14  16
ATOM     16  C   UNL     1      -1.277  -2.484  -5.313  0.00  0.00    +0.030 C 
ATOM     17  C   UNL     1      -0.945  -1.039  -5.694  0.00  0.00    +0.031 C 
ATOM     18  C   UNL     1      -0.126  -3.400  -5.737  0.00  0.00    +0.031 C 
BRANCH  16  19
ATOM     19  C   UNL     1      -2.561  -2.916  -6.024  0.00  0.00    +0.031 C 
BRANCH  19  20
ATOM     20  C   UNL     1      -2.849  -4.385  -5.707  0.00  0.00    -0.036 C 
ATOM     21  C   UNL     1      -2.572  -4.652  -4.226  0.00  0.00    +0.010 C 
ATOM     22  C   UNL     1      -4.315  -4.695  -6.015  0.00  0.00    +0.010 C 
ATOM     23  C   UNL     1      -1.948  -5.278  -6.563  0.00  0.00    +0.010 C 
ENDBRANCH  19  20
ENDBRANCH  16  19
ENDBRANCH  14  16
ENDBRANCH   1  12
BRANCH   1  24
ATOM     24  N   UNL     1       0.570  -1.954  -0.855  0.00  0.00    -0.282 N 
ATOM     25  C   UNL     1       0.624  -1.961   0.492  0.00  0.00    +0.249 C 
ATOM     26  O   UNL     1       1.589  -1.495   1.065  0.00  0.00    -0.270 OA
BRANCH  25  27
ATOM     27  C   UNL     1      -0.492  -2.537   1.273  0.00  0.00    +0.055 A 
ATOM     28  C   UNL     1      -0.506  -2.442   2.670  0.00  0.00    +0.016 A 
ATOM     29  C   UNL     1      -1.574  -2.997   3.354  0.00  0.00    +0.020 A 
ATOM     30  C   UNL     1      -2.583  -3.622   2.643  0.00  0.00    +0.111 A 
ATOM     31  N   UNL     1      -2.542  -3.696   1.326  0.00  0.00    -0.263 NA
ATOM     32  C   UNL     1      -1.551  -3.179   0.630  0.00  0.00    +0.123 A 
ENDBRANCH  25  27
BRANCH  24  33
ATOM     33  C   UNL     1       1.696  -1.426  -1.629  0.00  0.00    +0.109 C 
BRANCH  33  35
ATOM     34  C   UNL     1       3.816  -2.027  -2.807  0.00  0.00    +0.005 C 
ATOM     35  C   UNL     1       2.583  -2.583  -2.093  0.00  0.00    +0.016 C 
ENDBRANCH  33  35
ENDBRANCH  24  33
ENDBRANCH   1  24
TORSDOF 10
