REMARK  Name = ZINC52226353
REMARK  5 active torsions:
REMARK  status: ('A' for Active; 'I' for Inactive)
REMARK    1  A    between atoms: C_1  and  C_2
REMARK    2  A    between atoms: C_10  and  C_13
REMARK    3  A    between atoms: C_13  and  N_14
REMARK    4  A    between atoms: C_16  and  C_19
REMARK    5  A    between atoms: C_19  and  C_20
REMARK                            x       y       z     vdW  Elec       q    Type
REMARK                         _______ _______ _______ _____ _____    ______ ____
ROOT
ATOM      1  C   UNL     1      -0.018   1.503   0.010  0.00  0.00    +0.046 C 
ATOM      2  C   UNL     1       0.002  -0.004   0.002  0.00  0.00    -0.021 A 
ATOM      3  C   UNL     1       0.006  -0.721  -1.209  0.00  0.00    +0.005 A 
ATOM      4  C   UNL     1      -0.008  -0.061  -2.449  0.00  0.00    +0.010 A 
ATOM      5  C   UNL     1      -0.003  -0.790  -3.599  0.00  0.00    +0.001 A 
ATOM      6  C   UNL     1       0.016  -2.183  -3.563  0.00  0.00    +0.002 A 
ATOM      7  C   UNL     1       0.029  -2.854  -2.379  0.00  0.00    +0.028 A 
ATOM      8  C   UNL     1       0.025  -2.137  -1.170  0.00  0.00    +0.072 A 
ATOM      9  N   UNL     1       0.040  -2.770   0.007  0.00  0.00    -0.248 NA
ATOM     10  C   UNL     1       0.036  -2.107   1.138  0.00  0.00    +0.082 A 
ATOM     11  C   UNL     1       0.023  -0.713   1.171  0.00  0.00    +0.068 A 
ATOM     12 CL   UNL     1       0.026   0.121   2.693  0.00  0.00    -0.081 Cl
ENDROOT
BRANCH  10  13
ATOM     13  C   UNL     1       0.052  -2.871   2.437  0.00  0.00    +0.202 C 
BRANCH  13  14
ATOM     14  N   UNL     1       1.438  -3.100   2.852  0.00  0.00    -0.246 N 
ATOM     15  C   UNL     1       1.975  -2.759   4.045  0.00  0.00    +0.134 A 
ATOM     16  C   UNL     1       3.269  -3.152   4.003  0.00  0.00    +0.084 A 
ATOM     17  N   UNL     1       3.458  -3.708   2.801  0.00  0.00    -0.134 NA
ATOM     18  N   UNL     1       2.353  -3.667   2.145  0.00  0.00    -0.065 NA
BRANCH  16  19
ATOM     19  C   UNL     1       4.296  -2.994   5.095  0.00  0.00    +0.074 C 
BRANCH  19  20
ATOM     20  C   UNL     1       4.905  -4.359   5.424  0.00  0.00    +0.115 C 
ATOM     21 CL   UNL     1       6.133  -4.170   6.730  0.00  0.00    -0.125 Cl
ENDBRANCH  19  20
ENDBRANCH  16  19
ENDBRANCH  13  14
ENDBRANCH  10  13
TORSDOF 4
