REMARK  Name = ZINC09144831
REMARK  9 active torsions:
REMARK  status: ('A' for Active; 'I' for Inactive)
REMARK    1  A    between atoms: C_1  and  C_2
REMARK    2  A    between atoms: C_2  and  C_3
REMARK    3  A    between atoms: C_3  and  N_4
REMARK    4  A    between atoms: N_7  and  C_28
REMARK    5  A    between atoms: C_8  and  N_13
REMARK    6  A    between atoms: C_10  and  C_11
REMARK    7  A    between atoms: C_10  and  C_12
REMARK    8  A    between atoms: N_13  and  O_27
REMARK    9  A    between atoms: N_16  and  C_17
REMARK                            x       y       z     vdW  Elec       q    Type
REMARK                         _______ _______ _______ _____ _____    ______ ____
ROOT
ATOM      1  N   UNL     1      -5.194  -3.085  -0.556  0.00  0.00    -0.276 N 
ATOM      2  C   UNL     1      -4.087  -2.878  -1.280  0.00  0.00    +0.311 C 
ATOM      3  O   UNL     1      -4.106  -2.685  -2.481  0.00  0.00    -0.252 OA
ATOM      4  N   UNL     1      -2.956  -2.905  -0.563  0.00  0.00    -0.231 N 
ATOM      5  C   UNL     1      -3.284  -3.161   0.848  0.00  0.00    +0.224 C 
ATOM      6  C   UNL     1      -4.821  -3.284   0.852  0.00  0.00    +0.071 C 
ATOM      7  C   UNL     1      -5.246  -4.674   1.329  0.00  0.00    +0.035 C 
ATOM      8  C   UNL     1      -5.444  -2.199   1.732  0.00  0.00    +0.035 C 
ENDROOT
BRANCH   4   9
ATOM      9  C   UNL     1      -1.669  -2.719  -1.073  0.00  0.00    +0.047 A 
ATOM     10  C   UNL     1      -0.792  -3.779  -1.150  0.00  0.00    +0.024 A 
ATOM     11  C   UNL     1       0.490  -3.606  -1.661  0.00  0.00    +0.002 A 
ATOM     12  C   UNL     1       0.918  -2.386  -2.089  0.00  0.00    +0.008 A 
ATOM     13  C   UNL     1       0.056  -1.278  -2.023  0.00  0.00    -0.016 A 
ATOM     14  C   UNL     1      -1.254  -1.443  -1.509  0.00  0.00    +0.004 A 
ATOM     15  C   UNL     1      -2.113  -0.335  -1.442  0.00  0.00    +0.010 A 
ATOM     16  C   UNL     1      -1.679   0.881  -1.872  0.00  0.00    +0.001 A 
ATOM     17  C   UNL     1      -0.391   1.045  -2.378  0.00  0.00    +0.001 A 
ATOM     18  C   UNL     1       0.469  -0.006  -2.457  0.00  0.00    +0.008 A 
ENDBRANCH   4   9
BRANCH   5  19
ATOM     19  N   UNL     1      -2.856  -2.039   1.687  0.00  0.00    -0.144 N 
ATOM     20  C   UNL     1      -3.353  -0.805   1.468  0.00  0.00    +0.331 C 
ATOM     21  O   UNL     1      -4.241  -0.643   0.653  0.00  0.00    -0.250 OA
ATOM     22  N   UNL     1      -2.865   0.248   2.151  0.00  0.00    -0.267 N 
ATOM     23  H   UNL     1      -2.103   0.134   2.741  0.00  0.00    +0.156 HD
BRANCH  22  24
ATOM     24  C   UNL     1      -3.456   1.506   2.011  0.00  0.00    +0.043 A 
ATOM     25  C   UNL     1      -4.766   1.616   1.601  0.00  0.00    +0.024 A 
ATOM     26  C   UNL     1      -5.367   2.864   1.463  0.00  0.00    +0.002 A 
ATOM     27  C   UNL     1      -4.676   4.008   1.724  0.00  0.00    +0.008 A 
ATOM     28  C   UNL     1      -3.336   3.940   2.139  0.00  0.00    -0.016 A 
ATOM     29  C   UNL     1      -2.714   2.675   2.284  0.00  0.00    +0.003 A 
ATOM     30  C   UNL     1      -1.375   2.608   2.700  0.00  0.00    +0.010 A 
ATOM     31  C   UNL     1      -0.692   3.757   2.959  0.00  0.00    +0.001 A 
ATOM     32  C   UNL     1      -1.302   5.002   2.817  0.00  0.00    +0.001 A 
ATOM     33  C   UNL     1      -2.599   5.105   2.416  0.00  0.00    +0.008 A 
ENDBRANCH  22  24
BRANCH  19  34
ATOM     34  O   UNL     1      -1.921  -2.251   2.729  0.00  0.00    -0.289 OA
ATOM     35  H   UNL     1      -1.680  -3.179   2.858  0.00  0.00    +0.242 HD
ENDBRANCH  19  34
ENDBRANCH   5  19
BRANCH   1  36
ATOM     36  C   UNL     1      -6.561  -3.108  -1.083  0.00  0.00    +0.110 C 
BRANCH  36  38
ATOM     37  C   UNL     1      -8.578  -1.722  -1.586  0.00  0.00    +0.005 C 
ATOM     38  C   UNL     1      -7.150  -1.697  -1.035  0.00  0.00    +0.016 C 
ENDBRANCH  36  38
ENDBRANCH   1  36
TORSDOF 6
