REMARK  Name = ZINC52881030
REMARK  6 active torsions:
REMARK  status: ('A' for Active; 'I' for Inactive)
REMARK    1  A    between atoms: C_1  and  C_2
REMARK    2  A    between atoms: C_5  and  N_9
REMARK    3  A    between atoms: C_10  and  C_12
REMARK    4  A    between atoms: C_12  and  C_13
REMARK    5  A    between atoms: C_12  and  C_14
REMARK    6  A    between atoms: C_12  and  N_20
REMARK                            x       y       z     vdW  Elec       q    Type
REMARK                         _______ _______ _______ _____ _____    ______ ____
ROOT
ATOM      1  N   UNL     1      -0.400  -4.311   0.196  0.00  0.00    -0.283 N 
ATOM      2  C   UNL     1      -0.373  -4.863  -1.033  0.00  0.00    +0.241 C 
ATOM      3  O   UNL     1      -0.540  -4.169  -2.014  0.00  0.00    -0.273 OA
ATOM      4  H   UNL     1      -0.201  -4.853   0.975  0.00  0.00    +0.155 HD
ENDROOT
BRANCH   1   9
ATOM      5  C   UNL     1      -1.679   1.183   0.810  0.00  0.00    +0.044 C 
ATOM      6  C   UNL     1      -1.340  -0.277   0.648  0.00  0.00    -0.049 A 
ATOM      7  C   UNL     1      -0.735  -0.719  -0.515  0.00  0.00    +0.005 A 
ATOM      8  C   UNL     1      -0.423  -2.055  -0.668  0.00  0.00    +0.024 A 
ATOM      9  C   UNL     1      -0.715  -2.956   0.348  0.00  0.00    +0.048 A 
ATOM     10  C   UNL     1      -1.322  -2.509   1.515  0.00  0.00    +0.039 A 
ATOM     11  C   UNL     1      -1.627  -1.169   1.663  0.00  0.00    +0.020 A 
ATOM     12 BR   UNL     1      -1.724  -3.731   2.901  0.00  0.00    -0.048 Br
ENDBRANCH   1   9
BRANCH   2  13
ATOM     13  C   UNL     1      -0.136  -6.343  -1.190  0.00  0.00    +0.117 C 
ATOM     14  C   UNL     1       1.368  -6.623  -1.171  0.00  0.00    +0.042 C 
BRANCH  13  15
ATOM     15  C   UNL     1      -0.717  -6.809  -2.500  0.00  0.00    -0.019 A 
ATOM     16  C   UNL     1      -1.841  -7.614  -2.510  0.00  0.00    +0.006 A 
ATOM     17  C   UNL     1      -2.374  -8.041  -3.712  0.00  0.00    +0.000 A 
ATOM     18  C   UNL     1      -1.783  -7.664  -4.903  0.00  0.00    +0.000 A 
ATOM     19  C   UNL     1      -0.660  -6.859  -4.893  0.00  0.00    +0.000 A 
ATOM     20  C   UNL     1      -0.129  -6.427  -3.692  0.00  0.00    +0.006 A 
ENDBRANCH  13  15
BRANCH  13  21
ATOM     21  N   UNL     1      -0.782  -7.062  -0.084  0.00  0.00    -0.314 NA
ATOM     22  H   UNL     1      -0.366  -6.815   0.801  0.00  0.00    +0.119 HD
ATOM     23  H   UNL     1      -1.777  -6.893  -0.075  0.00  0.00    +0.119 HD
ENDBRANCH  13  21
ENDBRANCH   2  13
TORSDOF 4
