REMARK  Name = ZINC35099809
REMARK  9 active torsions:
REMARK  status: ('A' for Active; 'I' for Inactive)
REMARK    1  A    between atoms: C_1  and  C_2
REMARK    2  A    between atoms: N_8  and  C_9
REMARK    3  A    between atoms: C_9  and  C_10
REMARK    4  A    between atoms: C_10  and  C_11
REMARK    5  A    between atoms: C_11  and  N_12
REMARK    6  A    between atoms: N_12  and  C_13
REMARK    7  A    between atoms: N_12  and  S_23
REMARK    8  A    between atoms: C_13  and  C_14
REMARK    9  A    between atoms: S_23  and  C_26
REMARK                            x       y       z     vdW  Elec       q    Type
REMARK                         _______ _______ _______ _____ _____    ______ ____
ROOT
ATOM      1  N   UNL     1       4.842  -0.112   3.791  0.00  0.00    -0.172 NA
ENDROOT
BRANCH   1   2
ATOM      2  S   UNL     1       4.812   0.905   5.098  0.00  0.00    +0.061 S 
ATOM      3  O   UNL     1       6.013   0.671   5.821  0.00  0.00    -0.153 OA
ATOM      4  O   UNL     1       4.457   2.189   4.606  0.00  0.00    -0.153 OA
BRANCH   2   5
ATOM      5  C   UNL     1       3.489   0.380   6.136  0.00  0.00    +0.106 A 
ATOM      6  C   UNL     1       2.221   0.899   5.955  0.00  0.00    +0.029 A 
ATOM      7  C   UNL     1       1.183   0.488   6.769  0.00  0.00    +0.017 A 
ATOM      8  C   UNL     1       1.413  -0.445   7.765  0.00  0.00    +0.018 A 
ATOM      9  C   UNL     1       2.682  -0.964   7.946  0.00  0.00    +0.017 A 
ATOM     10  C   UNL     1       3.718  -0.556   7.128  0.00  0.00    +0.029 A 
ATOM     11 BR   UNL     1      -0.008  -1.008   8.880  0.00  0.00    -0.050 Br
ENDBRANCH   2   5
ENDBRANCH   1   2
BRANCH   1  12
ATOM     12  C   UNL     1       4.173   0.276   2.547  0.00  0.00    +0.108 C 
BRANCH  12  13
ATOM     13  C   UNL     1       2.764  -0.321   2.518  0.00  0.00    -0.001 C 
BRANCH  13  14
ATOM     14  C   UNL     1       2.066   0.083   1.218  0.00  0.00    -0.077 C 
BRANCH  14  21
ATOM     15  C   UNL     1      -0.019   1.526   0.010  0.00  0.00    -0.013 C 
ATOM     16  C   UNL     1       0.002  -0.004   0.002  0.00  0.00    -0.072 C 
ATOM     17  C   UNL     1      -1.434  -0.533   0.011  0.00  0.00    -0.016 C 
ATOM     18  C   UNL     1      -1.408  -2.064   0.003  0.00  0.00    -0.003 C 
ATOM     19  C   UNL     1      -0.600  -2.558   1.206  0.00  0.00    -0.019 C 
ATOM     20  C   UNL     1       0.805  -1.954   1.152  0.00  0.00    -0.078 C 
ATOM     21  N   UNL     1       0.713  -0.490   1.191  0.00  0.00    +0.381 N 
ATOM     22  H   UNL     1       0.213  -0.206   2.020  0.00  0.00    -0.081 HD
ENDBRANCH  14  21
ENDBRANCH  13  14
ENDBRANCH  12  13
ENDBRANCH   1  12
BRANCH   1  23
ATOM     23  C   UNL     1       5.537  -1.398   3.879  0.00  0.00    +0.144 C 
BRANCH  23  24
ATOM     24  C   UNL     1       6.938  -1.250   3.342  0.00  0.00    -0.028 A 
ATOM     25  C   UNL     1       7.187  -1.463   1.999  0.00  0.00    +0.009 A 
ATOM     26  C   UNL     1       8.470  -1.328   1.501  0.00  0.00    +0.050 A 
ATOM     27  C   UNL     1       9.509  -0.980   2.348  0.00  0.00    +0.166 A 
ATOM     28  C   UNL     1       9.258  -0.765   3.701  0.00  0.00    +0.167 A 
ATOM     29  C   UNL     1       7.969  -0.897   4.192  0.00  0.00    +0.054 A 
ATOM     30  O   UNL     1      10.431  -0.437   4.316  0.00  0.00    -0.453 OA
ATOM     31  C   UNL     1      11.470  -0.851   3.409  0.00  0.00    +0.466 C 
ATOM     32  O   UNL     1      10.840  -0.786   2.115  0.00  0.00    -0.453 OA
ENDBRANCH  23  24
ENDBRANCH   1  23
TORSDOF 8
