REMARK  Name = ZINC55332853
REMARK  4 active torsions:
REMARK  status: ('A' for Active; 'I' for Inactive)
REMARK    1  A    between atoms: C_1  and  C_2
REMARK    2  A    between atoms: C_5  and  C_8
REMARK    3  A    between atoms: C_9  and  C_14
REMARK    4  A    between atoms: C_12  and  N_13
REMARK                            x       y       z     vdW  Elec       q    Type
REMARK                         _______ _______ _______ _____ _____    ______ ____
ROOT
ATOM      1  C   UNL     1       0.034  -4.255  -0.064  0.00  0.00    +0.071 A 
ATOM      2  C   UNL     1      -0.947  -5.145   0.561  0.00  0.00    +0.124 A 
ATOM      3  N   UNL     1      -0.529  -6.374   0.372  0.00  0.00    -0.075 NA
ATOM      4  O   UNL     1       0.685  -6.339  -0.350  0.00  0.00    -0.339 OA
ATOM      5  C   UNL     1       1.011  -5.063  -0.610  0.00  0.00    +0.224 A 
ENDROOT
BRANCH   2   6
ATOM      6  C   UNL     1      -2.180  -4.734   1.274  0.00  0.00    +0.018 A 
ATOM      7  C   UNL     1      -3.042  -3.801   0.700  0.00  0.00    +0.014 A 
ATOM      8  C   UNL     1      -4.188  -3.421   1.366  0.00  0.00    +0.039 A 
ATOM      9  C   UNL     1      -4.485  -3.966   2.606  0.00  0.00    +0.124 A 
ATOM     10  C   UNL     1      -3.632  -4.894   3.181  0.00  0.00    +0.054 A 
ATOM     11  C   UNL     1      -2.486  -5.285   2.519  0.00  0.00    +0.030 A 
ATOM     12 BR   UNL     1      -1.327  -6.558   3.301  0.00  0.00    -0.050 Br
ATOM     13  F   UNL     1      -5.609  -3.591   3.255  0.00  0.00    -0.205 F 
ENDBRANCH   2   6
BRANCH   1  18
ATOM     14  C   UNL     1      -0.160   1.497  -0.230  0.00  0.00    +0.044 C 
ATOM     15  C   UNL     1      -0.109  -0.009  -0.187  0.00  0.00    -0.050 A 
ATOM     16  C   UNL     1      -0.240  -0.737  -1.356  0.00  0.00    +0.004 A 
ATOM     17  C   UNL     1      -0.194  -2.115  -1.322  0.00  0.00    +0.009 A 
ATOM     18  C   UNL     1      -0.015  -2.775  -0.107  0.00  0.00    -0.011 A 
ATOM     19  C   UNL     1       0.117  -2.036   1.069  0.00  0.00    +0.009 A 
ATOM     20  C   UNL     1       0.075  -0.657   1.022  0.00  0.00    +0.004 A 
ENDBRANCH   1  18
BRANCH   5  21
ATOM     21  N   UNL     1       2.126  -4.636  -1.300  0.00  0.00    -0.327 N 
ATOM     22  H   UNL     1       2.278  -3.687  -1.437  0.00  0.00    +0.145 HD
ATOM     23  H   UNL     1       2.759  -5.283  -1.648  0.00  0.00    +0.145 HD
ENDBRANCH   5  21
TORSDOF 3
