REMARK  Name = ZINC40494642
REMARK  7 active torsions:
REMARK  status: ('A' for Active; 'I' for Inactive)
REMARK    1  A    between atoms: C_1  and  C_2
REMARK    2  A    between atoms: C_2  and  C_3
REMARK    3  A    between atoms: C_2  and  C_4
REMARK    4  A    between atoms: C_2  and  C_5
REMARK    5  A    between atoms: C_5  and  N_6
REMARK    6  A    between atoms: N_6  and  C_7
REMARK    7  A    between atoms: C_12  and  N_13
REMARK                            x       y       z     vdW  Elec       q    Type
REMARK                         _______ _______ _______ _____ _____    ______ ____
ROOT
ATOM      1  C   UNL     1       2.949  -0.311  -2.327  0.00  0.00    +0.050 A 
ATOM      2  C   UNL     1       2.496  -1.104  -3.370  0.00  0.00    +0.048 A 
ATOM      3  C   UNL     1       3.347  -1.420  -4.420  0.00  0.00    +0.038 A 
ATOM      4  C   UNL     1       4.651  -0.942  -4.426  0.00  0.00    -0.024 A 
ATOM      5  C   UNL     1       5.105  -0.152  -3.387  0.00  0.00    +0.030 A 
ATOM      6  C   UNL     1       4.258   0.171  -2.338  0.00  0.00    +0.046 A 
ATOM      7  C   UNL     1       5.571  -1.287  -5.569  0.00  0.00    +0.046 C 
ATOM      8  C   UNL     1       5.251  -2.694  -6.076  0.00  0.00    +0.101 C 
ATOM      9  C   UNL     1       3.768  -2.837  -6.291  0.00  0.00    +0.218 C 
ATOM     10  O   UNL     1       3.358  -3.515  -7.209  0.00  0.00    -0.275 OA
ATOM     11  N   UNL     1       2.892  -2.220  -5.476  0.00  0.00    -0.285 N 
ATOM     12  H   UNL     1       1.940  -2.331  -5.621  0.00  0.00    +0.155 HD
ENDROOT
BRANCH   6  13
ATOM     13  N   UNL     1       4.717   0.978  -1.287  0.00  0.00    -0.357 N 
ATOM     14  H   UNL     1       4.125   1.200  -0.552  0.00  0.00    +0.142 HD
ATOM     15  H   UNL     1       5.628   1.313  -1.296  0.00  0.00    +0.142 HD
ENDBRANCH   6  13
BRANCH   1  16
ATOM     16  N   UNL     1       2.093   0.010  -1.267  0.00  0.00    -0.342 N 
ATOM     17  H   UNL     1       2.409   0.568  -0.540  0.00  0.00    +0.146 HD
BRANCH  16  18
ATOM     18  C   UNL     1       0.718  -0.497  -1.257  0.00  0.00    +0.107 C 
BRANCH  18  20
ATOM     19  C   UNL     1      -0.019   1.526   0.010  0.00  0.00    +0.012 C 
ATOM     20  C   UNL     1       0.002  -0.004   0.002  0.00  0.00    -0.022 C 
ATOM     21  C   UNL     1       0.742  -0.511   1.242  0.00  0.00    +0.012 C 
ATOM     22  C   UNL     1      -1.433  -0.534   0.013  0.00  0.00    +0.012 C 
ENDBRANCH  18  20
ENDBRANCH  16  18
ENDBRANCH   1  16
TORSDOF 4
