REMARK  Name = ZINC32126862
REMARK  5 active torsions:
REMARK  status: ('A' for Active; 'I' for Inactive)
REMARK    1  A    between atoms: C_1  and  O_2
REMARK    2  A    between atoms: O_2  and  C_3
REMARK    3  A    between atoms: C_12  and  C_13
REMARK    4  A    between atoms: N_15  and  C_16
REMARK    5  A    between atoms: C_16  and  N_18
REMARK                            x       y       z     vdW  Elec       q    Type
REMARK                         _______ _______ _______ _____ _____    ______ ____
ROOT
ATOM      1  C   UNL     1      -3.720   2.069   0.049  0.00  0.00    +0.253 C 
ATOM      2  O   UNL     1      -4.758   1.436   0.056  0.00  0.00    -0.270 OA
ATOM      3  N   UNL     1      -3.754   3.417   0.056  0.00  0.00    -0.262 N 
ATOM      4  H   UNL     1      -2.815   3.990   0.050  0.00  0.00    +0.157 HD
ENDROOT
BRANCH   1  14
ATOM      5  C   UNL     1      -2.395  -0.047   0.026  0.00  0.00    +0.133 A 
ATOM      6  C   UNL     1      -1.208  -0.718   0.010  0.00  0.00    +0.055 A 
ATOM      7  C   UNL     1       0.002  -0.004   0.002  0.00  0.00    -0.014 A 
ATOM      8  C   UNL     1       1.238  -0.674  -0.013  0.00  0.00    +0.008 A 
ATOM      9  C   UNL     1       2.394   0.043  -0.021  0.00  0.00    +0.001 A 
ATOM     10  C   UNL     1       2.376   1.436  -0.013  0.00  0.00    +0.001 A 
ATOM     11  C   UNL     1       1.200   2.121   0.002  0.00  0.00    +0.008 A 
ATOM     12  C   UNL     1      -0.017   1.415   0.010  0.00  0.00    -0.017 A 
ATOM     13  C   UNL     1      -1.245   2.091   0.031  0.00  0.00    +0.025 A 
ATOM     14  C   UNL     1      -2.425   1.364   0.033  0.00  0.00    +0.079 A 
BRANCH   5  16
ATOM     15  C   UNL     1      -3.463  -2.169   0.025  0.00  0.00    +0.277 C 
ATOM     16  O   UNL     1      -3.560  -0.743   0.033  0.00  0.00    -0.494 OA
ENDBRANCH   5  16
ENDBRANCH   1  14
BRANCH   3  17
ATOM     17  C   UNL     1      -4.938   4.061   0.071  0.00  0.00    +0.163 C 
ATOM     18  S   UNL     1      -6.398   3.169   0.081  0.00  0.00    -0.016 S 
BRANCH  17  19
ATOM     19  N   UNL     1      -4.971   5.409   0.078  0.00  0.00    -0.169 NA
ATOM     20  C   UNL     1      -6.187   6.071   0.093  0.00  0.00    +0.163 A 
ATOM     21  N   UNL     1      -6.421   7.362   0.102  0.00  0.00    -0.334 N 
ATOM     22  C   UNL     1      -7.671   7.873   0.116  0.00  0.00    +0.075 A 
ATOM     23  C   UNL     1      -8.720   6.926   0.121  0.00  0.00    +0.040 A 
ATOM     24  S   UNL     1      -7.837   5.384   0.098  0.00  0.00    -0.052 S 
ATOM     25  C   UNL     1     -10.044   7.286   0.134  0.00  0.00    +0.019 A 
ATOM     26  C   UNL     1     -10.389   8.625   0.144  0.00  0.00    +0.022 A 
ATOM     27  C   UNL     1      -9.386   9.585   0.140  0.00  0.00    +0.061 A 
ATOM     28  C   UNL     1      -8.059   9.234   0.126  0.00  0.00    +0.084 A 
ATOM     29 CL   UNL     1      -6.843  10.473   0.122  0.00  0.00    -0.080 Cl
ATOM     30 CL   UNL     1      -9.819  11.266   0.152  0.00  0.00    -0.082 Cl
ATOM     31  H   UNL     1      -5.582   8.073   0.098  0.00  0.00    +0.168 HD
ENDBRANCH  17  19
ENDBRANCH   3  17
TORSDOF 4
