REMARK  Name = ZINC35867107
REMARK  5 active torsions:
REMARK  status: ('A' for Active; 'I' for Inactive)
REMARK    1  A    between atoms: C_1  and  C_2
REMARK    2  A    between atoms: C_2  and  C_3
REMARK    3  A    between atoms: C_3  and  C_4
REMARK    4  A    between atoms: C_4  and  C_5
REMARK    5  A    between atoms: N_26  and  C_27
REMARK                            x       y       z     vdW  Elec       q    Type
REMARK                         _______ _______ _______ _____ _____    ______ ____
ROOT
ATOM      1  C   UNL     1      -3.152  -3.305  -0.321  0.00  0.00    +0.132 A 
ATOM      2  N   UNL     1      -3.763  -3.492   0.836  0.00  0.00    -0.217 NA
ATOM      3  C   UNL     1      -4.664  -4.445   1.012  0.00  0.00    +0.133 A 
ATOM      4  C   UNL     1      -4.990  -5.298  -0.079  0.00  0.00    +0.051 A 
ATOM      5  C   UNL     1      -5.944  -6.409  -0.120  0.00  0.00    -0.025 A 
ATOM      6  C   UNL     1      -6.067  -7.065  -1.292  0.00  0.00    -0.004 A 
ATOM      7  S   UNL     1      -4.939  -6.257  -2.396  0.00  0.00    -0.073 S 
ATOM      8  C   UNL     1      -4.300  -5.037  -1.279  0.00  0.00    +0.114 A 
ATOM      9  N   UNL     1      -3.418  -4.060  -1.369  0.00  0.00    -0.225 NA
ATOM     10  C   UNL     1      -6.965  -8.226  -1.591  0.00  0.00    +0.043 C 
ATOM     11  C   UNL     1      -7.463  -8.809  -0.261  0.00  0.00    +0.005 C 
ATOM     12  C   UNL     1      -7.957  -7.661   0.624  0.00  0.00    +0.005 C 
ATOM     13  C   UNL     1      -6.769  -6.821   1.095  0.00  0.00    +0.037 C 
ATOM     14  N   UNL     1      -5.280  -4.609   2.239  0.00  0.00    -0.312 N 
ATOM     15  C   UNL     1      -4.763  -5.581   3.212  0.00  0.00    +0.125 C 
ATOM     16  C   UNL     1      -4.486  -4.852   4.533  0.00  0.00    +0.128 C 
ATOM     17  N   UNL     1      -5.670  -4.057   4.888  0.00  0.00    -0.282 N 
ATOM     18  C   UNL     1      -6.188  -3.085   3.914  0.00  0.00    +0.128 C 
ATOM     19  C   UNL     1      -6.461  -3.810   2.596  0.00  0.00    +0.125 C 
ATOM     20  C   UNL     1      -6.271  -4.217   6.083  0.00  0.00    +0.307 C 
ATOM     21  O   UNL     1      -7.305  -3.627   6.328  0.00  0.00    -0.252 OA
ATOM     22  N   UNL     1      -5.725  -5.032   7.008  0.00  0.00    -0.267 N 
ATOM     23  H   UNL     1      -4.859  -5.438   6.846  0.00  0.00    +0.156 HD
ENDROOT
BRANCH  22  24
ATOM     24  C   UNL     1      -6.408  -5.292   8.203  0.00  0.00    +0.072 A 
ATOM     25  C   UNL     1      -6.867  -4.239   8.986  0.00  0.00    +0.064 A 
ATOM     26  C   UNL     1      -7.541  -4.500  10.164  0.00  0.00    +0.022 A 
ATOM     27  C   UNL     1      -7.759  -5.805  10.565  0.00  0.00    +0.003 A 
ATOM     28  C   UNL     1      -7.303  -6.855   9.788  0.00  0.00    +0.022 A 
ATOM     29  C   UNL     1      -6.634  -6.602   8.605  0.00  0.00    +0.064 A 
ATOM     30 CL   UNL     1      -6.069  -7.920   7.627  0.00  0.00    -0.082 Cl
ATOM     31 CL   UNL     1      -6.593  -2.600   8.485  0.00  0.00    -0.082 Cl
ENDBRANCH  22  24
BRANCH   1  32
ATOM     32  C   UNL     1      -2.136  -2.200  -0.447  0.00  0.00    +0.076 C 
BRANCH  32  33
ATOM     33  C   UNL     1      -2.835  -0.911  -0.885  0.00  0.00    +0.007 C 
BRANCH  33  35
ATOM     34  C   UNL     1      -2.501   1.499  -1.452  0.00  0.00    +0.004 C 
ATOM     35  C   UNL     1      -1.802   0.210  -1.014  0.00  0.00    -0.003 C 
ENDBRANCH  33  35
ENDBRANCH  32  33
ENDBRANCH   1  32
TORSDOF 4
