REMARK  Name = ZINC58308539
REMARK  12 active torsions:
REMARK  status: ('A' for Active; 'I' for Inactive)
REMARK    1  A    between atoms: C_1  and  C_2
REMARK    2  A    between atoms: N_7  and  C_9
REMARK    3  A    between atoms: C_9  and  C_10
REMARK    4  A    between atoms: C_9  and  C_11
REMARK    5  A    between atoms: C_9  and  C_12
REMARK    6  A    between atoms: C_12  and  N_13
REMARK    7  A    between atoms: N_16  and  C_17
REMARK    8  A    between atoms: C_20  and  N_23
REMARK    9  A    between atoms: C_24  and  C_26
REMARK   10  A    between atoms: C_26  and  C_27
REMARK   11  A    between atoms: C_27  and  C_28
REMARK   12  A    between atoms: C_27  and  C_29
REMARK                            x       y       z     vdW  Elec       q    Type
REMARK                         _______ _______ _______ _____ _____    ______ ____
ROOT
ATOM      1  N   UNL     1       2.188  -4.447   1.099  0.00  0.00    -0.300 N 
ATOM      2  C   UNL     1       2.329  -5.770   0.883  0.00  0.00    +0.304 C 
ATOM      3  O   UNL     1       1.944  -6.567   1.717  0.00  0.00    -0.253 OA
ATOM      4  N   UNL     1       2.896  -6.210  -0.258  0.00  0.00    -0.269 N 
ATOM      5  H   UNL     1       2.495  -3.812   0.434  0.00  0.00    +0.150 HD
ATOM      6  H   UNL     1       3.143  -5.579  -0.952  0.00  0.00    +0.156 HD
ENDROOT
BRANCH   4   7
ATOM      7  C   UNL     1       3.131  -7.579  -0.441  0.00  0.00    +0.035 A 
ATOM      8  C   UNL     1       4.260  -8.004  -1.129  0.00  0.00    +0.025 A 
ATOM      9  C   UNL     1       4.491  -9.353  -1.310  0.00  0.00    +0.025 A 
ATOM     10  C   UNL     1       3.594 -10.285  -0.803  0.00  0.00    +0.033 A 
ATOM     11  C   UNL     1       2.466  -9.860  -0.114  0.00  0.00    +0.025 A 
ATOM     12  C   UNL     1       2.238  -8.511   0.071  0.00  0.00    +0.025 A 
BRANCH  10  13
ATOM     13  N   UNL     1       3.829 -11.654  -0.987  0.00  0.00    -0.285 N 
ATOM     14  C   UNL     1       5.090 -12.130  -0.974  0.00  0.00    +0.217 C 
ATOM     15  O   UNL     1       6.026 -11.363  -0.888  0.00  0.00    -0.275 OA
ATOM     16  H   UNL     1       3.083 -12.259  -1.123  0.00  0.00    +0.155 HD
BRANCH  14  17
ATOM     17  C   UNL     1       5.336 -13.613  -1.068  0.00  0.00    +0.099 C 
BRANCH  17  18
ATOM     18  C   UNL     1       6.842 -13.883  -1.032  0.00  0.00    -0.008 C 
ATOM     19  C   UNL     1       7.088 -15.393  -1.002  0.00  0.00    +0.008 C 
ATOM     20  C   UNL     1       7.497 -13.285  -2.279  0.00  0.00    +0.008 C 
ENDBRANCH  17  18
ENDBRANCH  14  17
ENDBRANCH  10  13
ENDBRANCH   4   7
BRANCH   1  21
ATOM     21  C   UNL     1       1.571  -3.969   2.339  0.00  0.00    +0.093 C 
BRANCH  21  22
ATOM     22  C   UNL     1       1.533  -2.440   2.333  0.00  0.00    -0.055 C 
ATOM     23  C   UNL     1       2.959  -1.894   2.230  0.00  0.00    -0.008 C 
ATOM     24  C   UNL     1       0.889  -1.940   3.628  0.00  0.00    -0.008 C 
BRANCH  22  30
ATOM     25  C   UNL     1      -0.062   1.515  -0.073  0.00  0.00    +0.005 C 
ATOM     26  C   UNL     1      -0.032  -0.015  -0.067  0.00  0.00    -0.031 C 
ATOM     27  C   UNL     1      -1.465  -0.554  -0.037  0.00  0.00    -0.001 C 
ATOM     28  C   UNL     1      -1.423  -2.083   0.048  0.00  0.00    -0.018 C 
ATOM     29  C   UNL     1      -0.621  -2.498   1.284  0.00  0.00    -0.078 C 
ATOM     30  N   UNL     1       0.746  -1.974   1.183  0.00  0.00    +0.384 N 
ATOM     31  C   UNL     1       0.719  -0.506   1.173  0.00  0.00    -0.075 C 
ATOM     32  H   UNL     1       1.171  -2.307   0.331  0.00  0.00    -0.081 HD
ENDBRANCH  22  30
ENDBRANCH  21  22
ENDBRANCH   1  21
TORSDOF 7
