REMARK  Name = ZINC02774666
REMARK  15 active torsions:
REMARK  status: ('A' for Active; 'I' for Inactive)
REMARK    1  A    between atoms: C_1  and  C_2
REMARK    2  A    between atoms: C_3  and  C_33
REMARK    3  A    between atoms: C_4  and  C_21
REMARK    4  A    between atoms: C_10  and  C_15
REMARK    5  A    between atoms: C_23  and  O_31
REMARK    6  A    between atoms: C_24  and  O_29
REMARK    7  A    between atoms: C_25  and  O_27
REMARK    8  A    between atoms: O_27  and  C_28
REMARK    9  A    between atoms: O_29  and  C_30
REMARK   10  A    between atoms: O_31  and  C_32
REMARK   11  A    between atoms: C_33  and  O_35
REMARK   12  A    between atoms: O_35  and  C_36
REMARK   13  A    between atoms: C_36  and  C_37
REMARK   14  A    between atoms: C_37  and  O_38
REMARK   15  A    between atoms: O_38  and  C_39
REMARK                            x       y       z     vdW  Elec       q    Type
REMARK                         _______ _______ _______ _____ _____    ______ ____
ROOT
ATOM      1  C   UNL     1      -1.342   5.083  -2.456  0.00  0.00    +0.061 C 
ATOM      2  C   UNL     1      -1.235   4.276  -1.187  0.00  0.00    +0.016 C 
ATOM      3  C   UNL     1      -1.440   2.948  -1.221  0.00  0.00    +0.065 C 
ATOM      4  C   UNL     1      -1.333   2.112   0.020  0.00  0.00    +0.092 C 
ATOM      5  C   UNL     1      -1.413   2.968   1.258  0.00  0.00    +0.024 C 
ATOM      6  C   UNL     1      -1.211   4.301   1.189  0.00  0.00    +0.016 C 
ATOM      7  N   UNL     1      -0.930   4.900  -0.010  0.00  0.00    -0.321 N 
ATOM      8  C   UNL     1      -1.292   5.165   2.423  0.00  0.00    +0.059 C 
ATOM      9  C   UNL     1      -0.863   4.354   3.648  0.00  0.00    +0.032 C 
ATOM     10  C   UNL     1      -1.776   3.128   3.763  0.00  0.00    +0.088 C 
ATOM     11  C   UNL     1      -1.701   2.341   2.483  0.00  0.00    +0.162 C 
ATOM     12  O   UNL     1      -1.892   1.141   2.509  0.00  0.00    -0.292 OA
ATOM     13  H   UNL     1      -0.455   5.892  -0.019  0.00  0.00    +0.152 HD
ENDROOT
BRANCH   9  14
ATOM     14  C   UNL     1      -0.994   5.200   4.888  0.00  0.00    -0.044 A 
ATOM     15  C   UNL     1      -2.220   5.738   5.231  0.00  0.00    +0.004 A 
ATOM     16  C   UNL     1      -2.341   6.511   6.371  0.00  0.00    +0.000 A 
ATOM     17  C   UNL     1      -1.234   6.755   7.161  0.00  0.00    +0.000 A 
ATOM     18  C   UNL     1      -0.006   6.222   6.815  0.00  0.00    +0.000 A 
ATOM     19  C   UNL     1       0.114   5.445   5.678  0.00  0.00    +0.004 A 
ENDBRANCH   9  14
BRANCH   4  20
ATOM     20  C   UNL     1      -0.017   1.378   0.010  0.00  0.00    -0.028 A 
ATOM     21  C   UNL     1       1.169   2.089   0.002  0.00  0.00    +0.054 A 
ATOM     22  C   UNL     1       2.382   1.418  -0.013  0.00  0.00    +0.165 A 
ATOM     23  C   UNL     1       2.405   0.028  -0.021  0.00  0.00    +0.204 A 
ATOM     24  C   UNL     1       1.211  -0.683  -0.014  0.00  0.00    +0.165 A 
ATOM     25  C   UNL     1       0.002  -0.004   0.002  0.00  0.00    +0.054 A 
BRANCH  24  26
ATOM     26  O   UNL     1       1.229  -2.043  -0.021  0.00  0.00    -0.491 OA
ATOM     27  C   UNL     1      -0.036  -2.708  -0.012  0.00  0.00    +0.277 C 
ENDBRANCH  24  26
BRANCH  23  28
ATOM     28  O   UNL     1       3.594  -0.634  -0.037  0.00  0.00    -0.488 OA
ATOM     29  C   UNL     1       4.148  -0.942  -1.318  0.00  0.00    +0.277 C 
ENDBRANCH  23  28
BRANCH  22  30
ATOM     30  O   UNL     1       3.548   2.119  -0.021  0.00  0.00    -0.491 OA
ATOM     31  C   UNL     1       3.448   3.544  -0.011  0.00  0.00    +0.277 C 
ENDBRANCH  22  30
ENDBRANCH   4  20
BRANCH   3  32
ATOM     32  C   UNL     1      -1.763   2.327  -2.450  0.00  0.00    +0.338 C 
ATOM     33  O   UNL     1      -1.853   2.995  -3.464  0.00  0.00    -0.245 OA
BRANCH  32  34
ATOM     34  O   UNL     1      -1.971   0.995  -2.499  0.00  0.00    -0.459 OA
BRANCH  34  35
ATOM     35  C   UNL     1      -2.293   0.435  -3.774  0.00  0.00    +0.260 C 
BRANCH  35  36
ATOM     36  C   UNL     1      -2.492  -1.076  -3.632  0.00  0.00    +0.200 C 
BRANCH  36  37
ATOM     37  O   UNL     1      -3.631  -1.331  -2.808  0.00  0.00    -0.380 OA
ATOM     38  C   UNL     1      -3.906  -2.719  -2.610  0.00  0.00    +0.194 C 
ENDBRANCH  36  37
ENDBRANCH  35  36
ENDBRANCH  34  35
ENDBRANCH  32  34
ENDBRANCH   3  32
TORSDOF 10
