REMARK  Name = ZINC34832076
REMARK  17 active torsions:
REMARK  status: ('A' for Active; 'I' for Inactive)
REMARK    1  A    between atoms: C_1  and  C_2
REMARK    2  A    between atoms: C_2  and  C_3
REMARK    3  A    between atoms: C_3  and  C_5
REMARK    4  A    between atoms: C_3  and  N_6
REMARK    5  A    between atoms: N_6  and  C_7
REMARK    6  A    between atoms: C_7  and  C_8
REMARK    7  A    between atoms: C_9  and  C_28
REMARK    8  A    between atoms: N_11  and  C_21
REMARK    9  A    between atoms: C_12  and  N_13
REMARK   10  A    between atoms: N_16  and  C_19
REMARK   11  A    between atoms: C_19  and  C_20
REMARK   12  A    between atoms: C_29  and  C_31
REMARK   13  A    between atoms: C_31  and  C_32
REMARK   14  A    between atoms: C_32  and  C_33
REMARK   15  A    between atoms: C_33  and  O_35
REMARK   16  A    between atoms: O_35  and  C_36
REMARK   17  A    between atoms: C_36  and  C_37
REMARK                            x       y       z     vdW  Elec       q    Type
REMARK                         _______ _______ _______ _____ _____    ______ ____
ROOT
ATOM      1  C   UNL     1       2.873   2.755  -2.157  0.00  0.00    +0.032 A 
ATOM      2  C   UNL     1       1.597   3.313  -2.042  0.00  0.00    +0.067 A 
ATOM      3  N   UNL     1       1.647   4.287  -1.169  0.00  0.00    -0.170 NA
ATOM      4  N   UNL     1       2.960   4.388  -0.693  0.00  0.00    -0.218 N 
ATOM      5  C   UNL     1       3.701   3.429  -1.312  0.00  0.00    +0.130 A 
ATOM      6  C   UNL     1       0.370   2.868  -2.795  0.00  0.00    +0.068 C 
ENDROOT
BRANCH   5   7
ATOM      7  N   UNL     1       5.058   3.184  -1.119  0.00  0.00    -0.318 N 
ATOM      8  C   UNL     1       6.062   3.711  -2.056  0.00  0.00    +0.088 C 
ATOM      9  C   UNL     1       7.148   4.431  -1.249  0.00  0.00    -0.060 C 
ATOM     10  N   UNL     1       7.687   3.518  -0.233  0.00  0.00    +0.382 N 
ATOM     11  C   UNL     1       6.639   3.172   0.736  0.00  0.00    -0.060 C 
ATOM     12  C   UNL     1       5.528   2.396   0.030  0.00  0.00    +0.088 C 
ATOM     13  H   UNL     1       8.020   2.677  -0.680  0.00  0.00    -0.082 HD
BRANCH  10  14
ATOM     14  C   UNL     1       8.802   4.170   0.467  0.00  0.00    -0.082 C 
ATOM     15  C   UNL     1       9.445   3.178   1.438  0.00  0.00    -0.017 C 
ENDBRANCH  10  14
ENDBRANCH   5   7
BRANCH   4  16
ATOM     16  C   UNL     1       3.427   5.309   0.255  0.00  0.00    +0.070 A 
ATOM     17  C   UNL     1       4.203   4.875   1.322  0.00  0.00    +0.028 A 
ATOM     18  C   UNL     1       4.662   5.784   2.255  0.00  0.00    +0.005 A 
ATOM     19  C   UNL     1       4.350   7.125   2.128  0.00  0.00    +0.038 A 
ATOM     20  C   UNL     1       3.576   7.561   1.066  0.00  0.00    +0.125 A 
ATOM     21  C   UNL     1       3.119   6.656   0.126  0.00  0.00    +0.066 A 
ATOM     22  F   UNL     1       3.273   8.872   0.945  0.00  0.00    -0.205 F 
ENDBRANCH   4  16
BRANCH   1  23
ATOM     23  C   UNL     1       3.262   1.607  -3.052  0.00  0.00    +0.148 C 
BRANCH  23  24
ATOM     24  N   UNL     1       3.648   0.457  -2.232  0.00  0.00    -0.294 N 
ATOM     25  C   UNL     1       4.952   0.179  -2.032  0.00  0.00    +0.217 C 
ATOM     26  O   UNL     1       5.805   0.910  -2.489  0.00  0.00    -0.276 OA
BRANCH  24  27
ATOM     27  C   UNL     1       2.618  -0.392  -1.628  0.00  0.00    +0.073 C 
ATOM     28  C   UNL     1       1.832   0.417  -0.594  0.00  0.00    +0.028 C 
BRANCH  27  30
ATOM     29  C   UNL     1       2.431  -1.783  -3.695  0.00  0.00    +0.005 C 
ATOM     30  C   UNL     1       1.665  -0.890  -2.717  0.00  0.00    +0.019 C 
ENDBRANCH  27  30
ENDBRANCH  24  27
BRANCH  25  31
ATOM     31  C   UNL     1       5.350  -1.040  -1.240  0.00  0.00    +0.107 C 
BRANCH  31  32
ATOM     32  C   UNL     1       6.871  -1.065  -1.073  0.00  0.00    +0.130 C 
BRANCH  32  33
ATOM     33  C   UNL     1       7.269  -2.284  -0.281  0.00  0.00    +0.308 C 
ATOM     34  O   UNL     1       6.424  -3.053   0.110  0.00  0.00    -0.251 OA
BRANCH  33  35
ATOM     35  O   UNL     1       8.563  -2.514  -0.009  0.00  0.00    -0.465 OA
BRANCH  35  36
ATOM     36  C   UNL     1       8.869  -3.689   0.745  0.00  0.00    +0.229 C 
ATOM     37  C   UNL     1      10.382  -3.782   0.954  0.00  0.00    +0.048 C 
ENDBRANCH  35  36
ENDBRANCH  33  35
ENDBRANCH  32  33
ENDBRANCH  31  32
ENDBRANCH  25  31
ENDBRANCH  23  24
ENDBRANCH   1  23
TORSDOF 12
