REMARK  Name = ZINC40794806
REMARK  7 active torsions:
REMARK  status: ('A' for Active; 'I' for Inactive)
REMARK    1  A    between atoms: C_1  and  C_2
REMARK    2  A    between atoms: C_5  and  S_8
REMARK    3  A    between atoms: S_8  and  N_11
REMARK    4  A    between atoms: N_11  and  N_12
REMARK    5  A    between atoms: C_14  and  N_27
REMARK    6  A    between atoms: C_15  and  N_19
REMARK    7  A    between atoms: N_19  and  C_20
REMARK                            x       y       z     vdW  Elec       q    Type
REMARK                         _______ _______ _______ _____ _____    ______ ____
ROOT
ATOM      1  N   UNL     1       2.248  -4.593   1.266  0.00  0.00    -0.244 N 
ATOM      2  C   UNL     1       2.970  -5.569   1.943  0.00  0.00    +0.159 A 
ATOM      3  C   UNL     1       3.928  -5.211   2.894  0.00  0.00    +0.107 A 
ATOM      4  C   UNL     1       4.624  -6.231   3.544  0.00  0.00    +0.149 A 
ATOM      5  N   UNL     1       4.350  -7.497   3.236  0.00  0.00    -0.219 NA
ATOM      6  C   UNL     1       3.438  -7.791   2.333  0.00  0.00    +0.225 A 
ATOM      7  N   UNL     1       2.754  -6.859   1.700  0.00  0.00    -0.218 NA
ATOM      8  H   UNL     1       2.412  -3.654   1.450  0.00  0.00    +0.169 HD
ENDROOT
BRANCH   3   9
ATOM      9  N   UNL     1       4.185  -3.862   3.187  0.00  0.00    -0.353 N 
ATOM     10  H   UNL     1       3.694  -3.163   2.726  0.00  0.00    +0.143 HD
ATOM     11  H   UNL     1       4.854  -3.628   3.849  0.00  0.00    +0.143 HD
ENDBRANCH   3   9
BRANCH   1  12
ATOM     12  N   UNL     1       1.285  -4.964   0.319  0.00  0.00    -0.109 NA
ATOM     13  H   UNL     1       1.529  -5.545  -0.419  0.00  0.00    +0.172 HD
BRANCH  12  14
ATOM     14  S   UNL     1      -0.270  -4.413   0.460  0.00  0.00    +0.074 S 
ATOM     15  O   UNL     1      -0.707  -4.757   1.767  0.00  0.00    -0.152 OA
ATOM     16  O   UNL     1      -0.958  -4.836  -0.710  0.00  0.00    -0.152 OA
BRANCH  14  21
ATOM     17  C   UNL     1      -0.055   1.613   0.247  0.00  0.00    +0.044 C 
ATOM     18  C   UNL     1      -0.108   0.108   0.300  0.00  0.00    -0.050 A 
ATOM     19  C   UNL     1      -0.253  -0.620  -0.866  0.00  0.00    +0.005 A 
ATOM     20  C   UNL     1      -0.302  -2.000  -0.818  0.00  0.00    +0.029 A 
ATOM     21  C   UNL     1      -0.206  -2.653   0.397  0.00  0.00    +0.107 A 
ATOM     22  C   UNL     1      -0.061  -1.925   1.563  0.00  0.00    +0.029 A 
ATOM     23  C   UNL     1      -0.007  -0.544   1.514  0.00  0.00    +0.005 A 
ENDBRANCH  14  21
ENDBRANCH  12  14
ENDBRANCH   1  12
BRANCH   4  24
ATOM     24  N   UNL     1       5.589  -5.929   4.499  0.00  0.00    -0.295 N 
ATOM     25  H   UNL     1       5.847  -5.007   4.654  0.00  0.00    +0.154 HD
BRANCH  24  26
ATOM     26  C   UNL     1       6.188  -6.956   5.236  0.00  0.00    +0.070 A 
ATOM     27  C   UNL     1       5.595  -8.213   5.308  0.00  0.00    +0.028 A 
ATOM     28  C   UNL     1       6.227  -9.198   6.050  0.00  0.00    +0.022 A 
ATOM     29  C   UNL     1       7.416  -8.904   6.690  0.00  0.00    +0.112 A 
ATOM     30  N   UNL     1       7.953  -7.702   6.603  0.00  0.00    -0.242 NA
ATOM     31  C   UNL     1       7.389  -6.738   5.903  0.00  0.00    +0.150 A 
ATOM     32 CL   UNL     1       8.148  -5.179   5.819  0.00  0.00    -0.060 Cl
ENDBRANCH  24  26
ENDBRANCH   4  24
TORSDOF 6
