REMARK  Name = ZINC32191874
REMARK  3 active torsions:
REMARK  status: ('A' for Active; 'I' for Inactive)
REMARK    1  A    between atoms: C_1  and  C_2
REMARK    2  A    between atoms: C_2  and  N_3
REMARK    3  A    between atoms: C_6  and  C_10
REMARK                            x       y       z     vdW  Elec       q    Type
REMARK                         _______ _______ _______ _____ _____    ______ ____
ROOT
ATOM      1  N   UNL     1       1.159   1.764   0.001  0.00  0.00    -0.342 N 
ATOM      2  C   UNL     1      -0.013   1.076   0.008  0.00  0.00    +0.087 A 
ATOM      3  C   UNL     1      -1.197   1.729   0.017  0.00  0.00    +0.021 A 
ATOM      4  C   UNL     1      -1.223   3.132   0.030  0.00  0.00    -0.047 A 
ATOM      5  C   UNL     1      -0.045   3.820   0.022  0.00  0.00    +0.037 A 
ATOM      6  C   UNL     1       1.166   3.111   0.008  0.00  0.00    +0.087 A 
ATOM      7  S   UNL     1       2.654   3.958  -0.002  0.00  0.00    -0.033 S 
ATOM      8  C   UNL     1      -2.537   3.870   0.046  0.00  0.00    +0.044 C 
ENDROOT
BRANCH   1  10
ATOM      9  C   UNL     1       2.981   1.004  -1.442  0.00  0.00    +0.027 C 
ATOM     10  C   UNL     1       2.428   1.033  -0.016  0.00  0.00    +0.119 C 
ENDBRANCH   1  10
TORSDOF 1
