REMARK  Name = ZINC21231643
REMARK  8 active torsions:
REMARK  status: ('A' for Active; 'I' for Inactive)
REMARK    1  A    between atoms: C_1  and  C_2
REMARK    2  A    between atoms: C_2  and  C_3
REMARK    3  A    between atoms: C_2  and  C_4
REMARK    4  A    between atoms: C_4  and  C_6
REMARK    5  A    between atoms: C_4  and  S_12
REMARK    6  A    between atoms: S_12  and  C_13
REMARK    7  A    between atoms: C_16  and  C_17
REMARK    8  A    between atoms: N_25  and  C_26
REMARK                            x       y       z     vdW  Elec       q    Type
REMARK                         _______ _______ _______ _____ _____    ______ ____
ROOT
ATOM      1  C   UNL     1      -4.231   6.342  -0.423  0.00  0.00    +0.169 C 
ATOM      2  N   UNL     1      -5.139   5.432  -0.181  0.00  0.00    -0.220 NA
ATOM      3  C   UNL     1      -6.376   6.010  -0.217  0.00  0.00    +0.129 C 
ATOM      4  C   UNL     1      -7.577   5.394  -0.016  0.00  0.00    +0.041 C 
ATOM      5  C   UNL     1      -6.148   7.437  -0.519  0.00  0.00    +0.275 C 
ATOM      6  O   UNL     1      -6.989   8.309  -0.640  0.00  0.00    -0.268 OA
ATOM      7  N   UNL     1      -4.808   7.572  -0.628  0.00  0.00    -0.214 N 
ENDROOT
BRANCH   7   8
ATOM      8  C   UNL     1      -4.122   8.764  -0.906  0.00  0.00    +0.044 A 
ATOM      9  C   UNL     1      -3.258   9.305   0.036  0.00  0.00    +0.027 A 
ATOM     10  C   UNL     1      -2.580  10.476  -0.241  0.00  0.00    +0.040 A 
ATOM     11  C   UNL     1      -2.770  11.116  -1.454  0.00  0.00    +0.124 A 
ATOM     12  C   UNL     1      -3.636  10.581  -2.393  0.00  0.00    +0.040 A 
ATOM     13  C   UNL     1      -4.312   9.407  -2.121  0.00  0.00    +0.027 A 
ATOM     14  F   UNL     1      -2.110  12.264  -1.722  0.00  0.00    -0.205 F 
ENDBRANCH   7   8
BRANCH   4  15
ATOM     15  C   UNL     1      -7.620   3.988   0.404  0.00  0.00    -0.023 A 
ATOM     16  C   UNL     1      -8.843   3.386   0.726  0.00  0.00    +0.008 A 
ATOM     17  C   UNL     1      -8.875   2.064   1.115  0.00  0.00    +0.001 A 
ATOM     18  C   UNL     1      -7.701   1.335   1.198  0.00  0.00    +0.000 A 
ATOM     19  C   UNL     1      -6.487   1.924   0.887  0.00  0.00    +0.001 A 
ATOM     20  C   UNL     1      -6.438   3.243   0.491  0.00  0.00    +0.008 A 
ENDBRANCH   4  15
BRANCH   1  21
ATOM     21  S   UNL     1      -2.497   6.032  -0.472  0.00  0.00    -0.077 S 
BRANCH  21  22
ATOM     22  C   UNL     1      -2.482   4.265  -0.082  0.00  0.00    +0.143 C 
BRANCH  22  23
ATOM     23  C   UNL     1      -2.963   3.483  -1.277  0.00  0.00    +0.234 C 
ATOM     24  O   UNL     1      -2.856   3.950  -2.390  0.00  0.00    -0.274 OA
ATOM     25  N   UNL     1      -3.513   2.264  -1.107  0.00  0.00    -0.239 N 
ATOM     26  C   UNL     1      -3.944   1.565  -2.176  0.00  0.00    +0.303 C 
ATOM     27  O   UNL     1      -3.841   2.035  -3.292  0.00  0.00    -0.253 OA
ATOM     28  N   UNL     1      -4.494   0.346  -2.006  0.00  0.00    -0.313 N 
ATOM     29  H   UNL     1      -3.611   1.840  -0.097  0.00  0.00    +0.159 HD
ATOM     30  H   UNL     1      -4.845  -0.225  -2.878  0.00  0.00    +0.146 HD
ATOM     31  H   UNL     1      -4.591  -0.078  -0.996  0.00  0.00    +0.146 HD
ENDBRANCH  22  23
BRANCH  22  33
ATOM     32  C   UNL     1      -0.580   4.604   1.502  0.00  0.00    +0.009 C 
ATOM     33  C   UNL     1      -1.058   3.833   0.271  0.00  0.00    +0.005 C 
ATOM     34  C   UNL     1      -1.039   2.332   0.570  0.00  0.00    +0.009 C 
ENDBRANCH  22  33
ENDBRANCH  21  22
ENDBRANCH   1  21
TORSDOF 6
