REMARK  Name = ZINC38596137
REMARK  12 active torsions:
REMARK  status: ('A' for Active; 'I' for Inactive)
REMARK    1  A    between atoms: C_1  and  C_2
REMARK    2  A    between atoms: C_2  and  C_3
REMARK    3  A    between atoms: C_3  and  C_4
REMARK    4  A    between atoms: C_7  and  S_10
REMARK    5  A    between atoms: S_10  and  N_13
REMARK    6  A    between atoms: N_13  and  C_14
REMARK    7  A    between atoms: C_14  and  C_16
REMARK    8  A    between atoms: C_14  and  C_17
REMARK    9  A    between atoms: C_17  and  C_19
REMARK   10  A    between atoms: C_17  and  N_24
REMARK   11  A    between atoms: N_27  and  C_30
REMARK   12  A    between atoms: C_30  and  C_31
REMARK                            x       y       z     vdW  Elec       q    Type
REMARK                         _______ _______ _______ _____ _____    ______ ____
ROOT
ATOM      1  C   UNL     1       2.514  -6.436   0.624  0.00  0.00    +0.112 C 
ENDROOT
BRANCH   1   2
ATOM      2  N   UNL     1       3.457  -6.218   1.730  0.00  0.00    -0.297 NA
ATOM      3  C   UNL     1       3.016  -5.106   2.585  0.00  0.00    +0.066 C 
ATOM      4  C   UNL     1       3.990  -4.950   3.755  0.00  0.00    -0.063 C 
ATOM      5  N   UNL     1       5.340  -4.688   3.238  0.00  0.00    +0.384 N 
ATOM      6  C   UNL     1       5.775  -5.817   2.406  0.00  0.00    -0.063 C 
ATOM      7  C   UNL     1       4.816  -5.981   1.224  0.00  0.00    +0.066 C 
ATOM      8  H   UNL     1       5.329  -3.846   2.682  0.00  0.00    -0.081 HD
BRANCH   5   9
ATOM      9  C   UNL     1       6.270  -4.520   4.362  0.00  0.00    -0.043 C 
BRANCH   9  10
ATOM     10  C   UNL     1       7.628  -4.130   3.836  0.00  0.00    -0.064 A 
ATOM     11  C   UNL     1       8.550  -5.107   3.511  0.00  0.00    +0.002 A 
ATOM     12  C   UNL     1       9.795  -4.750   3.029  0.00  0.00    +0.000 A 
ATOM     13  C   UNL     1      10.118  -3.415   2.870  0.00  0.00    +0.000 A 
ATOM     14  C   UNL     1       9.195  -2.438   3.194  0.00  0.00    +0.000 A 
ATOM     15  C   UNL     1       7.948  -2.796   3.672  0.00  0.00    +0.002 A 
ENDBRANCH   9  10
ENDBRANCH   5   9
ENDBRANCH   1   2
BRANCH   1  16
ATOM     16  C   UNL     1       2.577  -5.269  -0.327  0.00  0.00    +0.008 A 
ATOM     17  C   UNL     1       2.696  -5.274  -1.677  0.00  0.00    +0.013 A 
ATOM     18  C   UNL     1       2.733  -4.067  -2.352  0.00  0.00    +0.008 A 
ATOM     19  C   UNL     1       2.648  -2.916  -1.642  0.00  0.00    +0.045 A 
ATOM     20  S   UNL     1       2.505  -3.522   0.031  0.00  0.00    -0.100 S 
ENDBRANCH   1  16
BRANCH   1  21
ATOM     21  C   UNL     1       1.095  -6.565   1.181  0.00  0.00    +0.095 C 
ATOM     22  C   UNL     1       1.032  -7.750   2.147  0.00  0.00    +0.027 C 
BRANCH  21  23
ATOM     23  N   UNL     1       0.156  -6.783   0.078  0.00  0.00    -0.185 NA
ATOM     24  H   UNL     1       0.426  -7.306  -0.693  0.00  0.00    +0.148 HD
BRANCH  23  25
ATOM     25  S   UNL     1      -1.367  -6.136   0.148  0.00  0.00    +0.059 S 
ATOM     26  O   UNL     1      -1.894  -6.473   1.424  0.00  0.00    -0.153 OA
ATOM     27  O   UNL     1      -2.017  -6.496  -1.064  0.00  0.00    -0.153 OA
BRANCH  25  31
ATOM     28  C   UNL     1      -0.915  -1.632   0.084  0.00  0.00    -0.047 A 
ATOM     29  C   UNL     1      -1.042  -2.331  -1.102  0.00  0.00    +0.005 A 
ATOM     30  C   UNL     1      -1.180  -3.706  -1.083  0.00  0.00    +0.029 A 
ATOM     31  C   UNL     1      -1.190  -4.383   0.123  0.00  0.00    +0.105 A 
ATOM     32  C   UNL     1      -1.062  -3.684   1.309  0.00  0.00    +0.029 A 
ATOM     33  C   UNL     1      -0.920  -2.309   1.289  0.00  0.00    +0.005 A 
BRANCH  28  34
ATOM     34  C   UNL     1      -0.765  -0.133   0.063  0.00  0.00    +0.035 C 
BRANCH  34  36
ATOM     35  C   UNL     1       0.872   1.752  -0.041  0.00  0.00    +0.004 C 
ATOM     36  C   UNL     1       0.719   0.230  -0.020  0.00  0.00    +0.001 C 
ENDBRANCH  34  36
ENDBRANCH  28  34
ENDBRANCH  25  31
ENDBRANCH  23  25
ENDBRANCH  21  23
ENDBRANCH   1  21
TORSDOF 10
