REMARK  Name = ZINC13024434
REMARK  15 active torsions:
REMARK  status: ('A' for Active; 'I' for Inactive)
REMARK    1  A    between atoms: C_1  and  C_2
REMARK    2  A    between atoms: C_2  and  C_3
REMARK    3  A    between atoms: C_3  and  C_4
REMARK    4  A    between atoms: C_3  and  C_5
REMARK    5  A    between atoms: C_3  and  N_6
REMARK    6  A    between atoms: C_7  and  C_9
REMARK    7  A    between atoms: C_9  and  C_11
REMARK    8  A    between atoms: C_9  and  N_20
REMARK    9  A    between atoms: C_14  and  O_17
REMARK   10  A    between atoms: O_17  and  C_18
REMARK   11  A    between atoms: C_18  and  C_19
REMARK   12  A    between atoms: N_20  and  C_21
REMARK   13  A    between atoms: C_21  and  C_22
REMARK   14  A    between atoms: C_27  and  C_29
REMARK   15  A    between atoms: C_29  and  N_30
REMARK                            x       y       z     vdW  Elec       q    Type
REMARK                         _______ _______ _______ _____ _____    ______ ____
ROOT
ATOM      1  C   UNL     1      -2.816  -0.437   1.958  0.00  0.00    +0.193 C 
ENDROOT
BRANCH   1   2
ATOM      2  C   UNL     1      -1.826   0.482   1.290  0.00  0.00    -0.018 A 
ATOM      3  C   UNL     1      -2.273   1.588   0.592  0.00  0.00    +0.009 A 
ATOM      4  C   UNL     1      -1.367   2.436  -0.016  0.00  0.00    +0.046 A 
ATOM      5  C   UNL     1      -0.008   2.169   0.064  0.00  0.00    +0.121 A 
ATOM      6  C   UNL     1       0.438   1.055   0.760  0.00  0.00    +0.046 A 
ATOM      7  C   UNL     1      -0.472   0.214   1.372  0.00  0.00    +0.009 A 
BRANCH   5   8
ATOM      8  O   UNL     1       0.884   2.998  -0.539  0.00  0.00    -0.492 OA
BRANCH   8   9
ATOM      9  C   UNL     1       0.354   4.125  -1.238  0.00  0.00    +0.225 C 
ATOM     10  C   UNL     1       1.501   4.934  -1.846  0.00  0.00    +0.048 C 
ENDBRANCH   8   9
ENDBRANCH   5   8
ENDBRANCH   1   2
BRANCH   1  12
ATOM     11  N   UNL     1      -2.381  -2.872   1.920  0.00  0.00    -0.308 N 
ATOM     12  C   UNL     1      -2.807  -1.775   1.264  0.00  0.00    +0.239 C 
ATOM     13  O   UNL     1      -3.183  -1.864   0.114  0.00  0.00    -0.273 OA
ATOM     14  H   UNL     1      -2.079  -2.800   2.840  0.00  0.00    +0.149 HD
BRANCH  11  15
ATOM     15  C   UNL     1      -2.372  -4.172   1.245  0.00  0.00    +0.029 C 
ATOM     16  C   UNL     1      -3.794  -4.531   0.811  0.00  0.00    +0.031 C 
ATOM     17  C   UNL     1      -1.465  -4.102   0.015  0.00  0.00    +0.031 C 
BRANCH  15  19
ATOM     18  C   UNL     1      -1.837  -6.599   1.501  0.00  0.00    +0.006 C 
ATOM     19  C   UNL     1      -1.847  -5.241   2.205  0.00  0.00    +0.022 C 
ENDBRANCH  15  19
ENDBRANCH  11  15
ENDBRANCH   1  12
BRANCH   1  20
ATOM     20  N   UNL     1      -4.157   0.147   1.875  0.00  0.00    -0.280 N 
ATOM     21  C   UNL     1      -4.492   1.180   2.673  0.00  0.00    +0.238 C 
ATOM     22  O   UNL     1      -3.684   1.627   3.459  0.00  0.00    -0.274 OA
BRANCH  20  23
ATOM     23  C   UNL     1      -5.134  -0.393   0.925  0.00  0.00    +0.151 C 
BRANCH  23  24
ATOM     24  C   UNL     1      -4.905   0.220  -0.432  0.00  0.00    +0.007 A 
ATOM     25  C   UNL     1      -4.421  -0.358  -1.559  0.00  0.00    +0.013 A 
ATOM     26  C   UNL     1      -4.302   0.405  -2.705  0.00  0.00    +0.008 A 
ATOM     27  C   UNL     1      -4.667   1.710  -2.668  0.00  0.00    +0.045 A 
ATOM     28  S   UNL     1      -5.199   1.895  -0.974  0.00  0.00    -0.100 S 
ENDBRANCH  23  24
ENDBRANCH  20  23
BRANCH  21  29
ATOM     29  C   UNL     1      -5.872   1.781   2.588  0.00  0.00    +0.241 C 
BRANCH  29  30
ATOM     30  N   UNL     1      -5.986   2.880   3.549  0.00  0.00    -0.235 N 
ATOM     31  C   UNL     1      -6.410   2.792   4.854  0.00  0.00    +0.090 A 
ATOM     32  C   UNL     1      -6.829   1.742   5.665  0.00  0.00    +0.029 A 
ATOM     33  C   UNL     1      -7.188   1.987   6.960  0.00  0.00    +0.002 A 
ATOM     34  C   UNL     1      -7.134   3.275   7.478  0.00  0.00    +0.002 A 
ATOM     35  C   UNL     1      -6.721   4.320   6.705  0.00  0.00    +0.032 A 
ATOM     36  C   UNL     1      -6.347   4.096   5.373  0.00  0.00    +0.113 A 
ATOM     37  N   UNL     1      -5.908   4.908   4.390  0.00  0.00    -0.129 NA
ATOM     38  N   UNL     1      -5.689   4.232   3.318  0.00  0.00    -0.064 NA
ENDBRANCH  29  30
ENDBRANCH  21  29
ENDBRANCH   1  20
TORSDOF 11
