REMARK  Name = ZINC09382680
REMARK  10 active torsions:
REMARK  status: ('A' for Active; 'I' for Inactive)
REMARK    1  A    between atoms: C_1  and  C_2
REMARK    2  A    between atoms: C_2  and  C_4
REMARK    3  A    between atoms: C_2  and  N_24
REMARK    4  A    between atoms: C_4  and  C_6
REMARK    5  A    between atoms: C_4  and  N_61
REMARK    6  A    between atoms: N_13  and  C_16
REMARK    7  A    between atoms: C_19  and  O_22
REMARK    8  A    between atoms: O_22  and  C_23
REMARK    9  A    between atoms: N_24  and  S_25
REMARK   10  A    between atoms: S_25  and  C_28
REMARK                            x       y       z     vdW  Elec       q    Type
REMARK                         _______ _______ _______ _____ _____    ______ ____
ROOT
ATOM      1  C   UNL     1       2.615  -1.751   0.105  0.00  0.00    -0.012 C 
ENDROOT
BRANCH   1   7
ATOM      2  C   UNL     1       2.078  -2.352   2.389  0.00  0.00    -0.059 C 
ATOM      3  C   UNL     1       1.511  -3.466   3.272  0.00  0.00    +0.086 C 
ATOM      4  N   UNL     1       2.365  -4.657   3.161  0.00  0.00    -0.333 N 
ATOM      5  C   UNL     1       2.434  -5.125   1.770  0.00  0.00    +0.086 C 
ATOM      6  C   UNL     1       3.001  -4.010   0.887  0.00  0.00    -0.059 C 
ATOM      7  N   UNL     1       2.121  -2.827   0.990  0.00  0.00    +0.388 N 
ATOM      8  H   UNL     1       1.172  -3.090   0.698  0.00  0.00    -0.081 HD
BRANCH   4   9
ATOM      9  C   UNL     1       1.918  -5.675   4.011  0.00  0.00    +0.030 A 
ATOM     10  C   UNL     1       1.604  -6.925   3.493  0.00  0.00    +0.027 A 
ATOM     11  C   UNL     1       1.169  -7.931   4.333  0.00  0.00    +0.047 A 
ATOM     12  C   UNL     1       1.034  -7.689   5.693  0.00  0.00    +0.120 A 
ATOM     13  C   UNL     1       1.342  -6.440   6.210  0.00  0.00    +0.047 A 
ATOM     14  C   UNL     1       1.783  -5.435   5.372  0.00  0.00    +0.027 A 
BRANCH  12  15
ATOM     15  O   UNL     1       0.599  -8.679   6.519  0.00  0.00    -0.495 OA
ATOM     16  C   UNL     1       0.300  -9.940   5.918  0.00  0.00    +0.277 C 
ENDBRANCH  12  15
ENDBRANCH   4   9
ENDBRANCH   1   7
BRANCH   1  17
ATOM     17  C   UNL     1       1.700  -0.560   0.223  0.00  0.00    -0.022 A 
ATOM     18  C   UNL     1       2.010   0.759   0.215  0.00  0.00    +0.009 A 
ATOM     19  C   UNL     1       0.993   1.688   0.339  0.00  0.00    +0.008 A 
ATOM     20  C   UNL     1      -0.284   1.251   0.466  0.00  0.00    +0.045 A 
ATOM     21  S   UNL     1      -0.075  -0.521   0.411  0.00  0.00    -0.103 S 
ENDBRANCH   1  17
BRANCH   1  23
ATOM     22  C   UNL     1       1.208  -2.731  -1.711  0.00  0.00    +0.024 C 
ATOM     23  C   UNL     1       2.613  -2.255  -1.339  0.00  0.00    +0.065 C 
BRANCH  23  24
ATOM     24  N   UNL     1       3.014  -1.168  -2.236  0.00  0.00    -0.188 NA
ATOM     25  H   UNL     1       2.753  -0.255  -2.038  0.00  0.00    +0.148 HD
BRANCH  24  26
ATOM     26  S   UNL     1       3.912  -1.498  -3.588  0.00  0.00    +0.059 S 
ATOM     27  O   UNL     1       4.113  -0.260  -4.254  0.00  0.00    -0.153 OA
ATOM     28  O   UNL     1       4.992  -2.321  -3.167  0.00  0.00    -0.153 OA
BRANCH  26  29
ATOM     29  C   UNL     1       2.911  -2.486  -4.650  0.00  0.00    +0.105 A 
ATOM     30  C   UNL     1       2.946  -3.864  -4.547  0.00  0.00    +0.031 A 
ATOM     31  C   UNL     1       2.158  -4.639  -5.377  0.00  0.00    +0.040 A 
ATOM     32  C   UNL     1       1.341  -4.035  -6.318  0.00  0.00    +0.124 A 
ATOM     33  C   UNL     1       1.311  -2.655  -6.423  0.00  0.00    +0.040 A 
ATOM     34  C   UNL     1       2.096  -1.881  -5.589  0.00  0.00    +0.031 A 
ATOM     35  F   UNL     1       0.574  -4.792  -7.132  0.00  0.00    -0.205 F 
ENDBRANCH  26  29
ENDBRANCH  24  26
ENDBRANCH  23  24
ENDBRANCH   1  23
TORSDOF 8
