REMARK  Name = ZINC12742561
REMARK  5 active torsions:
REMARK  status: ('A' for Active; 'I' for Inactive)
REMARK    1  A    between atoms: C_5  and  C_7
REMARK    2  A    between atoms: C_7  and  C_8
REMARK    3  A    between atoms: C_14  and  C_16
REMARK    4  A    between atoms: C_16  and  N_17
REMARK    5  A    between atoms: C_18  and  C_20
REMARK                            x       y       z     vdW  Elec       q    Type
REMARK                         _______ _______ _______ _____ _____    ______ ____
ROOT
ATOM      1  C   UNL     1      -3.711   2.556   0.034  0.00  0.00    +0.015 A 
ATOM      2  C   UNL     1      -2.673   3.428   0.033  0.00  0.00    +0.124 A 
ATOM      3  N   UNL     1      -1.446   2.944   0.025  0.00  0.00    -0.233 NA
ATOM      4  C   UNL     1      -1.224   1.644   0.017  0.00  0.00    +0.165 A 
ATOM      5  S   UNL     1      -2.836   0.998   0.014  0.00  0.00    -0.057 S 
ATOM      6  N   UNL     1      -0.011   0.966   0.007  0.00  0.00    -0.263 N 
ATOM      7  C   UNL     1       1.147   1.655   0.000  0.00  0.00    +0.236 C 
ATOM      8  O   UNL     1       1.130   2.868   0.007  0.00  0.00    -0.274 OA
ATOM      9  H   UNL     1       0.002  -0.004   0.002  0.00  0.00    +0.157 HD
ENDROOT
BRANCH   1  10
ATOM     10  C   UNL     1      -5.194   2.826   0.043  0.00  0.00    +0.080 C 
BRANCH  10  15
ATOM     11  C   UNL     1      -6.789   1.932  -3.260  0.00  0.00    +0.000 A 
ATOM     12  C   UNL     1      -6.616   3.102  -3.977  0.00  0.00    +0.001 A 
ATOM     13  C   UNL     1      -5.983   4.182  -3.393  0.00  0.00    +0.015 A 
ATOM     14  C   UNL     1      -5.526   4.095  -2.090  0.00  0.00    +0.021 A 
ATOM     15  C   UNL     1      -5.695   2.923  -1.375  0.00  0.00    -0.029 A 
ATOM     16  C   UNL     1      -6.329   1.842  -1.960  0.00  0.00    +0.005 A 
ATOM     17 BR   UNL     1      -4.666   5.576  -1.288  0.00  0.00    -0.050 Br
ENDBRANCH  10  15
ENDBRANCH   1  10
BRANCH   7  18
ATOM     18  C   UNL     1       2.462   0.920  -0.017  0.00  0.00    +0.200 C 
BRANCH  18  19
ATOM     19  N   UNL     1       3.562   1.887  -0.022  0.00  0.00    -0.300 N 
ATOM     20  C   UNL     1       4.839   1.455  -0.036  0.00  0.00    +0.280 C 
ATOM     21  O   UNL     1       5.078   0.262  -0.045  0.00  0.00    -0.267 OA
ATOM     22  H   UNL     1       3.372   2.838  -0.015  0.00  0.00    +0.150 HD
BRANCH  20  23
ATOM     23  C   UNL     1       5.941   2.423  -0.042  0.00  0.00    +0.189 A 
ATOM     24  C   UNL     1       7.273   2.123  -0.056  0.00  0.00    +0.054 A 
ATOM     25  C   UNL     1       7.962   3.346  -0.057  0.00  0.00    +0.042 A 
ATOM     26  C   UNL     1       7.032   4.326  -0.043  0.00  0.00    +0.196 A 
ATOM     27  O   UNL     1       5.816   3.766  -0.039  0.00  0.00    -0.458 OA
ENDBRANCH  20  23
ENDBRANCH  18  19
ENDBRANCH   7  18
TORSDOF 5
