REMARK  Name = ZINC08868824
REMARK  11 active torsions:
REMARK  status: ('A' for Active; 'I' for Inactive)
REMARK    1  A    between atoms: C_1  and  C_2
REMARK    2  A    between atoms: C_5  and  S_8
REMARK    3  A    between atoms: S_8  and  N_11
REMARK    4  A    between atoms: C_15  and  C_17
REMARK    5  A    between atoms: N_19  and  C_20
REMARK    6  A    between atoms: C_20  and  C_21
REMARK    7  A    between atoms: C_21  and  N_64
REMARK    8  A    between atoms: C_22  and  N_64
REMARK    9  A    between atoms: C_23  and  N_64
REMARK   10  A    between atoms: C_27  and  O_33
REMARK   11  A    between atoms: O_33  and  C_34
REMARK                            x       y       z     vdW  Elec       q    Type
REMARK                         _______ _______ _______ _____ _____    ______ ____
ROOT
ATOM      1  C   UNL     1       4.334   5.027  -1.737  0.00  0.00    +0.240 C 
ATOM      2  O   UNL     1       4.923   4.995  -0.678  0.00  0.00    -0.273 OA
ATOM      3  N   UNL     1       4.283   6.173  -2.445  0.00  0.00    -0.251 N 
ATOM      4  C   UNL     1       4.989   7.285  -2.015  0.00  0.00    +0.168 A 
ATOM      5  N   UNL     1       5.753   7.417  -0.957  0.00  0.00    -0.221 NA
ATOM      6  C   UNL     1       6.386   8.572  -0.657  0.00  0.00    +0.122 A 
ATOM      7  C   UNL     1       7.234   8.845   0.446  0.00  0.00    +0.146 A 
ATOM      8  C   UNL     1       7.804  10.087   0.601  0.00  0.00    +0.048 A 
ATOM      9  C   UNL     1       7.571  11.109  -0.308  0.00  0.00    +0.005 A 
ATOM     10  C   UNL     1       6.749  10.875  -1.394  0.00  0.00    +0.017 A 
ATOM     11  C   UNL     1       6.175   9.637  -1.560  0.00  0.00    +0.044 A 
ATOM     12  S   UNL     1       5.096   8.904  -2.765  0.00  0.00    -0.052 S 
ENDROOT
BRANCH   1  17
ATOM     13  N   UNL     1       3.288   2.907  -1.142  0.00  0.00    -0.165 NA
ATOM     14  C   UNL     1       4.005   1.628  -1.289  0.00  0.00    +0.110 C 
ATOM     15  C   UNL     1       4.313   1.520  -2.805  0.00  0.00    +0.019 C 
ATOM     16  C   UNL     1       4.631   2.996  -3.162  0.00  0.00    +0.031 C 
ATOM     17  C   UNL     1       3.658   3.786  -2.261  0.00  0.00    +0.166 C 
BRANCH  13  18
ATOM     18  S   UNL     1       2.244   3.294   0.083  0.00  0.00    +0.062 S 
ATOM     19  O   UNL     1       2.231   4.712   0.174  0.00  0.00    -0.153 OA
ATOM     20  O   UNL     1       2.585   2.463   1.185  0.00  0.00    -0.153 OA
BRANCH  18  25
ATOM     21  C   UNL     1      -3.279   1.628  -1.685  0.00  0.00    +0.044 C 
ATOM     22  C   UNL     1      -1.900   2.044  -1.244  0.00  0.00    -0.050 A 
ATOM     23  C   UNL     1      -1.438   3.316  -1.525  0.00  0.00    +0.005 A 
ATOM     24  C   UNL     1      -0.173   3.698  -1.119  0.00  0.00    +0.029 A 
ATOM     25  C   UNL     1       0.631   2.807  -0.433  0.00  0.00    +0.106 A 
ATOM     26  C   UNL     1       0.169   1.536  -0.150  0.00  0.00    +0.029 A 
ATOM     27  C   UNL     1      -1.096   1.154  -0.556  0.00  0.00    +0.005 A 
ENDBRANCH  18  25
ENDBRANCH  13  18
ENDBRANCH   1  17
BRANCH   7  28
ATOM     28  O   UNL     1       7.486   7.870   1.359  0.00  0.00    -0.493 OA
ATOM     29  C   UNL     1       8.348   8.208   2.448  0.00  0.00    +0.277 C 
ENDBRANCH   7  28
BRANCH   3  30
ATOM     30  C   UNL     1       3.482   6.242  -3.670  0.00  0.00    +0.097 C 
BRANCH  30  31
ATOM     31  C   UNL     1       2.050   6.651  -3.320  0.00  0.00    -0.060 C 
BRANCH  31  34
ATOM     32  C   UNL     1      -0.180   6.876  -4.236  0.00  0.00    -0.097 C 
ATOM     33  C   UNL     1       1.715   7.803  -5.423  0.00  0.00    -0.097 C 
ATOM     34  N   UNL     1       1.250   6.695  -4.562  0.00  0.00    +0.377 N 
ATOM     35  H   UNL     1       1.367   5.809  -5.066  0.00  0.00    -0.083 HD
ENDBRANCH  31  34
ENDBRANCH  30  31
ENDBRANCH   3  30
TORSDOF 7
