REMARK  Name = ZINC30979173
REMARK  8 active torsions:
REMARK  status: ('A' for Active; 'I' for Inactive)
REMARK    1  A    between atoms: C_4  and  S_7
REMARK    2  A    between atoms: S_7  and  C_8
REMARK    3  A    between atoms: C_8  and  C_9
REMARK    4  A    between atoms: C_9  and  N_10
REMARK    5  A    between atoms: C_11  and  C_13
REMARK    6  A    between atoms: N_16  and  C_19
REMARK    7  A    between atoms: C_19  and  C_20
REMARK    8  A    between atoms: C_22  and  C_25
REMARK                            x       y       z     vdW  Elec       q    Type
REMARK                         _______ _______ _______ _____ _____    ______ ____
ROOT
ATOM      1  C   UNL     1      -0.997   1.758  -3.630  0.00  0.00    +0.071 C 
ATOM      2  C   UNL     1      -2.431   1.222  -3.624  0.00  0.00    -0.006 C 
ATOM      3  C   UNL     1      -3.147   1.682  -4.896  0.00  0.00    -0.077 C 
ATOM      4  N   UNL     1      -2.425   1.184  -6.074  0.00  0.00    +0.386 N 
ATOM      5  C   UNL     1      -1.060   1.723  -6.126  0.00  0.00    -0.077 C 
ATOM      6  C   UNL     1      -0.281   1.264  -4.891  0.00  0.00    -0.006 C 
ATOM      7  H   UNL     1      -2.350   0.090  -5.984  0.00  0.00    -0.081 HD
ENDROOT
BRANCH   1   9
ATOM      8  N   UNL     1      -0.721   1.571  -1.179  0.00  0.00    -0.314 N 
ATOM      9  C   UNL     1      -0.268   1.258  -2.409  0.00  0.00    +0.216 C 
ATOM     10  O   UNL     1       0.726   0.575  -2.534  0.00  0.00    -0.276 OA
ATOM     11  H   UNL     1      -1.623   2.191  -1.066  0.00  0.00    +0.149 HD
BRANCH   8  12
ATOM     12  C   UNL     1      -0.013   1.086   0.008  0.00  0.00    +0.115 C 
BRANCH  12  13
ATOM     13  C   UNL     1      -0.729   1.579   1.267  0.00  0.00    +0.093 C 
BRANCH  13  14
ATOM     14  S   UNL     1       0.148   0.978   2.736  0.00  0.00    -0.124 S 
BRANCH  14  18
ATOM     15  C   UNL     1      -2.255   2.633   6.200  0.00  0.00    +0.000 A 
ATOM     16  C   UNL     1      -1.133   1.863   6.445  0.00  0.00    +0.001 A 
ATOM     17  C   UNL     1      -0.398   1.357   5.391  0.00  0.00    +0.015 A 
ATOM     18  C   UNL     1      -0.786   1.622   4.084  0.00  0.00    +0.008 A 
ATOM     19  C   UNL     1      -1.911   2.401   3.842  0.00  0.00    +0.015 A 
ATOM     20  C   UNL     1      -2.645   2.899   4.901  0.00  0.00    +0.001 A 
ENDBRANCH  14  18
ENDBRANCH  13  14
ENDBRANCH  12  13
ENDBRANCH   8  12
ENDBRANCH   1   9
BRANCH   4  21
ATOM     21  C   UNL     1      -3.158   1.488  -7.309  0.00  0.00    +0.022 C 
BRANCH  21  22
ATOM     22  C   UNL     1      -4.455   0.720  -7.326  0.00  0.00    +0.211 A 
ATOM     23  N   UNL     1      -5.606   1.125  -6.851  0.00  0.00    -0.193 NA
ATOM     24  C   UNL     1      -6.472   0.114  -7.087  0.00  0.00    +0.202 A 
ATOM     25  N   UNL     1      -5.803  -0.836  -7.685  0.00  0.00    -0.056 NA
ATOM     26  O   UNL     1      -4.647  -0.502  -7.834  0.00  0.00    -0.340 OA
BRANCH  24  27
ATOM     27  C   UNL     1      -7.913   0.088  -6.732  0.00  0.00    +0.023 A 
ATOM     28  C   UNL     1      -8.494   1.178  -6.086  0.00  0.00    +0.013 A 
ATOM     29  C   UNL     1      -9.835   1.151  -5.763  0.00  0.00    +0.016 A 
ATOM     30  C   UNL     1     -10.601   0.040  -6.070  0.00  0.00    +0.018 A 
ATOM     31  C   UNL     1     -10.028  -1.047  -6.707  0.00  0.00    +0.016 A 
ATOM     32  C   UNL     1      -8.688  -1.028  -7.039  0.00  0.00    +0.013 A 
ATOM     33 BR   UNL     1     -12.437   0.007  -5.618  0.00  0.00    -0.050 Br
ENDBRANCH  24  27
ENDBRANCH  21  22
ENDBRANCH   4  21
TORSDOF 8
