REMARK  Name = ZINC09272496
REMARK  4 active torsions:
REMARK  status: ('A' for Active; 'I' for Inactive)
REMARK    1  A    between atoms: C_9  and  C_12
REMARK    2  A    between atoms: N_14  and  N_15
REMARK    3  A    between atoms: C_16  and  C_17
REMARK    4  A    between atoms: C_22  and  O_23
REMARK                            x       y       z     vdW  Elec       q    Type
REMARK                         _______ _______ _______ _____ _____    ______ ____
ROOT
ATOM      1  C   UNL     1       4.531  -3.137   0.968  0.00  0.00    +0.276 C 
ATOM      2  O   UNL     1       5.395  -2.351   1.295  0.00  0.00    -0.270 OA
ATOM      3  N   UNL     1       4.870  -4.336   0.454  0.00  0.00    -0.204 N 
ATOM      4  H   UNL     1       4.179  -4.965   0.193  0.00  0.00    +0.177 HD
ENDROOT
BRANCH   1  13
ATOM      5  C   UNL     1      -0.706  -0.233   3.073  0.00  0.00    +0.004 A 
ATOM      6  C   UNL     1       0.242   0.709   2.718  0.00  0.00    +0.004 A 
ATOM      7  C   UNL     1       1.470   0.305   2.229  0.00  0.00    +0.049 A 
ATOM      8  C   UNL     1       1.754  -1.045   2.092  0.00  0.00    +0.163 A 
ATOM      9  C   UNL     1       0.799  -1.991   2.446  0.00  0.00    +0.162 A 
ATOM     10  C   UNL     1      -0.430  -1.580   2.938  0.00  0.00    +0.049 A 
ATOM     11  O   UNL     1       1.054  -3.322   2.312  0.00  0.00    -0.484 OA
ATOM     12  C   UNL     1       2.427  -3.703   2.168  0.00  0.00    +0.283 C 
ATOM     13  C   UNL     1       3.078  -2.773   1.135  0.00  0.00    +0.297 C 
ATOM     14  O   UNL     1       2.969  -1.427   1.612  0.00  0.00    -0.472 OA
ENDBRANCH   1  13
BRANCH   3  15
ATOM     15  N   UNL     1       6.221  -4.675   0.299  0.00  0.00    -0.187 NA
ATOM     16  C   UNL     1       6.548  -5.783  -0.293  0.00  0.00    +0.142 C 
BRANCH  16  17
ATOM     17  C   UNL     1       5.528  -6.556  -1.024  0.00  0.00    +0.038 A 
ATOM     18  C   UNL     1       4.404  -5.916  -1.550  0.00  0.00    +0.028 A 
ATOM     19  C   UNL     1       3.453  -6.646  -2.233  0.00  0.00    +0.020 A 
ATOM     20  C   UNL     1       3.609  -8.012  -2.401  0.00  0.00    +0.034 A 
ATOM     21  C   UNL     1       4.718  -8.657  -1.886  0.00  0.00    +0.061 A 
ATOM     22  C   UNL     1       5.685  -7.938  -1.201  0.00  0.00    +0.139 A 
ATOM     23 BR   UNL     1       4.920 -10.522  -2.122  0.00  0.00    -0.046 Br
ATOM     24 BR   UNL     1       1.931  -5.778  -2.943  0.00  0.00    -0.050 Br
BRANCH  22  25
ATOM     25  O   UNL     1       6.778  -8.569  -0.700  0.00  0.00    -0.505 OA
ATOM     26  H   UNL     1       6.690  -8.831   0.227  0.00  0.00    +0.292 HD
ENDBRANCH  22  25
ENDBRANCH  16  17
ENDBRANCH   3  15
TORSDOF 4
