REMARK  Name = ZINC53517382
REMARK  8 active torsions:
REMARK  status: ('A' for Active; 'I' for Inactive)
REMARK    1  A    between atoms: C_1  and  C_2
REMARK    2  A    between atoms: C_2  and  C_3
REMARK    3  A    between atoms: C_6  and  C_9
REMARK    4  A    between atoms: C_9  and  C_11
REMARK    5  A    between atoms: C_9  and  N_16
REMARK    6  A    between atoms: N_16  and  C_17
REMARK    7  A    between atoms: C_17  and  C_18
REMARK    8  A    between atoms: N_20  and  C_21
REMARK                            x       y       z     vdW  Elec       q    Type
REMARK                         _______ _______ _______ _____ _____    ______ ____
ROOT
ATOM      1  C   UNL     1       4.000  -3.775  -5.498  0.00  0.00    +0.178 C 
ENDROOT
BRANCH   1   2
ATOM      2  C   UNL     1       5.049  -4.773  -5.082  0.00  0.00    +0.231 C 
ATOM      3  O   UNL     1       5.517  -4.731  -3.963  0.00  0.00    -0.274 OA
ATOM      4  N   UNL     1       5.468  -5.713  -5.952  0.00  0.00    -0.284 N 
ATOM      5  H   UNL     1       5.047  -5.790  -6.823  0.00  0.00    +0.155 HD
BRANCH   4   6
ATOM      6  C   UNL     1       6.510  -6.580  -5.599  0.00  0.00    +0.035 A 
ATOM      7  C   UNL     1       7.420  -6.999  -6.563  0.00  0.00    +0.025 A 
ATOM      8  C   UNL     1       8.450  -7.853  -6.222  0.00  0.00    +0.029 A 
ATOM      9  C   UNL     1       8.578  -8.295  -4.914  0.00  0.00    +0.067 A 
ATOM     10  C   UNL     1       7.665  -7.875  -3.943  0.00  0.00    +0.069 A 
ATOM     11  C   UNL     1       6.636  -7.013  -4.288  0.00  0.00    +0.051 A 
ATOM     12  N   UNL     1       8.047  -8.476  -2.746  0.00  0.00    -0.306 N 
ATOM     13  H   UNL     1       7.601  -8.371  -1.891  0.00  0.00    +0.170 HD
ATOM     14  C   UNL     1       9.141  -9.226  -2.976  0.00  0.00    +0.325 A 
ATOM     15  O   UNL     1       9.729  -9.883  -2.138  0.00  0.00    -0.247 OA
ATOM     16  N   UNL     1       9.486  -9.138  -4.274  0.00  0.00    -0.306 N 
ATOM     17  H   UNL     1      10.238  -9.584  -4.694  0.00  0.00    +0.170 HD
ENDBRANCH   4   6
ENDBRANCH   1   2
BRANCH   1  18
ATOM     18  N   UNL     1       3.719  -2.865  -4.379  0.00  0.00    -0.297 NA
ATOM     19  H   UNL     1       4.563  -2.412  -4.060  0.00  0.00    +0.123 HD
BRANCH  18  20
ATOM     20  C   UNL     1       2.699  -1.875  -4.749  0.00  0.00    +0.122 C 
BRANCH  20  24
ATOM     21  C   UNL     1       0.715  -0.492  -1.228  0.00  0.00    -0.048 A 
ATOM     22  C   UNL     1      -0.009  -0.728  -2.382  0.00  0.00    +0.004 A 
ATOM     23  C   UNL     1       0.633  -1.175  -3.522  0.00  0.00    +0.006 A 
ATOM     24  C   UNL     1       1.999  -1.386  -3.507  0.00  0.00    -0.026 A 
ATOM     25  C   UNL     1       2.723  -1.150  -2.354  0.00  0.00    +0.006 A 
ATOM     26  C   UNL     1       2.081  -0.699  -1.215  0.00  0.00    +0.004 A 
BRANCH  21  28
ATOM     27  C   UNL     1      -0.012   1.525   0.017  0.00  0.00    +0.009 C 
ATOM     28  C   UNL     1       0.015  -0.005   0.014  0.00  0.00    +0.032 C 
ENDBRANCH  21  28
ENDBRANCH  20  24
BRANCH  20  29
ATOM     29  C   UNL     1       3.357  -0.712  -5.446  0.00  0.00    +0.011 A 
ATOM     30  C   UNL     1       2.924  -0.002  -6.517  0.00  0.00    +0.013 A 
ATOM     31  C   UNL     1       3.702   1.038  -6.991  0.00  0.00    +0.008 A 
ATOM     32  C   UNL     1       4.874   1.317  -6.370  0.00  0.00    +0.045 A 
ATOM     33  S   UNL     1       4.904   0.095  -5.069  0.00  0.00    -0.100 S 
ENDBRANCH  20  29
ENDBRANCH  18  20
ENDBRANCH   1  18
TORSDOF 7
