REMARK  Name = ZINC08847732
REMARK  8 active torsions:
REMARK  status: ('A' for Active; 'I' for Inactive)
REMARK    1  A    between atoms: C_1  and  C_2
REMARK    2  A    between atoms: C_4  and  C_34
REMARK    3  A    between atoms: N_9  and  N_10
REMARK    4  A    between atoms: C_22  and  C_24
REMARK    5  A    between atoms: C_27  and  O_32
REMARK    6  A    between atoms: C_28  and  O_30
REMARK    7  A    between atoms: O_30  and  C_31
REMARK    8  A    between atoms: O_32  and  C_33
REMARK                            x       y       z     vdW  Elec       q    Type
REMARK                         _______ _______ _______ _____ _____    ______ ____
ROOT
ATOM      1  C   UNL     1       3.244   6.293  -1.162  0.00  0.00    +0.044 C 
ATOM      2  C   UNL     1       2.049   5.433  -0.842  0.00  0.00    -0.049 A 
ATOM      3  C   UNL     1       0.783   5.993  -0.811  0.00  0.00    +0.010 A 
ATOM      4  C   UNL     1      -0.323   5.219  -0.517  0.00  0.00    -0.007 A 
ATOM      5  C   UNL     1      -0.172   3.866  -0.249  0.00  0.00    +0.141 A 
ATOM      6  C   UNL     1       1.111   3.303  -0.284  0.00  0.00    +0.045 A 
ATOM      7  C   UNL     1       2.218   4.088  -0.578  0.00  0.00    +0.017 A 
ATOM      8  C   UNL     1       1.244   1.851   0.000  0.00  0.00    +0.096 A 
ATOM      9  N   UNL     1       2.408   1.291   0.230  0.00  0.00    -0.181 NA
ATOM     10  C   UNL     1      -0.013   1.076   0.008  0.00  0.00    +0.077 A 
ATOM     11  C   UNL     1      -1.183   1.755   0.017  0.00  0.00    +0.138 A 
ATOM     12  O   UNL     1      -1.245   3.099   0.046  0.00  0.00    -0.454 OA
ATOM     13  C   UNL     1      -1.694   5.844  -0.489  0.00  0.00    +0.047 C 
ENDROOT
BRANCH   9  14
ATOM     14  N   UNL     1       2.485  -0.083   0.494  0.00  0.00    -0.220 N 
ATOM     15  C   UNL     1       3.712  -0.673   0.736  0.00  0.00    +0.139 A 
ATOM     16  C   UNL     1       3.771  -2.051   0.998  0.00  0.00    +0.046 A 
ATOM     17  C   UNL     1       4.972  -2.645   1.238  0.00  0.00    +0.013 A 
ATOM     18  C   UNL     1       6.132  -1.843   1.215  0.00  0.00    +0.001 A 
ATOM     19  C   UNL     1       7.401  -2.391   1.453  0.00  0.00    +0.010 A 
ATOM     20  C   UNL     1       8.500  -1.586   1.422  0.00  0.00    +0.001 A 
ATOM     21  C   UNL     1       8.380  -0.224   1.156  0.00  0.00    +0.002 A 
ATOM     22  C   UNL     1       7.164   0.341   0.920  0.00  0.00    +0.028 A 
ATOM     23  C   UNL     1       6.008  -0.458   0.944  0.00  0.00    +0.073 A 
ATOM     24  N   UNL     1       4.801   0.071   0.711  0.00  0.00    -0.231 NA
ATOM     25  H   UNL     1       1.677  -0.620   0.506  0.00  0.00    +0.176 HD
ENDBRANCH   9  14
BRANCH  11  26
ATOM     26  C   UNL     1      -2.444   0.989   0.000  0.00  0.00    +0.021 A 
ATOM     27  C   UNL     1      -2.416  -0.407  -0.024  0.00  0.00    +0.015 A 
ATOM     28  C   UNL     1      -3.595  -1.121  -0.040  0.00  0.00    +0.050 A 
ATOM     29  C   UNL     1      -4.813  -0.455  -0.031  0.00  0.00    +0.162 A 
ATOM     30  C   UNL     1      -4.849   0.938  -0.006  0.00  0.00    +0.162 A 
ATOM     31  C   UNL     1      -3.670   1.659   0.015  0.00  0.00    +0.061 A 
BRANCH  30  32
ATOM     32  O   UNL     1      -6.044   1.587   0.003  0.00  0.00    -0.491 OA
ATOM     33  C   UNL     1      -6.006   3.015   0.029  0.00  0.00    +0.277 C 
ENDBRANCH  30  32
BRANCH  29  34
ATOM     34  O   UNL     1      -5.973  -1.163  -0.047  0.00  0.00    -0.491 OA
ATOM     35  C   UNL     1      -5.863  -2.588  -0.071  0.00  0.00    +0.277 C 
ENDBRANCH  29  34
ENDBRANCH  11  26
TORSDOF 4
