REMARK  Name = ZINC12498404
REMARK  10 active torsions:
REMARK  status: ('A' for Active; 'I' for Inactive)
REMARK    1  A    between atoms: C_1  and  C_2
REMARK    2  A    between atoms: C_2  and  N_54
REMARK    3  A    between atoms: C_3  and  C_4
REMARK    4  A    between atoms: C_3  and  N_54
REMARK    5  A    between atoms: C_5  and  C_6
REMARK    6  A    between atoms: C_5  and  N_54
REMARK    7  A    between atoms: C_6  and  N_7
REMARK    8  A    between atoms: C_18  and  C_20
REMARK    9  A    between atoms: C_25  and  S_26
REMARK   10  A    between atoms: S_26  and  C_29
REMARK                            x       y       z     vdW  Elec       q    Type
REMARK                         _______ _______ _______ _____ _____    ______ ____
ROOT
ATOM      1  N   UNL     1       2.608  -1.665  -0.138  0.00  0.00    -0.248 N 
ATOM      2  C   UNL     1       2.167  -0.389   0.170  0.00  0.00    +0.168 A 
ATOM      3  N   UNL     1       2.715   0.766  -0.130  0.00  0.00    -0.224 NA
ATOM      4  C   UNL     1       2.170   1.945   0.239  0.00  0.00    +0.080 A 
ATOM      5  C   UNL     1       2.653   3.249  -0.018  0.00  0.00    +0.030 A 
ATOM      6  C   UNL     1       1.973   4.350   0.433  0.00  0.00    +0.017 A 
ATOM      7  C   UNL     1       0.792   4.229   1.153  0.00  0.00    +0.019 A 
ATOM      8  C   UNL     1       0.292   2.968   1.425  0.00  0.00    +0.032 A 
ATOM      9  C   UNL     1       0.965   1.860   0.974  0.00  0.00    +0.042 A 
ATOM     10  S   UNL     1       0.709   0.105   1.078  0.00  0.00    -0.052 S 
ATOM     11 BR   UNL     1      -0.120   5.770   1.760  0.00  0.00    -0.050 Br
ATOM     12  C   UNL     1       1.956  -2.739   0.350  0.00  0.00    +0.254 C 
ATOM     13  O   UNL     1       0.925  -2.591   0.977  0.00  0.00    -0.270 OA
ENDROOT
BRANCH  12  14
ATOM     14  C   UNL     1       2.495  -4.096   0.124  0.00  0.00    +0.062 A 
ATOM     15  C   UNL     1       3.854  -4.275  -0.144  0.00  0.00    +0.015 A 
ATOM     16  C   UNL     1       4.351  -5.545  -0.350  0.00  0.00    +0.001 A 
ATOM     17  C   UNL     1       3.505  -6.639  -0.302  0.00  0.00    +0.002 A 
ATOM     18  C   UNL     1       2.157  -6.468  -0.042  0.00  0.00    +0.028 A 
ATOM     19  C   UNL     1       1.648  -5.204   0.171  0.00  0.00    +0.100 A 
BRANCH  19  20
ATOM     20  S   UNL     1      -0.070  -4.989   0.501  0.00  0.00    -0.005 S 
ATOM     21  O   UNL     1      -0.493  -3.991  -0.418  0.00  0.00    -0.170 OA
ATOM     22  O   UNL     1      -0.616  -6.299   0.450  0.00  0.00    -0.170 OA
ATOM     23  C   UNL     1      -0.142  -4.348   2.196  0.00  0.00    +0.200 C 
ENDBRANCH  19  20
ENDBRANCH  12  14
BRANCH   1  24
ATOM     24  C   UNL     1       3.783  -1.847  -0.994  0.00  0.00    +0.097 C 
BRANCH  24  25
ATOM     25  C   UNL     1       5.049  -1.528  -0.197  0.00  0.00    -0.059 C 
BRANCH  25  26
ATOM     26  N   UNL     1       6.225  -1.737  -1.068  0.00  0.00    +0.380 N 
ATOM     27  H   UNL     1       6.167  -2.672  -1.488  0.00  0.00    -0.082 HD
BRANCH  26  29
ATOM     28  C   UNL     1       6.410   0.678  -1.563  0.00  0.00    -0.017 C 
ATOM     29  C   UNL     1       6.242  -0.726  -2.146  0.00  0.00    -0.082 C 
ENDBRANCH  26  29
BRANCH  26  30
ATOM     30  C   UNL     1       7.466  -1.645  -0.270  0.00  0.00    -0.082 C 
ATOM     31  C   UNL     1       8.658  -1.985  -1.168  0.00  0.00    -0.017 C 
ENDBRANCH  26  30
ENDBRANCH  25  26
ENDBRANCH  24  25
ENDBRANCH   1  24
TORSDOF 7
