REMARK  Name = ZINC00906360
REMARK  10 active torsions:
REMARK  status: ('A' for Active; 'I' for Inactive)
REMARK    1  A    between atoms: C_1  and  C_2
REMARK    2  A    between atoms: C_2  and  C_4
REMARK    3  A    between atoms: C_8  and  N_10
REMARK    4  A    between atoms: N_10  and  C_11
REMARK    5  A    between atoms: C_11  and  C_13
REMARK    6  A    between atoms: C_11  and  C_23
REMARK    7  A    between atoms: N_25  and  C_26
REMARK    8  A    between atoms: C_26  and  C_27
REMARK    9  A    between atoms: C_33  and  C_35
REMARK   10  A    between atoms: C_35  and  N_36
REMARK                            x       y       z     vdW  Elec       q    Type
REMARK                         _______ _______ _______ _____ _____    ______ ____
ROOT
ATOM      1  N   UNL     1      -5.815   3.499  -1.560  0.00  0.00    -0.254 N 
ATOM      2  C   UNL     1      -4.724   2.812  -1.168  0.00  0.00    +0.242 C 
ATOM      3  O   UNL     1      -3.856   2.543  -1.972  0.00  0.00    -0.273 OA
ENDROOT
BRANCH   1   8
ATOM      4  C   UNL     1      -9.031   4.477  -0.042  0.00  0.00    +0.019 A 
ATOM      5  C   UNL     1      -8.634   4.703   1.280  0.00  0.00    +0.011 A 
ATOM      6  C   UNL     1      -7.315   4.527   1.642  0.00  0.00    +0.002 A 
ATOM      7  C   UNL     1      -6.382   4.128   0.703  0.00  0.00    +0.023 A 
ATOM      8  C   UNL     1      -6.765   3.902  -0.614  0.00  0.00    +0.038 A 
ATOM      9  C   UNL     1      -8.086   4.080  -0.992  0.00  0.00    +0.035 A 
BRANCH   4  11
ATOM     10  C   UNL     1     -11.454   5.098   0.592  0.00  0.00    +0.091 C 
ATOM     11  C   UNL     1     -10.438   4.664  -0.433  0.00  0.00    +0.160 C 
ATOM     12  O   UNL     1     -10.780   4.468  -1.580  0.00  0.00    -0.292 OA
ENDBRANCH   4  11
ENDBRANCH   1   8
BRANCH   1  13
ATOM     13  C   UNL     1      -6.008   3.824  -2.975  0.00  0.00    +0.199 C 
BRANCH  13  14
ATOM     14  C   UNL     1      -6.741   2.696  -3.654  0.00  0.00    +0.007 A 
ATOM     15  C   UNL     1      -7.400   1.694  -3.051  0.00  0.00    +0.089 A 
ATOM     16  N   UNL     1      -7.943   0.860  -3.990  0.00  0.00    -0.360 N 
ATOM     17  H   UNL     1      -8.467   0.067  -3.795  0.00  0.00    +0.165 HD
ATOM     18  C   UNL     1      -7.631   1.311  -5.253  0.00  0.00    +0.047 A 
ATOM     19  C   UNL     1      -6.864   2.481  -5.098  0.00  0.00    +0.005 A 
ATOM     20  C   UNL     1      -6.401   3.164  -6.224  0.00  0.00    +0.010 A 
ATOM     21  C   UNL     1      -6.695   2.692  -7.472  0.00  0.00    +0.001 A 
ATOM     22  C   UNL     1      -7.450   1.539  -7.630  0.00  0.00    +0.002 A 
ATOM     23  C   UNL     1      -7.918   0.849  -6.533  0.00  0.00    +0.026 A 
ENDBRANCH  13  14
BRANCH  13  24
ATOM     24  C   UNL     1      -6.815   5.091  -3.095  0.00  0.00    +0.239 C 
ATOM     25  O   UNL     1      -7.192   5.666  -2.096  0.00  0.00    -0.273 OA
ATOM     26  N   UNL     1      -7.117   5.585  -4.312  0.00  0.00    -0.309 N 
ATOM     27  H   UNL     1      -6.816   5.125  -5.111  0.00  0.00    +0.149 HD
BRANCH  26  28
ATOM     28  C   UNL     1      -7.902   6.817  -4.428  0.00  0.00    +0.139 C 
BRANCH  28  29
ATOM     29  C   UNL     1      -8.099   7.151  -5.884  0.00  0.00    -0.030 A 
ATOM     30  C   UNL     1      -7.184   7.952  -6.540  0.00  0.00    +0.005 A 
ATOM     31  C   UNL     1      -7.363   8.255  -7.877  0.00  0.00    +0.000 A 
ATOM     32  C   UNL     1      -8.463   7.764  -8.555  0.00  0.00    +0.000 A 
ATOM     33  C   UNL     1      -9.381   6.967  -7.898  0.00  0.00    +0.000 A 
ATOM     34  C   UNL     1      -9.200   6.660  -6.562  0.00  0.00    +0.005 A 
ENDBRANCH  28  29
ENDBRANCH  26  28
ENDBRANCH  13  24
ENDBRANCH   1  13
BRANCH   2  35
ATOM     35  C   UNL     1      -4.581   2.379   0.268  0.00  0.00    +0.242 C 
BRANCH  35  36
ATOM     36  N   UNL     1      -3.802   1.140   0.329  0.00  0.00    -0.235 N 
ATOM     37  C   UNL     1      -4.292  -0.143   0.278  0.00  0.00    +0.090 A 
ATOM     38  C   UNL     1      -5.566  -0.687   0.157  0.00  0.00    +0.029 A 
ATOM     39  C   UNL     1      -5.727  -2.044   0.139  0.00  0.00    +0.002 A 
ATOM     40  C   UNL     1      -4.628  -2.887   0.231  0.00  0.00    +0.002 A 
ATOM     41  C   UNL     1      -3.367  -2.379   0.346  0.00  0.00    +0.032 A 
ATOM     42  C   UNL     1      -3.175  -0.991   0.371  0.00  0.00    +0.113 A 
ATOM     43  N   UNL     1      -2.078  -0.214   0.473  0.00  0.00    -0.129 NA
ATOM     44  N   UNL     1      -2.409   1.029   0.452  0.00  0.00    -0.064 NA
ENDBRANCH  35  36
ENDBRANCH   2  35
TORSDOF 9
