REMARK  Name = ZINC20366368
REMARK  8 active torsions:
REMARK  status: ('A' for Active; 'I' for Inactive)
REMARK    1  A    between atoms: C_3  and  C_9
REMARK    2  A    between atoms: C_9  and  O_10
REMARK    3  A    between atoms: O_10  and  N_11
REMARK    4  A    between atoms: N_11  and  C_12
REMARK    5  A    between atoms: C_13  and  C_14
REMARK    6  A    between atoms: N_16  and  N_17
REMARK    7  A    between atoms: C_18  and  C_20
REMARK    8  A    between atoms: C_20  and  N_21
REMARK                            x       y       z     vdW  Elec       q    Type
REMARK                         _______ _______ _______ _____ _____    ______ ____
ROOT
ATOM      1  C   UNL     1       5.386   7.955  -0.011  0.00  0.00    +0.254 C 
ATOM      2  O   UNL     1       4.279   8.463   0.003  0.00  0.00    -0.269 OA
ATOM      3  N   UNL     1       6.485   8.735  -0.018  0.00  0.00    -0.232 N 
ATOM      4  H   UNL     1       7.367   8.331  -0.029  0.00  0.00    +0.173 HD
ENDROOT
BRANCH   3   5
ATOM      5  N   UNL     1       6.354  10.130  -0.010  0.00  0.00    -0.252 N 
ATOM      6  C   UNL     1       7.472  10.923  -0.017  0.00  0.00    +0.104 C 
ATOM      7  N   UNL     1       8.647  10.383  -0.032  0.00  0.00    -0.388 N 
ATOM      8  H   UNL     1       5.473  10.534   0.001  0.00  0.00    +0.171 HD
ATOM      9  H   UNL     1       9.438  10.945  -0.037  0.00  0.00    +0.157 HD
ATOM     10  H   UNL     1       8.737   9.418  -0.038  0.00  0.00    +0.157 HD
BRANCH   6  11
ATOM     11  C   UNL     1       7.331  12.423  -0.008  0.00  0.00    +0.215 C 
BRANCH  11  12
ATOM     12  N   UNL     1       7.300  12.902   1.376  0.00  0.00    -0.245 N 
ATOM     13  C   UNL     1       8.100  13.832   1.925  0.00  0.00    +0.219 A 
ATOM     14  N   UNL     1       7.753  13.978   3.178  0.00  0.00    -0.223 NA
ATOM     15  C   UNL     1       6.740  13.161   3.464  0.00  0.00    +0.245 A 
ATOM     16  N   UNL     1       6.423  12.486   2.391  0.00  0.00    -0.158 NA
ENDBRANCH  11  12
ENDBRANCH   6  11
ENDBRANCH   3   5
BRANCH   1  18
ATOM     17  C   UNL     1       4.418   5.766  -0.012  0.00  0.00    +0.113 C 
ATOM     18  C   UNL     1       5.518   6.547  -0.019  0.00  0.00    +0.088 C 
BRANCH  17  19
ATOM     19  N   UNL     1       4.545   4.406  -0.020  0.00  0.00    -0.273 N 
ATOM     20  H   UNL     1       5.427   4.001  -0.031  0.00  0.00    +0.193 HD
BRANCH  19  21
ATOM     21  O   UNL     1       3.390   3.586  -0.013  0.00  0.00    -0.270 OA
BRANCH  21  22
ATOM     22  C   UNL     1       3.671   2.185  -0.023  0.00  0.00    +0.229 C 
BRANCH  22  25
ATOM     23  C   UNL     1      -0.017   1.379   0.010  0.00  0.00    +0.020 A 
ATOM     24  C   UNL     1       1.171   2.087   0.002  0.00  0.00    +0.009 A 
ATOM     25  C   UNL     1       2.377   1.413  -0.013  0.00  0.00    -0.001 A 
ATOM     26  C   UNL     1       2.397   0.029  -0.021  0.00  0.00    +0.048 A 
ATOM     27  C   UNL     1       1.210  -0.679  -0.013  0.00  0.00    +0.040 A 
ATOM     28  C   UNL     1       0.002  -0.004   0.002  0.00  0.00    +0.042 A 
ATOM     29 CL   UNL     1      -1.489  -0.893   0.012  0.00  0.00    -0.083 Cl
ATOM     30 CL   UNL     1       3.913  -0.817  -0.041  0.00  0.00    -0.083 Cl
ENDBRANCH  22  25
ENDBRANCH  21  22
ENDBRANCH  19  21
ENDBRANCH  17  19
ENDBRANCH   1  18
TORSDOF 8
