REMARK  Name = ZINC06574835
REMARK  7 active torsions:
REMARK  status: ('A' for Active; 'I' for Inactive)
REMARK    1  A    between atoms: C_4  and  C_7
REMARK    2  A    between atoms: C_7  and  C_8
REMARK    3  A    between atoms: C_7  and  C_17
REMARK    4  A    between atoms: C_7  and  O_23
REMARK    5  A    between atoms: C_8  and  C_9
REMARK    6  A    between atoms: C_9  and  C_11
REMARK    7  A    between atoms: C_9  and  N_44
REMARK                            x       y       z     vdW  Elec       q    Type
REMARK                         _______ _______ _______ _____ _____    ______ ____
ROOT
ATOM      1  C   UNL     1       0.878   1.462  -2.551  0.00  0.00    +0.115 C 
ENDROOT
BRANCH   1   5
ATOM      2  C   UNL     1       0.361  -0.283  -6.416  0.00  0.00    +0.000 A 
ATOM      3  C   UNL     1       1.631  -0.124  -5.893  0.00  0.00    +0.000 A 
ATOM      4  C   UNL     1       1.798   0.441  -4.643  0.00  0.00    +0.007 A 
ATOM      5  C   UNL     1       0.696   0.846  -3.914  0.00  0.00    -0.012 A 
ATOM      6  C   UNL     1      -0.575   0.682  -4.434  0.00  0.00    +0.007 A 
ATOM      7  C   UNL     1      -0.741   0.122  -5.687  0.00  0.00    +0.000 A 
ENDBRANCH   1   5
BRANCH   1   8
ATOM      8  C   UNL     1       1.020   2.956  -2.689  0.00  0.00    -0.012 A 
ATOM      9  C   UNL     1      -0.040   3.711  -3.155  0.00  0.00    +0.007 A 
ATOM     10  C   UNL     1       0.089   5.082  -3.277  0.00  0.00    +0.000 A 
ATOM     11  C   UNL     1       1.282   5.696  -2.943  0.00  0.00    +0.000 A 
ATOM     12  C   UNL     1       2.344   4.940  -2.482  0.00  0.00    +0.000 A 
ATOM     13  C   UNL     1       2.213   3.570  -2.355  0.00  0.00    +0.007 A 
ENDBRANCH   1   8
BRANCH   1  14
ATOM     14  O   UNL     1       2.053   0.926  -1.940  0.00  0.00    -0.379 OA
ATOM     15  H   UNL     1       2.031  -0.034  -1.819  0.00  0.00    +0.211 HD
ENDBRANCH   1  14
BRANCH   1  16
ATOM     16  C   UNL     1      -0.340   1.144  -1.681  0.00  0.00    +0.033 C 
BRANCH  16  17
ATOM     17  C   UNL     1      -0.224   1.887  -0.349  0.00  0.00    -0.040 C 
BRANCH  17  18
ATOM     18  C   UNL     1      -1.488   1.693   0.447  0.00  0.00    -0.048 A 
ATOM     19  C   UNL     1      -1.543   0.730   1.435  0.00  0.00    +0.003 A 
ATOM     20  C   UNL     1      -2.701   0.554   2.169  0.00  0.00    +0.000 A 
ATOM     21  C   UNL     1      -3.813   1.336   1.910  0.00  0.00    +0.001 A 
ATOM     22  C   UNL     1      -3.768   2.297   0.920  0.00  0.00    +0.016 A 
ATOM     23  C   UNL     1      -2.603   2.480   0.184  0.00  0.00    +0.021 A 
ATOM     24  S   UNL     1      -2.541   3.706  -1.080  0.00  0.00    -0.052 SA
ENDBRANCH  17  18
BRANCH  17  27
ATOM     25  H   UNL     1       0.802   0.373   0.597  0.00  0.00    -0.089 HD
ATOM     26  H   UNL     1       1.786   1.534  -0.075  0.00  0.00    -0.089 HD
ATOM     27  N   UNL     1       0.916   1.372   0.430  0.00  0.00    +0.383 N 
ATOM     28  H   UNL     1       0.957   1.860   1.332  0.00  0.00    -0.089 HD
ENDBRANCH  17  27
ENDBRANCH  16  17
ENDBRANCH   1  16
TORSDOF 7
