REMARK  Name = ZINC08739162
REMARK  8 active torsions:
REMARK  status: ('A' for Active; 'I' for Inactive)
REMARK    1  A    between atoms: C_1  and  C_2
REMARK    2  A    between atoms: C_2  and  C_3
REMARK    3  A    between atoms: C_2  and  C_4
REMARK    4  A    between atoms: C_2  and  C_5
REMARK    5  A    between atoms: C_8  and  N_11
REMARK    6  A    between atoms: C_12  and  C_14
REMARK    7  A    between atoms: C_14  and  N_15
REMARK    8  A    between atoms: C_20  and  O_28
REMARK                            x       y       z     vdW  Elec       q    Type
REMARK                         _______ _______ _______ _____ _____    ______ ____
ROOT
ATOM      1  N   UNL     1       5.916  -1.229  -6.289  0.00  0.00    -0.290 N 
ATOM      2  C   UNL     1       6.700  -1.451  -7.362  0.00  0.00    +0.307 C 
ATOM      3  O   UNL     1       6.292  -2.132  -8.283  0.00  0.00    -0.252 OA
ATOM      4  N   UNL     1       7.937  -0.918  -7.415  0.00  0.00    -0.245 N 
ATOM      5  C   UNL     1       8.466  -0.093  -6.315  0.00  0.00    +0.210 C 
ATOM      6  C   UNL     1       9.229   1.067  -6.897  0.00  0.00    +0.206 C 
ATOM      7  N   UNL     1       9.797   0.994  -8.058  0.00  0.00    -0.214 NA
ATOM      8  C   UNL     1       9.724  -0.136  -8.828  0.00  0.00    +0.089 A 
ATOM      9  C   UNL     1       8.780  -1.129  -8.517  0.00  0.00    +0.064 A 
ATOM     10  C   UNL     1       8.690  -2.274  -9.283  0.00  0.00    +0.026 A 
ATOM     11  C   UNL     1       9.543  -2.449 -10.360  0.00  0.00    +0.002 A 
ATOM     12  C   UNL     1      10.483  -1.482 -10.669  0.00  0.00    +0.002 A 
ATOM     13  C   UNL     1      10.576  -0.320  -9.913  0.00  0.00    +0.030 A 
ATOM     14  H   UNL     1       6.241  -0.686  -5.554  0.00  0.00    +0.151 HD
ENDROOT
BRANCH   6  15
ATOM     15  O   UNL     1       9.324   2.212  -6.190  0.00  0.00    -0.494 OA
ATOM     16  H   UNL     1       9.830   2.908  -6.633  0.00  0.00    +0.293 HD
ENDBRANCH   6  15
BRANCH   1  17
ATOM     17  C   UNL     1       4.572  -1.808  -6.232  0.00  0.00    +0.202 C 
BRANCH  17  19
ATOM     18  N   UNL     1       2.657  -1.834  -4.665  0.00  0.00    -0.284 N 
ATOM     19  C   UNL     1       3.908  -1.413  -4.938  0.00  0.00    +0.234 C 
ATOM     20  O   UNL     1       4.500  -0.715  -4.142  0.00  0.00    -0.274 OA
ATOM     21  H   UNL     1       2.213  -2.453  -5.265  0.00  0.00    +0.155 HD
BRANCH  18  25
ATOM     22  C   UNL     1       0.700  -0.475  -1.248  0.00  0.00    -0.042 A 
ATOM     23  C   UNL     1       1.582   0.356  -1.914  0.00  0.00    +0.006 A 
ATOM     24  C   UNL     1       2.232  -0.091  -3.047  0.00  0.00    +0.023 A 
ATOM     25  C   UNL     1       2.000  -1.377  -3.518  0.00  0.00    +0.033 A 
ATOM     26  C   UNL     1       1.114  -2.210  -2.846  0.00  0.00    +0.023 A 
ATOM     27  C   UNL     1       0.470  -1.758  -1.711  0.00  0.00    +0.006 A 
BRANCH  22  29
ATOM     28  C   UNL     1       0.358  -0.877   1.175  0.00  0.00    +0.015 C 
ATOM     29  C   UNL     1      -0.009   0.016  -0.012  0.00  0.00    -0.013 C 
ATOM     30  C   UNL     1      -1.521  -0.032  -0.238  0.00  0.00    +0.015 C 
ATOM     31  C   UNL     1       0.418   1.456   0.282  0.00  0.00    +0.015 C 
ENDBRANCH  22  29
ENDBRANCH  18  25
ENDBRANCH  17  19
ENDBRANCH   1  17
TORSDOF 5
