REMARK  Name = ZINC22052045
REMARK  5 active torsions:
REMARK  status: ('A' for Active; 'I' for Inactive)
REMARK    1  A    between atoms: C_1  and  C_2
REMARK    2  A    between atoms: C_5  and  O_11
REMARK    3  A    between atoms: C_6  and  N_8
REMARK    4  A    between atoms: O_11  and  C_12
REMARK    5  A    between atoms: C_12  and  C_13
REMARK                            x       y       z     vdW  Elec       q    Type
REMARK                         _______ _______ _______ _____ _____    ______ ____
ROOT
ATOM      1  C   UNL     1      -6.613   5.058   2.146  0.00  0.00    +0.044 C 
ATOM      2  C   UNL     1      -5.309   4.331   1.938  0.00  0.00    -0.048 A 
ATOM      3  C   UNL     1      -4.854   4.082   0.657  0.00  0.00    +0.007 A 
ATOM      4  C   UNL     1      -3.660   3.415   0.464  0.00  0.00    +0.048 A 
ATOM      5  C   UNL     1      -2.916   2.996   1.558  0.00  0.00    +0.151 A 
ATOM      6  C   UNL     1      -3.377   3.243   2.842  0.00  0.00    +0.168 A 
ATOM      7  C   UNL     1      -4.570   3.915   3.030  0.00  0.00    +0.039 A 
ENDROOT
BRANCH   6   8
ATOM      8  N   UNL     1      -2.589   2.793   4.011  0.00  0.00    +0.060 N 
ATOM      9  O   UNL     1      -2.994   3.010   5.139  0.00  0.00    -0.126 OA
ATOM     10  O   UNL     1      -1.535   2.204   3.845  0.00  0.00    -0.126 OA
ENDBRANCH   6   8
BRANCH   5  11
ATOM     11  O   UNL     1      -1.741   2.339   1.370  0.00  0.00    -0.485 OA
BRANCH  11  12
ATOM     12  C   UNL     1      -1.332   2.114   0.020  0.00  0.00    +0.264 C 
BRANCH  12  13
ATOM     13  C   UNL     1      -0.017   1.378   0.010  0.00  0.00    -0.009 A 
ATOM     14  C   UNL     1       0.002  -0.004   0.002  0.00  0.00    +0.007 A 
ATOM     15  C   UNL     1       1.208  -0.679  -0.014  0.00  0.00    +0.001 A 
ATOM     16  C   UNL     1       2.396   0.028  -0.021  0.00  0.00    +0.015 A 
ATOM     17  C   UNL     1       2.378   1.411  -0.013  0.00  0.00    +0.018 A 
ATOM     18  C   UNL     1       1.171   2.086   0.002  0.00  0.00    +0.022 A 
ATOM     19 BR   UNL     1       4.003   2.378  -0.023  0.00  0.00    -0.050 Br
ENDBRANCH  12  13
ENDBRANCH  11  12
ENDBRANCH   5  11
TORSDOF 4
