REMARK  Name = ZINC05556438
REMARK  6 active torsions:
REMARK  status: ('A' for Active; 'I' for Inactive)
REMARK    1  A    between atoms: C_5  and  C_7
REMARK    2  A    between atoms: C_7  and  C_9
REMARK    3  A    between atoms: C_7  and  N_20
REMARK    4  A    between atoms: C_18  and  O_19
REMARK    5  A    between atoms: N_20  and  C_21
REMARK    6  A    between atoms: C_22  and  O_26
REMARK                            x       y       z     vdW  Elec       q    Type
REMARK                         _______ _______ _______ _____ _____    ______ ____
ROOT
ATOM      1  C   UNL     1       1.281  -0.719  -0.014  0.00  0.00    +0.139 C 
ENDROOT
BRANCH   1   2
ATOM      2  C   UNL     1       1.125  -2.042   0.691  0.00  0.00    +0.021 A 
ATOM      3  C   UNL     1       1.166  -3.222  -0.048  0.00  0.00    +0.010 A 
ATOM      4  C   UNL     1       1.035  -4.433   0.559  0.00  0.00    +0.010 A 
ATOM      5  C   UNL     1       0.843  -4.498   1.949  0.00  0.00    +0.004 A 
ATOM      6  C   UNL     1       0.697  -5.732   2.612  0.00  0.00    +0.011 A 
ATOM      7  C   UNL     1       0.515  -5.719   3.965  0.00  0.00    +0.020 A 
ATOM      8  C   UNL     1       0.477  -4.506   4.650  0.00  0.00    +0.111 A 
ATOM      9  N   UNL     1       0.614  -3.359   4.029  0.00  0.00    -0.251 NA
ATOM     10  C   UNL     1       0.795  -3.303   2.707  0.00  0.00    +0.113 A 
ATOM     11  C   UNL     1       0.941  -2.066   2.044  0.00  0.00    +0.148 A 
BRANCH  11  12
ATOM     12  O   UNL     1       0.899  -0.904   2.748  0.00  0.00    -0.504 OA
ATOM     13  H   UNL     1       0.012  -0.528   2.833  0.00  0.00    +0.292 HD
ENDBRANCH  11  12
ENDBRANCH   1   2
BRANCH   1  18
ATOM     14  C   UNL     1       1.565  -1.161  -3.753  0.00  0.00    +0.001 A 
ATOM     15  C   UNL     1       2.924  -1.362  -3.906  0.00  0.00    +0.003 A 
ATOM     16  C   UNL     1       3.753  -1.356  -2.800  0.00  0.00    +0.039 A 
ATOM     17  C   UNL     1       3.222  -1.142  -1.539  0.00  0.00    +0.129 A 
ATOM     18  C   UNL     1       1.860  -0.946  -1.386  0.00  0.00    +0.012 A 
ATOM     19  C   UNL     1       1.033  -0.953  -2.494  0.00  0.00    +0.008 A 
ATOM     20  F   UNL     1       4.032  -1.130  -0.458  0.00  0.00    -0.205 F 
ENDBRANCH   1  18
BRANCH   1  21
ATOM     21  N   UNL     1      -0.029  -0.075  -0.138  0.00  0.00    -0.317 N 
ATOM     22  H   UNL     1      -0.835  -0.614  -0.160  0.00  0.00    +0.148 HD
BRANCH  21  23
ATOM     23  C   UNL     1      -0.118   1.312  -0.224  0.00  0.00    +0.139 A 
ATOM     24  C   UNL     1      -1.368   1.920  -0.347  0.00  0.00    +0.155 A 
ATOM     25  C   UNL     1      -1.439   3.302  -0.428  0.00  0.00    +0.050 A 
ATOM     26  C   UNL     1      -0.255   4.029  -0.392  0.00  0.00    +0.021 A 
ATOM     27  C   UNL     1       0.946   3.360  -0.273  0.00  0.00    +0.084 A 
ATOM     28  N   UNL     1       1.055   2.006  -0.186  0.00  0.00    -0.347 N 
ATOM     29  H   UNL     1       1.964   1.537  -0.099  0.00  0.00    +0.167 HD
BRANCH  24  30
ATOM     30  O   UNL     1      -2.501   1.168  -0.384  0.00  0.00    -0.503 OA
ATOM     31  H   UNL     1      -2.890   1.001   0.485  0.00  0.00    +0.292 HD
ENDBRANCH  24  30
ENDBRANCH  21  23
ENDBRANCH   1  21
TORSDOF 6
