REMARK  Name = ZINC43740328
REMARK  6 active torsions:
REMARK  status: ('A' for Active; 'I' for Inactive)
REMARK    1  A    between atoms: C_1  and  C_2
REMARK    2  A    between atoms: C_15  and  O_33
REMARK    3  A    between atoms: C_18  and  C_31
REMARK    4  A    between atoms: C_23  and  C_25
REMARK    5  A    between atoms: C_25  and  C_30
REMARK    6  A    between atoms: C_31  and  O_32
REMARK                            x       y       z     vdW  Elec       q    Type
REMARK                         _______ _______ _______ _____ _____    ______ ____
ROOT
ATOM      1  C   UNL     1      -0.008  -0.166  -2.351  0.00  0.00    +0.012 C 
ATOM      2  C   UNL     1      -0.220  -1.601  -1.887  0.00  0.00    -0.023 C 
ATOM      3  C   UNL     1       0.119  -2.551  -3.051  0.00  0.00    +0.012 C 
ATOM      4  C   UNL     1       1.567  -2.360  -3.490  0.00  0.00    +0.065 C 
ATOM      5  C   UNL     1       2.523  -2.607  -2.327  0.00  0.00    +0.170 C 
ATOM      6  C   UNL     1       2.174  -1.718  -1.135  0.00  0.00    +0.069 C 
ATOM      7  C   UNL     1       0.719  -1.937  -0.726  0.00  0.00    +0.000 C 
ATOM      8  C   UNL     1       0.392  -1.107   0.510  0.00  0.00    +0.004 C 
ATOM      9  C   UNL     1      -1.077  -1.300   0.909  0.00  0.00    +0.004 C 
ATOM     10  C   UNL     1      -1.725  -2.321  -0.008  0.00  0.00    -0.001 C 
ATOM     11  C   UNL     1      -1.661  -1.865  -1.473  0.00  0.00    +0.027 C 
ATOM     12  C   UNL     1      -2.647  -0.765  -1.792  0.00  0.00    +0.119 C 
ATOM     13  C   UNL     1      -4.089  -1.195  -1.450  0.00  0.00    +0.041 C 
ATOM     14  C   UNL     1      -4.173  -1.593   0.002  0.00  0.00    +0.007 C 
ATOM     15  C   UNL     1      -3.137  -2.686   0.315  0.00  0.00    +0.001 C 
ATOM     16  C   UNL     1      -3.508  -3.117   1.732  0.00  0.00    +0.005 C 
ATOM     17  C   UNL     1      -5.059  -3.019   1.744  0.00  0.00    +0.010 C 
ATOM     18  C   UNL     1      -5.464  -2.341   0.408  0.00  0.00    +0.057 C 
ATOM     19  O   UNL     1       3.867  -2.305  -2.756  0.00  0.00    -0.346 OA
ATOM     20  C   UNL     1       4.695  -3.192  -1.965  0.00  0.00    +0.191 C 
ATOM     21  C   UNL     1       3.835  -4.480  -1.934  0.00  0.00    +0.191 C 
ATOM     22  O   UNL     1       2.480  -3.985  -1.937  0.00  0.00    -0.346 OA
ENDROOT
BRANCH  18  23
ATOM     23  C   UNL     1      -6.599  -1.340   0.631  0.00  0.00    +0.171 C 
ATOM     24  O   UNL     1      -7.835  -2.044   0.806  0.00  0.00    -0.346 OA
ATOM     25  C   UNL     1      -8.351  -1.691   2.105  0.00  0.00    +0.191 C 
ATOM     26  C   UNL     1      -7.636  -0.351   2.413  0.00  0.00    +0.191 C 
ATOM     27  O   UNL     1      -6.336  -0.567   1.815  0.00  0.00    -0.346 OA
ATOM     28  C   UNL     1      -6.708  -0.408  -0.578  0.00  0.00    +0.074 C 
ENDBRANCH  18  23
BRANCH  12  29
ATOM     29  O   UNL     1      -2.353   0.453  -1.117  0.00  0.00    -0.391 OA
ATOM     30  H   UNL     1      -2.974   1.169  -1.309  0.00  0.00    +0.210 HD
ENDBRANCH  12  29
BRANCH  14  31
ATOM     31  C   UNL     1      -4.070  -0.383   0.930  0.00  0.00    +0.163 C 
BRANCH  31  32
ATOM     32  O   UNL     1      -4.159  -0.815   2.289  0.00  0.00    -0.394 OA
ATOM     33  H   UNL     1      -4.022  -0.109   2.936  0.00  0.00    +0.209 HD
ENDBRANCH  31  32
ENDBRANCH  14  31
TORSDOF 4
