REMARK  Name = ZINC03660015
REMARK  4 active torsions:
REMARK  status: ('A' for Active; 'I' for Inactive)
REMARK    1  A    between atoms: C_10  and  N_14
REMARK    2  A    between atoms: C_15  and  C_17
REMARK    3  A    between atoms: C_17  and  S_18
REMARK    4  A    between atoms: S_18  and  C_19
REMARK                            x       y       z     vdW  Elec       q    Type
REMARK                         _______ _______ _______ _____ _____    ______ ____
ROOT
ATOM      1  N   UNL     1       3.542   4.726  -0.005  0.00  0.00    -0.285 N 
ATOM      2  C   UNL     1       4.865   4.969   0.085  0.00  0.00    +0.227 C 
ATOM      3  O   UNL     1       5.653   4.047   0.072  0.00  0.00    -0.275 OA
ATOM      4  H   UNL     1       2.916   5.465  -0.062  0.00  0.00    +0.155 HD
ENDROOT
BRANCH   1  14
ATOM      5  C   UNL     1       1.054  -2.870  -0.204  0.00  0.00    +0.001 A 
ATOM      6  C   UNL     1       2.157  -3.311  -0.918  0.00  0.00    +0.004 A 
ATOM      7  C   UNL     1       3.150  -2.429  -1.291  0.00  0.00    +0.047 A 
ATOM      8  C   UNL     1       3.052  -1.085  -0.952  0.00  0.00    +0.136 A 
ATOM      9  C   UNL     1       1.935  -0.643  -0.230  0.00  0.00    +0.028 A 
ATOM     10  C   UNL     1       0.939  -1.540   0.141  0.00  0.00    +0.012 A 
ATOM     11  C   UNL     1       2.132   0.806  -0.036  0.00  0.00    +0.028 A 
ATOM     12  C   UNL     1       1.393   1.805   0.590  0.00  0.00    +0.014 A 
ATOM     13  C   UNL     1       1.862   3.101   0.599  0.00  0.00    +0.024 A 
ATOM     14  C   UNL     1       3.072   3.409  -0.018  0.00  0.00    +0.037 A 
ATOM     15  C   UNL     1       3.813   2.420  -0.643  0.00  0.00    +0.070 A 
ATOM     16  C   UNL     1       3.352   1.110  -0.659  0.00  0.00    +0.138 A 
ATOM     17  O   UNL     1       3.860  -0.027  -1.184  0.00  0.00    -0.455 OA
ENDBRANCH   1  14
BRANCH   2  18
ATOM     18  C   UNL     1       5.365   6.386   0.202  0.00  0.00    +0.173 C 
BRANCH  18  19
ATOM     19  S   UNL     1       7.172   6.381   0.304  0.00  0.00    -0.079 S 
BRANCH  19  20
ATOM     20  C   UNL     1       7.475   8.112   0.430  0.00  0.00    +0.168 A 
ATOM     21  N   UNL     1       8.710   8.687   0.536  0.00  0.00    -0.333 N 
ATOM     22  H   UNL     1       9.588   8.208   0.556  0.00  0.00    +0.168 HD
ATOM     23  C   UNL     1       8.520  10.058   0.611  0.00  0.00    +0.067 A 
ATOM     24  C   UNL     1       9.376  11.142   0.727  0.00  0.00    +0.028 A 
ATOM     25  C   UNL     1       8.861  12.421   0.777  0.00  0.00    +0.002 A 
ATOM     26  C   UNL     1       7.492  12.630   0.711  0.00  0.00    +0.002 A 
ATOM     27  C   UNL     1       6.627  11.565   0.596  0.00  0.00    +0.030 A 
ATOM     28  C   UNL     1       7.132  10.264   0.544  0.00  0.00    +0.090 A 
ATOM     29  N   UNL     1       6.551   9.041   0.429  0.00  0.00    -0.222 NA
ENDBRANCH  19  20
ENDBRANCH  18  19
ENDBRANCH   2  18
TORSDOF 4
