REMARK  Name = ZINC12660238
REMARK  4 active torsions:
REMARK  status: ('A' for Active; 'I' for Inactive)
REMARK    1  A    between atoms: C_1  and  C_2
REMARK    2  A    between atoms: N_6  and  N_7
REMARK    3  A    between atoms: C_21  and  C_32
REMARK    4  A    between atoms: N_27  and  N_28
REMARK                            x       y       z     vdW  Elec       q    Type
REMARK                         _______ _______ _______ _____ _____    ______ ____
ROOT
ATOM      1  C   UNL     1      -1.179   5.187  -2.503  0.00  0.00    +0.016 C 
ATOM      2  C   UNL     1      -1.309   3.659  -2.535  0.00  0.00    -0.007 C 
ATOM      3  C   UNL     1      -0.460   3.171  -3.696  0.00  0.00    +0.017 C 
ATOM      4  C   UNL     1      -1.190   3.296  -5.033  0.00  0.00    +0.058 C 
ATOM      5  C   UNL     1      -2.480   2.507  -4.917  0.00  0.00    +0.059 C 
ATOM      6  N   UNL     1      -2.829   1.628  -5.807  0.00  0.00    -0.184 NA
ATOM      7  C   UNL     1      -3.314   2.794  -3.739  0.00  0.00    +0.024 C 
ATOM      8  C   UNL     1      -2.764   3.324  -2.651  0.00  0.00    -0.062 C 
ATOM      9  C   UNL     1      -3.672   3.603  -1.468  0.00  0.00    +0.031 C 
ATOM     10  C   UNL     1      -3.044   3.006  -0.204  0.00  0.00    +0.008 C 
ATOM     11  C   UNL     1      -1.624   3.542  -0.037  0.00  0.00    -0.003 C 
ATOM     12  C   UNL     1      -0.754   3.113  -1.217  0.00  0.00    +0.002 C 
ATOM     13  C   UNL     1      -0.718   1.582  -1.253  0.00  0.00    +0.005 C 
ATOM     14  C   UNL     1      -0.013   1.087   0.008  0.00  0.00    +0.013 C 
ATOM     15  C   UNL     1      -0.690   1.566   1.269  0.00  0.00    +0.011 C 
ATOM     16  C   UNL     1      -1.009   3.066   1.278  0.00  0.00    +0.004 C 
ATOM     17  C   UNL     1      -2.088   3.184   2.387  0.00  0.00    +0.010 C 
ATOM     18  C   UNL     1      -2.805   1.820   2.412  0.00  0.00    +0.053 C 
ATOM     19  C   UNL     1      -2.002   0.873   1.540  0.00  0.00    +0.043 C 
ATOM     20  N   UNL     1      -2.365  -0.281   1.125  0.00  0.00    -0.187 NA
ATOM     21  C   UNL     1       0.252   1.269   2.447  0.00  0.00    +0.018 C 
ENDROOT
BRANCH   6  22
ATOM     22  N   UNL     1      -4.029   0.921  -5.660  0.00  0.00    -0.191 N 
ATOM     23  C   UNL     1      -4.391   0.009  -6.583  0.00  0.00    +0.317 C 
ATOM     24  O   UNL     1      -5.433  -0.605  -6.456  0.00  0.00    -0.251 OA
ATOM     25  N   UNL     1      -3.598  -0.224  -7.648  0.00  0.00    -0.312 N 
ATOM     26  H   UNL     1      -4.600   1.089  -4.894  0.00  0.00    +0.179 HD
ATOM     27  H   UNL     1      -2.766   0.265  -7.749  0.00  0.00    +0.147 HD
ATOM     28  H   UNL     1      -3.858  -0.881  -8.312  0.00  0.00    +0.147 HD
ENDBRANCH   6  22
BRANCH  20  29
ATOM     29  N   UNL     1      -3.624  -0.788   1.472  0.00  0.00    -0.191 N 
ATOM     30  C   UNL     1      -4.006  -2.004   1.034  0.00  0.00    +0.317 C 
ATOM     31  O   UNL     1      -5.099  -2.443   1.336  0.00  0.00    -0.251 OA
ATOM     32  N   UNL     1      -3.176  -2.733   0.261  0.00  0.00    -0.312 N 
ATOM     33  H   UNL     1      -4.221  -0.263   2.029  0.00  0.00    +0.179 HD
ATOM     34  H   UNL     1      -2.305  -2.382   0.020  0.00  0.00    +0.147 HD
ATOM     35  H   UNL     1      -3.451  -3.608  -0.054  0.00  0.00    +0.147 HD
ENDBRANCH  20  29
TORSDOF 2
