REMARK  Name = ZINC44857337
REMARK  10 active torsions:
REMARK  status: ('A' for Active; 'I' for Inactive)
REMARK    1  A    between atoms: C_1  and  S_2
REMARK    2  A    between atoms: S_2  and  N_5
REMARK    3  A    between atoms: N_5  and  C_6
REMARK    4  A    between atoms: N_5  and  C_14
REMARK    5  A    between atoms: C_6  and  C_7
REMARK    6  A    between atoms: C_17  and  C_20
REMARK    7  A    between atoms: N_22  and  C_23
REMARK    8  A    between atoms: C_23  and  C_24
REMARK    9  A    between atoms: C_27  and  C_30
REMARK   10  A    between atoms: C_30  and  N_31
REMARK                            x       y       z     vdW  Elec       q    Type
REMARK                         _______ _______ _______ _____ _____    ______ ____
ROOT
ATOM      1  C   UNL     1       0.511  -0.671  -2.570  0.00  0.00    +0.051 A 
ATOM      2  C   UNL     1       1.146  -1.625  -3.360  0.00  0.00    +0.025 A 
ATOM      3  C   UNL     1       0.687  -1.884  -4.631  0.00  0.00    +0.015 A 
ATOM      4  C   UNL     1      -0.418  -1.188  -5.129  0.00  0.00    +0.037 A 
ATOM      5  C   UNL     1      -1.054  -0.231  -4.333  0.00  0.00    +0.015 A 
ATOM      6  C   UNL     1      -0.594   0.020  -3.061  0.00  0.00    +0.025 A 
ENDROOT
BRANCH   4   7
ATOM      7  C   UNL     1      -0.913  -1.463  -6.492  0.00  0.00    +0.244 C 
ATOM      8  O   UNL     1      -0.358  -2.296  -7.183  0.00  0.00    -0.270 OA
ATOM      9  N   UNL     1      -1.979  -0.791  -6.970  0.00  0.00    -0.307 N 
ATOM     10  H   UNL     1      -2.421  -0.127  -6.418  0.00  0.00    +0.149 HD
BRANCH   9  11
ATOM     11  C   UNL     1      -2.470  -1.065  -8.323  0.00  0.00    +0.139 C 
BRANCH  11  12
ATOM     12  C   UNL     1      -3.661  -0.188  -8.612  0.00  0.00    -0.030 A 
ATOM     13  C   UNL     1      -4.934  -0.629  -8.304  0.00  0.00    +0.005 A 
ATOM     14  C   UNL     1      -6.027   0.176  -8.569  0.00  0.00    +0.002 A 
ATOM     15  C   UNL     1      -5.846   1.421  -9.141  0.00  0.00    -0.064 A 
ATOM     16  C   UNL     1      -4.572   1.863  -9.447  0.00  0.00    +0.002 A 
ATOM     17  C   UNL     1      -3.479   1.060  -9.179  0.00  0.00    +0.005 A 
BRANCH  15  18
ATOM     18  C   UNL     1      -7.037   2.298  -9.430  0.00  0.00    -0.043 C 
BRANCH  18  19
ATOM     19  N   UNL     1      -7.316   3.146  -8.264  0.00  0.00    +0.382 N 
ATOM     20  C   UNL     1      -6.233   4.146  -8.087  0.00  0.00    -0.078 C 
ATOM     21  C   UNL     1      -6.911   5.258  -7.247  0.00  0.00    -0.020 C 
ATOM     22  C   UNL     1      -8.345   5.301  -7.823  0.00  0.00    -0.020 C 
ATOM     23  C   UNL     1      -8.553   3.926  -8.485  0.00  0.00    -0.078 C 
ATOM     24  H   UNL     1      -7.406   2.578  -7.434  0.00  0.00    -0.081 HD
ENDBRANCH  18  19
ENDBRANCH  15  18
ENDBRANCH  11  12
ENDBRANCH   9  11
ENDBRANCH   4   7
BRANCH   1  25
ATOM     25  N   UNL     1       0.977  -0.411  -1.286  0.00  0.00    -0.203 N 
BRANCH  25  27
ATOM     26  C   UNL     1      -0.832   0.999   0.235  0.00  0.00    +0.218 C 
ATOM     27  S   UNL     1      -0.027  -0.611   0.016  0.00  0.00    +0.043 S 
ATOM     28  O   UNL     1       0.843  -0.876   1.107  0.00  0.00    -0.155 OA
ATOM     29  O   UNL     1      -0.977  -1.581  -0.405  0.00  0.00    -0.155 OA
ENDBRANCH  25  27
BRANCH  25  30
ATOM     30  C   UNL     1       2.357   0.039  -1.085  0.00  0.00    +0.166 C 
BRANCH  30  31
ATOM     31  C   UNL     1       2.431   1.531  -1.279  0.00  0.00    -0.028 A 
ATOM     32  C   UNL     1       2.570   2.056  -2.550  0.00  0.00    +0.006 A 
ATOM     33  C   UNL     1       2.639   3.425  -2.729  0.00  0.00    +0.020 A 
ATOM     34  C   UNL     1       2.568   4.270  -1.635  0.00  0.00    +0.041 A 
ATOM     35  C   UNL     1       2.430   3.744  -0.363  0.00  0.00    +0.020 A 
ATOM     36  C   UNL     1       2.356   2.375  -0.186  0.00  0.00    +0.006 A 
ATOM     37 CL   UNL     1       2.655   5.989  -1.859  0.00  0.00    -0.084 Cl
ENDBRANCH  30  31
ENDBRANCH  25  30
ENDBRANCH   1  25
TORSDOF 9
