REMARK  Name = ZINC36052091
REMARK  9 active torsions:
REMARK  status: ('A' for Active; 'I' for Inactive)
REMARK    1  A    between atoms: C_1  and  C_2
REMARK    2  A    between atoms: C_5  and  C_8
REMARK    3  A    between atoms: N_10  and  C_11
REMARK    4  A    between atoms: N_10  and  C_17
REMARK    5  A    between atoms: C_11  and  C_12
REMARK    6  A    between atoms: C_17  and  C_18
REMARK    7  A    between atoms: C_23  and  C_34
REMARK    8  A    between atoms: N_25  and  C_26
REMARK    9  A    between atoms: C_29  and  C_33
REMARK                            x       y       z     vdW  Elec       q    Type
REMARK                         _______ _______ _______ _____ _____    ______ ____
ROOT
ATOM      1  C   UNL     1       1.692  -6.633   0.970  0.00  0.00    +0.237 C 
ATOM      2  O   UNL     1       2.467  -5.702   0.901  0.00  0.00    -0.274 OA
ATOM      3  N   UNL     1       2.152  -7.899   0.921  0.00  0.00    -0.254 N 
ATOM      4  C   UNL     1       3.514  -8.137   0.791  0.00  0.00    +0.207 A 
ATOM      5  N   UNL     1       4.446  -7.220   0.713  0.00  0.00    -0.214 NA
ATOM      6  C   UNL     1       5.651  -7.818   0.595  0.00  0.00    +0.091 A 
ATOM      7  C   UNL     1       5.455  -9.161   0.600  0.00  0.00    +0.122 A 
ATOM      8  N   UNL     1       4.103  -9.366   0.730  0.00  0.00    -0.287 N 
ATOM      9  H   UNL     1       1.532  -8.643   0.976  0.00  0.00    +0.158 HD
ENDROOT
BRANCH   8  10
ATOM     10  C   UNL     1       3.451 -10.605   0.787  0.00  0.00    +0.052 A 
ATOM     11  C   UNL     1       2.530 -10.861   1.794  0.00  0.00    +0.026 A 
ATOM     12  C   UNL     1       1.888 -12.082   1.849  0.00  0.00    +0.008 A 
ATOM     13  C   UNL     1       2.160 -13.052   0.901  0.00  0.00    -0.015 A 
ATOM     14  C   UNL     1       3.078 -12.800  -0.105  0.00  0.00    +0.128 A 
ATOM     15  C   UNL     1       3.720 -11.576  -0.167  0.00  0.00    +0.064 A 
ATOM     16  F   UNL     1       3.342 -13.749  -1.030  0.00  0.00    -0.205 F 
ATOM     17  C   UNL     1       1.458 -14.383   0.964  0.00  0.00    +0.047 C 
ENDBRANCH   8  10
BRANCH   6  18
ATOM     18  C   UNL     1       6.959  -7.128   0.479  0.00  0.00    +0.002 A 
ATOM     19  C   UNL     1       8.132  -7.870   0.356  0.00  0.00    +0.010 A 
ATOM     20  C   UNL     1       9.346  -7.223   0.248  0.00  0.00    +0.001 A 
ATOM     21  C   UNL     1       9.400  -5.841   0.264  0.00  0.00    +0.000 A 
ATOM     22  C   UNL     1       8.239  -5.099   0.386  0.00  0.00    +0.001 A 
ATOM     23  C   UNL     1       7.018  -5.736   0.487  0.00  0.00    +0.010 A 
ENDBRANCH   6  18
BRANCH   1  24
ATOM     24  C   UNL     1       0.214  -6.373   1.111  0.00  0.00    +0.204 C 
BRANCH  24  27
ATOM     25  C   UNL     1      -0.332  -4.273   0.003  0.00  0.00    +0.247 C 
ATOM     26  O   UNL     1      -0.471  -3.066   0.016  0.00  0.00    -0.270 OA
ATOM     27  N   UNL     1      -0.028  -4.929   1.140  0.00  0.00    -0.281 N 
BRANCH  25  32
ATOM     28  C   UNL     1      -0.971  -7.191  -4.916  0.00  0.00    +0.044 C 
ATOM     29  C   UNL     1      -0.803  -6.427  -3.628  0.00  0.00    -0.050 A 
ATOM     30  C   UNL     1       0.323  -6.628  -2.849  0.00  0.00    +0.004 A 
ATOM     31  C   UNL     1       0.482  -5.931  -1.669  0.00  0.00    +0.013 A 
ATOM     32  C   UNL     1      -0.496  -5.023  -1.261  0.00  0.00    +0.037 A 
ATOM     33  C   UNL     1      -1.629  -4.825  -2.051  0.00  0.00    +0.013 A 
ATOM     34  C   UNL     1      -1.773  -5.524  -3.232  0.00  0.00    +0.004 A 
ENDBRANCH  25  32
BRANCH  27  35
ATOM     35  C   UNL     1       0.061  -4.197   2.406  0.00  0.00    +0.182 C 
BRANCH  35  36
ATOM     36  C   UNL     1      -1.314  -4.072   3.012  0.00  0.00    +0.122 A 
ATOM     37  C   UNL     1      -1.879  -4.945   3.865  0.00  0.00    +0.046 A 
ATOM     38  C   UNL     1      -3.163  -4.440   4.176  0.00  0.00    +0.041 A 
ATOM     39  C   UNL     1      -3.304  -3.289   3.494  0.00  0.00    +0.195 A 
ATOM     40  O   UNL     1      -2.179  -3.068   2.795  0.00  0.00    -0.466 OA
ENDBRANCH  35  36
ENDBRANCH  27  35
ENDBRANCH  24  27
ENDBRANCH   1  24
TORSDOF 7
