REMARK  Name = ZINC46085052
REMARK  11 active torsions:
REMARK  status: ('A' for Active; 'I' for Inactive)
REMARK    1  A    between atoms: C_1  and  C_2
REMARK    2  A    between atoms: C_2  and  C_3
REMARK    3  A    between atoms: C_2  and  C_4
REMARK    4  A    between atoms: C_4  and  C_5
REMARK    5  A    between atoms: C_5  and  O_6
REMARK    6  A    between atoms: O_6  and  C_7
REMARK    7  A    between atoms: C_10  and  C_13
REMARK    8  A    between atoms: C_13  and  N_14
REMARK    9  A    between atoms: N_22  and  N_23
REMARK   10  A    between atoms: C_24  and  C_26
REMARK   11  A    between atoms: C_29  and  O_32
REMARK                            x       y       z     vdW  Elec       q    Type
REMARK                         _______ _______ _______ _____ _____    ______ ____
ROOT
ATOM      1  N   UNL     1      -2.596  -0.608   9.025  0.00  0.00    -0.261 N 
ATOM      2  C   UNL     1      -3.945  -0.662   8.692  0.00  0.00    +0.046 A 
ATOM      3  C   UNL     1      -4.758   0.218   7.986  0.00  0.00    +0.024 A 
ATOM      4  C   UNL     1      -6.092  -0.077   7.791  0.00  0.00    +0.002 A 
ATOM      5  C   UNL     1      -6.637  -1.247   8.293  0.00  0.00    +0.001 A 
ATOM      6  C   UNL     1      -5.845  -2.132   8.997  0.00  0.00    +0.012 A 
ATOM      7  C   UNL     1      -4.500  -1.844   9.198  0.00  0.00    +0.028 A 
ATOM      8  C   UNL     1      -3.402  -2.559   9.890  0.00  0.00    +0.153 C 
ATOM      9  N   UNL     1      -3.466  -3.712  10.512  0.00  0.00    -0.174 NA
ATOM     10  C   UNL     1      -2.218  -1.693   9.722  0.00  0.00    +0.272 C 
ATOM     11  O   UNL     1      -1.099  -1.920  10.143  0.00  0.00    -0.268 OA
ENDROOT
BRANCH   9  12
ATOM     12  N   UNL     1      -2.322  -4.246  11.117  0.00  0.00    -0.202 N 
ATOM     13  C   UNL     1      -2.388  -5.431  11.755  0.00  0.00    +0.263 C 
ATOM     14  O   UNL     1      -3.441  -6.036  11.806  0.00  0.00    -0.268 OA
ATOM     15  H   UNL     1      -1.481  -3.764  11.076  0.00  0.00    +0.178 HD
BRANCH  13  16
ATOM     16  C   UNL     1      -1.183  -5.994  12.392  0.00  0.00    +0.039 A 
ATOM     17  C   UNL     1       0.028  -5.298  12.340  0.00  0.00    +0.016 A 
ATOM     18  C   UNL     1       1.151  -5.827  12.936  0.00  0.00    +0.046 A 
ATOM     19  C   UNL     1       1.082  -7.052  13.589  0.00  0.00    +0.117 A 
ATOM     20  C   UNL     1      -0.120  -7.748  13.643  0.00  0.00    +0.046 A 
ATOM     21  C   UNL     1      -1.249  -7.223  13.055  0.00  0.00    +0.016 A 
BRANCH  19  22
ATOM     22  O   UNL     1       2.191  -7.570  14.174  0.00  0.00    -0.507 OA
ATOM     23  H   UNL     1       2.307  -7.307  15.098  0.00  0.00    +0.292 HD
ENDBRANCH  19  22
ENDBRANCH  13  16
ENDBRANCH   9  12
BRANCH   1  24
ATOM     24  C   UNL     1      -1.698   0.491   8.658  0.00  0.00    +0.149 C 
BRANCH  24  28
ATOM     25  C   UNL     1       0.083  -0.335   4.862  0.00  0.00    +0.121 A 
ATOM     26  C   UNL     1      -1.116   0.359   4.931  0.00  0.00    +0.046 A 
ATOM     27  C   UNL     1      -1.690   0.625   6.159  0.00  0.00    +0.009 A 
ATOM     28  C   UNL     1      -1.070   0.200   7.319  0.00  0.00    -0.029 A 
ATOM     29  C   UNL     1       0.125  -0.492   7.254  0.00  0.00    +0.009 A 
ATOM     30  C   UNL     1       0.700  -0.765   6.028  0.00  0.00    +0.046 A 
BRANCH  25  31
ATOM     31  O   UNL     1       0.650  -0.597   3.655  0.00  0.00    -0.492 OA
BRANCH  31  32
ATOM     32  C   UNL     1      -0.042  -0.124   2.497  0.00  0.00    +0.229 C 
BRANCH  32  33
ATOM     33  C   UNL     1       0.742  -0.511   1.242  0.00  0.00    +0.044 C 
BRANCH  33  35
ATOM     34  C   UNL     1      -0.019   1.526   0.010  0.00  0.00    +0.007 C 
ATOM     35  C   UNL     1       0.002  -0.004   0.002  0.00  0.00    -0.014 C 
ATOM     36  C   UNL     1       0.718  -0.497  -1.257  0.00  0.00    +0.007 C 
ENDBRANCH  33  35
ENDBRANCH  32  33
ENDBRANCH  31  32
ENDBRANCH  25  31
ENDBRANCH  24  28
ENDBRANCH   1  24
TORSDOF 9
