REMARK  Name = ZINC55431865
REMARK  8 active torsions:
REMARK  status: ('A' for Active; 'I' for Inactive)
REMARK    1  A    between atoms: C_1  and  C_2
REMARK    2  A    between atoms: C_2  and  C_3
REMARK    3  A    between atoms: C_3  and  C_4
REMARK    4  A    between atoms: C_7  and  N_10
REMARK    5  A    between atoms: C_11  and  C_13
REMARK    6  A    between atoms: C_13  and  C_14
REMARK    7  A    between atoms: C_14  and  C_16
REMARK    8  A    between atoms: C_14  and  N_21
REMARK                            x       y       z     vdW  Elec       q    Type
REMARK                         _______ _______ _______ _____ _____    ______ ____
ROOT
ATOM      1  C   UNL     1       3.186  -8.209   2.053  0.00  0.00    +0.123 C 
ENDROOT
BRANCH   1   3
ATOM      2  N   UNL     1       2.255  -6.036   1.323  0.00  0.00    -0.312 N 
ATOM      3  C   UNL     1       3.166  -6.702   2.061  0.00  0.00    +0.215 C 
ATOM      4  O   UNL     1       3.968  -6.088   2.732  0.00  0.00    -0.276 OA
ATOM      5  H   UNL     1       1.613  -6.527   0.787  0.00  0.00    +0.149 HD
BRANCH   2   9
ATOM      6  C   UNL     1       0.763  -2.041   1.233  0.00  0.00    -0.011 C 
ATOM      7  C   UNL     1       1.586  -2.533   0.041  0.00  0.00    +0.005 C 
ATOM      8  C   UNL     1       1.607  -4.063   0.033  0.00  0.00    +0.022 C 
ATOM      9  C   UNL     1       2.235  -4.572   1.331  0.00  0.00    +0.073 C 
ATOM     10  C   UNL     1       1.413  -4.079   2.523  0.00  0.00    +0.022 C 
ATOM     11  C   UNL     1       1.392  -2.549   2.532  0.00  0.00    +0.005 C 
BRANCH   6  12
ATOM     12  C   UNL     1       0.742  -0.511   1.242  0.00  0.00    +0.003 C 
BRANCH  12  14
ATOM     13  C   UNL     1      -0.019   1.526   0.010  0.00  0.00    +0.004 C 
ATOM     14  C   UNL     1       0.002  -0.004   0.002  0.00  0.00    -0.003 C 
ENDBRANCH  12  14
ENDBRANCH   6  12
ENDBRANCH   2   9
ENDBRANCH   1   3
BRANCH   1  15
ATOM     15  C   UNL     1       4.307  -8.709   2.967  0.00  0.00    +0.120 C 
BRANCH  15  16
ATOM     16  N   UNL     1       4.012  -8.333   4.352  0.00  0.00    -0.292 N 
ATOM     17  C   UNL     1       2.886  -8.776   4.945  0.00  0.00    +0.298 C 
ATOM     18  O   UNL     1       2.115  -9.488   4.331  0.00  0.00    -0.253 OA
ATOM     19  N   UNL     1       2.614  -8.430   6.219  0.00  0.00    -0.313 N 
ATOM     20  H   UNL     1       4.627  -7.765   4.842  0.00  0.00    +0.151 HD
ATOM     21  H   UNL     1       3.229  -7.862   6.709  0.00  0.00    +0.146 HD
ATOM     22  H   UNL     1       1.804  -8.749   6.646  0.00  0.00    +0.146 HD
ENDBRANCH  15  16
BRANCH  15  23
ATOM     23  C   UNL     1       4.407 -10.209   2.864  0.00  0.00    +0.010 A 
ATOM     24  C   UNL     1       5.284 -10.959   2.152  0.00  0.00    +0.013 A 
ATOM     25  C   UNL     1       5.188 -12.337   2.210  0.00  0.00    +0.008 A 
ATOM     26  C   UNL     1       4.220 -12.897   2.975  0.00  0.00    +0.045 A 
ATOM     27  S   UNL     1       3.407 -11.459   3.654  0.00  0.00    -0.100 S 
ENDBRANCH  15  23
ENDBRANCH   1  15
TORSDOF 7
