REMARK  Name = ZINC39680428
REMARK  10 active torsions:
REMARK  status: ('A' for Active; 'I' for Inactive)
REMARK    1  A    between atoms: C_1  and  C_2
REMARK    2  A    between atoms: C_3  and  C_36
REMARK    3  A    between atoms: N_11  and  C_35
REMARK    4  A    between atoms: C_12  and  S_15
REMARK    5  A    between atoms: S_15  and  C_16
REMARK    6  A    between atoms: C_16  and  C_17
REMARK    7  A    between atoms: N_19  and  CA_20
REMARK    8  A    between atoms: CA_20  and  CB_22
REMARK    9  A    between atoms: CA_20  and  C_32
REMARK   10  A    between atoms: CB_22  and  CG_23
REMARK                            x       y       z     vdW  Elec       q    Type
REMARK                         _______ _______ _______ _____ _____    ______ ____
ROOT
ATOM      1  C   UNK A   0       5.983  -0.273   0.741  0.00  0.00    +0.224 C 
ATOM      2  O   UNK A   0       6.801  -0.907   1.373  0.00  0.00    -0.275 OA
ATOM      3  N   TRP A   1       6.391   0.620  -0.183  0.00  0.00    -0.301 N 
ATOM      4  H   TRP A   1       5.736   1.127  -0.688  0.00  0.00    +0.150 HD
ENDROOT
BRANCH   1   5
ATOM      5  C   UNK A   0       4.512  -0.483   0.989  0.00  0.00    +0.168 C 
BRANCH   5   6
ATOM      6  S   UNK A   0       4.289  -1.738   2.279  0.00  0.00    -0.113 S 
BRANCH   6  16
ATOM      7  C   UNK A   0      -0.018   1.503   0.010  0.00  0.00    +0.041 C 
ATOM      8  C   UNK A   0       0.002  -0.004   0.002  0.00  0.00    -0.049 C 
ATOM      9  C   UNK A   0       0.006  -0.664  -1.142  0.00  0.00    -0.016 C 
ATOM     10  S   UNK A   0       0.047  -2.394  -0.708  0.00  0.00    -0.110 S 
ATOM     11  C   UNK A   0       0.483  -2.216   1.076  0.00  0.00    +0.134 C 
ATOM     12  C   UNK A   0       0.025  -0.763   1.287  0.00  0.00    +0.129 C 
ATOM     13  C   UNK A   0       0.830  -0.071   2.336  0.00  0.00    +0.227 C 
ATOM     14  O   UNK A   0       0.442   1.002   2.745  0.00  0.00    -0.275 OA
ATOM     15  N   UNK A   0       1.957  -0.577   2.845  0.00  0.00    -0.279 N 
ATOM     16  C   UNK A   0       2.489  -1.872   2.455  0.00  0.00    +0.205 C 
ATOM     17  N   UNK A   0       1.923  -2.362   1.214  0.00  0.00    -0.277 NA
ATOM     18  C   UNK A   0       2.689   0.210   3.841  0.00  0.00    +0.134 C 
ATOM     19  C   UNK A   0      -0.021  -0.076  -2.530  0.00  0.00    +0.051 C 
ATOM     20  H   UNK A   0       2.209  -3.311   1.026  0.00  0.00    +0.126 HD
ENDBRANCH   6  16
ENDBRANCH   5   6
ENDBRANCH   1   5
BRANCH   3  21
ATOM     21  CA  TRP A   1       7.821   0.824  -0.423  0.00  0.00    +0.191 C 
BRANCH  21  22
ATOM     22  C   TRP A   1       8.360   1.822   0.569  0.00  0.00    +0.376 C 
ATOM     23  O   TRP A   1       9.522   1.754   0.932  0.00  0.00    -0.244 OA
ATOM     24  OXT TRP A   1       7.634   2.698   1.008  0.00  0.00    -0.244 OA
ENDBRANCH  21  22
BRANCH  21  25
ATOM     25  CB  TRP A   1       8.029   1.354  -1.844  0.00  0.00    +0.071 C 
BRANCH  25  26
ATOM     26  CG  TRP A   1       7.603   0.305  -2.838  0.00  0.00    -0.020 A 
ATOM     27  CD2 TRP A   1       6.244   0.073  -3.332  0.00  0.00    +0.003 A 
ATOM     28  CE3 TRP A   1       5.006   0.672  -3.086  0.00  0.00    +0.010 A 
ATOM     29  CZ3 TRP A   1       3.890   0.210  -3.725  0.00  0.00    +0.001 A 
ATOM     30  CH2 TRP A   1       3.977  -0.849  -4.618  0.00  0.00    +0.002 A 
ATOM     31  CZ2 TRP A   1       5.187  -1.454  -4.875  0.00  0.00    +0.026 A 
ATOM     32  CE2 TRP A   1       6.336  -1.001  -4.236  0.00  0.00    +0.047 A 
ATOM     33  NE1 TRP A   1       7.658  -1.383  -4.279  0.00  0.00    -0.360 N 
ATOM     34  CD1 TRP A   1       8.399  -0.590  -3.444  0.00  0.00    +0.087 A 
ATOM     35  HE1 TRP A   1       8.013  -2.104  -4.822  0.00  0.00    +0.165 HD
ENDBRANCH  25  26
ENDBRANCH  21  25
ENDBRANCH   3  21
TORSDOF 7
