REMARK  Name = ZINC15675932
REMARK  3 active torsions:
REMARK  status: ('A' for Active; 'I' for Inactive)
REMARK    1  A    between atoms: C_6  and  C_11
REMARK    2  A    between atoms: C_13  and  C_16
REMARK    3  A    between atoms: C_27  and  C_29
REMARK                            x       y       z     vdW  Elec       q    Type
REMARK                         _______ _______ _______ _____ _____    ______ ____
ROOT
ATOM      1  C   UNL     1       7.120  -5.884   0.030  0.00  0.00    +0.171 C 
ATOM      2  C   UNL     1       7.558  -6.540   1.346  0.00  0.00    +0.087 C 
ATOM      3  C   UNL     1       8.962  -6.100   1.664  0.00  0.00    +0.040 A 
ATOM      4  C   UNL     1       9.822  -5.558   0.774  0.00  0.00    +0.054 A 
ATOM      5  N   UNL     1      10.967  -5.298   1.409  0.00  0.00    -0.348 N 
ATOM      6  C   UNL     1      10.853  -5.656   2.661  0.00  0.00    +0.171 A 
ATOM      7  N   UNL     1       9.614  -6.160   2.859  0.00  0.00    -0.349 N 
ATOM      8  H   UNL     1       9.256  -6.500   3.694  0.00  0.00    +0.166 HD
ATOM      9  C   UNL     1       9.480  -5.308  -0.675  0.00  0.00    +0.163 C 
ATOM     10  N   UNL     1       8.208  -6.002  -0.953  0.00  0.00    -0.279 N 
ATOM     11  C   UNL     1       8.047  -6.727  -2.077  0.00  0.00    +0.254 C 
ATOM     12  O   UNL     1       7.041  -7.395  -2.232  0.00  0.00    -0.269 OA
ATOM     13  H   UNL     1      11.758  -4.908   1.004  0.00  0.00    +0.166 HD
ENDROOT
BRANCH   1  16
ATOM     14  C   UNL     1       5.719  -2.578   0.557  0.00  0.00    +0.202 A 
ATOM     15  N   UNL     1       5.625  -3.900   0.328  0.00  0.00    -0.190 NA
ATOM     16  C   UNL     1       6.814  -4.428   0.270  0.00  0.00    +0.249 A 
ATOM     17  O   UNL     1       7.719  -3.459   0.460  0.00  0.00    -0.336 OA
ATOM     18  N   UNL     1       6.986  -2.256   0.641  0.00  0.00    -0.056 NA
BRANCH  14  24
ATOM     19  C   UNL     1       1.563   2.299   1.271  0.00  0.00    +0.001 A 
ATOM     20  C   UNL     1       2.863   2.788   1.385  0.00  0.00    +0.001 A 
ATOM     21  C   UNL     1       3.936   1.958   1.272  0.00  0.00    +0.008 A 
ATOM     22  C   UNL     1       3.733   0.587   1.037  0.00  0.00    -0.017 A 
ATOM     23  C   UNL     1       4.817  -0.297   0.916  0.00  0.00    +0.020 A 
ATOM     24  C   UNL     1       4.577  -1.639   0.686  0.00  0.00    +0.023 A 
ATOM     25  C   UNL     1       3.263  -2.120   0.573  0.00  0.00    +0.012 A 
ATOM     26  C   UNL     1       2.201  -1.282   0.688  0.00  0.00    +0.009 A 
ATOM     27  C   UNL     1       2.410   0.089   0.922  0.00  0.00    -0.018 A 
ATOM     28  C   UNL     1       1.329   0.978   1.044  0.00  0.00    +0.008 A 
ENDBRANCH  14  24
ENDBRANCH   1  16
BRANCH  11  29
ATOM     29  C   UNL     1       9.083  -6.713  -3.114  0.00  0.00    +0.074 A 
ATOM     30  C   UNL     1       9.185  -7.489  -4.258  0.00  0.00    +0.021 A 
ATOM     31  C   UNL     1      10.282  -7.244  -5.050  0.00  0.00    +0.008 A 
ATOM     32  C   UNL     1      11.167  -6.288  -4.672  0.00  0.00    +0.046 A 
ATOM     33  S   UNL     1      10.535  -5.686  -3.237  0.00  0.00    -0.092 S 
ENDBRANCH  11  29
TORSDOF 3
