REMARK  Name = ZINC39736711
REMARK  7 active torsions:
REMARK  status: ('A' for Active; 'I' for Inactive)
REMARK    1  A    between atoms: C_7  and  C_10
REMARK    2  A    between atoms: C_10  and  C_11
REMARK    3  A    between atoms: C_11  and  N_12
REMARK    4  A    between atoms: C_13  and  C_15
REMARK    5  A    between atoms: C_15  and  N_16
REMARK    6  A    between atoms: N_19  and  C_22
REMARK    7  A    between atoms: C_22  and  C_23
REMARK                            x       y       z     vdW  Elec       q    Type
REMARK                         _______ _______ _______ _____ _____    ______ ____
ROOT
ATOM      1  N   UNL     1      -5.115   7.703  -3.822  0.00  0.00    -0.298 NA
ATOM      2  C   UNL     1      -3.855   8.136  -4.442  0.00  0.00    +0.066 C 
ATOM      3  C   UNL     1      -4.115   8.528  -5.898  0.00  0.00    -0.063 C 
ATOM      4  N   UNL     1      -5.102   9.614  -5.944  0.00  0.00    +0.383 N 
ATOM      5  C   UNL     1      -6.362   9.159  -5.343  0.00  0.00    -0.063 C 
ATOM      6  C   UNL     1      -6.121   8.772  -3.882  0.00  0.00    +0.066 C 
ATOM      7  H   UNL     1      -4.752  10.408  -5.429  0.00  0.00    -0.082 HD
ENDROOT
BRANCH   1   8
ATOM      8  C   UNL     1      -4.896   7.264  -2.437  0.00  0.00    +0.180 C 
BRANCH   8  10
ATOM      9  N   UNL     1      -3.722   5.428  -1.266  0.00  0.00    -0.314 N 
ATOM     10  C   UNL     1      -4.053   6.015  -2.433  0.00  0.00    +0.227 C 
ATOM     11  O   UNL     1      -3.672   5.537  -3.481  0.00  0.00    -0.274 OA
ATOM     12  H   UNL     1      -4.027   5.810  -0.428  0.00  0.00    +0.149 HD
BRANCH   9  13
ATOM     13  C   UNL     1      -2.903   4.214  -1.262  0.00  0.00    +0.109 C 
BRANCH  13  14
ATOM     14  C   UNL     1      -2.675   3.757   0.180  0.00  0.00    +0.056 C 
BRANCH  14  21
ATOM     15  C   UNL     1       1.951   3.009   0.048  0.00  0.00    +0.001 A 
ATOM     16  C   UNL     1       2.282   1.661   0.070  0.00  0.00    +0.002 A 
ATOM     17  C   UNL     1       1.299   0.697   0.126  0.00  0.00    +0.026 A 
ATOM     18  C   UNL     1      -0.039   1.076   0.161  0.00  0.00    +0.047 A 
ATOM     19  N   UNL     1      -1.222   0.373   0.216  0.00  0.00    -0.360 N 
ATOM     20  C   UNL     1      -2.279   1.242   0.230  0.00  0.00    +0.087 A 
ATOM     21  C   UNL     1      -1.832   2.507   0.184  0.00  0.00    -0.021 A 
ATOM     22  C   UNL     1      -0.369   2.443   0.138  0.00  0.00    +0.003 A 
ATOM     23  C   UNL     1       0.643   3.403   0.086  0.00  0.00    +0.010 A 
ATOM     24  H   UNL     1      -1.296  -0.594   0.242  0.00  0.00    +0.165 HD
ENDBRANCH  14  21
ENDBRANCH  13  14
ENDBRANCH   9  13
ENDBRANCH   8  10
ENDBRANCH   1   8
BRANCH   4  25
ATOM     25  C   UNL     1      -5.338  10.002  -7.341  0.00  0.00    -0.045 C 
BRANCH  25  26
ATOM     26  C   UNL     1      -6.084  11.338  -7.380  0.00  0.00    +0.117 C 
ATOM     27  N   UNL     1      -7.357  11.254  -6.652  0.00  0.00    -0.333 N 
ATOM     28  C   UNL     1      -7.520  12.081  -5.542  0.00  0.00    +0.042 A 
ATOM     29  C   UNL     1      -8.664  12.139  -4.725  0.00  0.00    +0.024 A 
ATOM     30  C   UNL     1      -8.727  12.992  -3.648  0.00  0.00    +0.002 A 
ATOM     31  C   UNL     1      -7.668  13.823  -3.331  0.00  0.00    +0.001 A 
ATOM     32  C   UNL     1      -6.529  13.787  -4.118  0.00  0.00    +0.016 A 
ATOM     33  C   UNL     1      -6.466  12.932  -5.196  0.00  0.00    +0.030 A 
ATOM     34  S   UNL     1      -5.199  12.618  -6.405  0.00  0.00    -0.103 S 
ATOM     35  H   UNL     1      -8.058  10.645  -6.933  0.00  0.00    +0.147 HD
ENDBRANCH  25  26
ENDBRANCH   4  25
TORSDOF 7
