REMARK  Name = ZINC10021808
REMARK  15 active torsions:
REMARK  status: ('A' for Active; 'I' for Inactive)
REMARK    1  A    between atoms: C_1  and  C_2
REMARK    2  A    between atoms: C_2  and  C_3
REMARK    3  A    between atoms: C_3  and  C_5
REMARK    4  A    between atoms: C_3  and  N_62
REMARK    5  A    between atoms: C_8  and  S_17
REMARK    6  A    between atoms: N_9  and  C_10
REMARK    7  A    between atoms: C_10  and  C_11
REMARK    8  A    between atoms: S_17  and  C_18
REMARK    9  A    between atoms: C_18  and  C_19
REMARK   10  A    between atoms: N_21  and  C_22
REMARK   11  A    between atoms: C_24  and  N_30
REMARK   12  A    between atoms: C_27  and  O_28
REMARK   13  A    between atoms: O_28  and  C_29
REMARK   14  A    between atoms: C_33  and  N_62
REMARK   15  A    between atoms: C_34  and  N_62
REMARK                            x       y       z     vdW  Elec       q    Type
REMARK                         _______ _______ _______ _____ _____    ______ ____
ROOT
ATOM      1  C   UNL     1      -2.617  -0.163   2.193  0.00  0.00    +0.121 A 
ATOM      2  N   UNL     1      -3.011   0.043   3.417  0.00  0.00    -0.135 NA
ATOM      3  N   UNL     1      -3.829   1.034   3.457  0.00  0.00    -0.123 NA
ATOM      4  C   UNL     1      -3.998   1.521   2.249  0.00  0.00    +0.192 A 
ATOM      5  N   UNL     1      -3.226   0.775   1.405  0.00  0.00    -0.303 N 
ENDROOT
BRANCH   1   6
ATOM      6  C   UNL     1      -1.663  -1.234   1.730  0.00  0.00    +0.000 C 
BRANCH   6   9
ATOM      7  C   UNL     1      -1.440  -3.612   1.331  0.00  0.00    -0.096 C 
ATOM      8  C   UNL     1      -2.640  -2.819   3.279  0.00  0.00    -0.096 C 
ATOM      9  N   UNL     1      -2.322  -2.550   1.860  0.00  0.00    +0.383 N 
ATOM     10  H   UNL     1      -3.195  -2.541   1.319  0.00  0.00    -0.082 HD
ENDBRANCH   6   9
BRANCH   6  12
ATOM     11  C   UNL     1       0.341   0.135   2.325  0.00  0.00    +0.002 C 
ATOM     12  C   UNL     1      -0.391  -1.185   2.579  0.00  0.00    -0.011 C 
ENDBRANCH   6  12
ENDBRANCH   1   6
BRANCH   5  13
ATOM     13  C   UNL     1      -3.085   0.940  -0.043  0.00  0.00    +0.160 C 
BRANCH  13  14
ATOM     14  C   UNL     1      -2.000   1.945  -0.331  0.00  0.00    -0.028 A 
ATOM     15  C   UNL     1      -0.719   1.515  -0.621  0.00  0.00    +0.005 A 
ATOM     16  C   UNL     1       0.276   2.437  -0.890  0.00  0.00    +0.000 A 
ATOM     17  C   UNL     1      -0.010   3.789  -0.864  0.00  0.00    +0.000 A 
ATOM     18  C   UNL     1      -1.290   4.220  -0.569  0.00  0.00    +0.000 A 
ATOM     19  C   UNL     1      -2.284   3.298  -0.300  0.00  0.00    +0.005 A 
ENDBRANCH  13  14
ENDBRANCH   5  13
BRANCH   4  20
ATOM     20  S   UNL     1      -5.026   2.881   1.802  0.00  0.00    -0.077 S 
BRANCH  20  21
ATOM     21  C   UNL     1      -5.693   3.318   3.427  0.00  0.00    +0.173 C 
BRANCH  21  22
ATOM     22  C   UNL     1      -6.628   4.492   3.287  0.00  0.00    +0.228 C 
ATOM     23  O   UNL     1      -6.823   4.984   2.195  0.00  0.00    -0.275 OA
ATOM     24  N   UNL     1      -7.246   4.994   4.373  0.00  0.00    -0.282 N 
ATOM     25  H   UNL     1      -7.035   4.648   5.255  0.00  0.00    +0.155 HD
BRANCH  24  26
ATOM     26  C   UNL     1      -8.193   6.017   4.230  0.00  0.00    +0.078 A 
ATOM     27  C   UNL     1      -8.046   6.967   3.230  0.00  0.00    +0.059 A 
ATOM     28  C   UNL     1      -8.984   7.971   3.088  0.00  0.00    +0.128 A 
ATOM     29  C   UNL     1     -10.066   8.039   3.947  0.00  0.00    +0.036 A 
ATOM     30  C   UNL     1     -10.216   7.099   4.950  0.00  0.00    +0.050 A 
ATOM     31  C   UNL     1      -9.283   6.086   5.096  0.00  0.00    +0.141 A 
BRANCH  28  32
ATOM     32  N   UNL     1      -8.828   8.980   2.016  0.00  0.00    +0.056 N 
ATOM     33  O   UNL     1      -9.652   9.869   1.892  0.00  0.00    -0.126 OA
ATOM     34  O   UNL     1      -7.877   8.922   1.259  0.00  0.00    -0.126 OA
ENDBRANCH  28  32
BRANCH  31  35
ATOM     35  O   UNL     1      -9.430   5.161   6.081  0.00  0.00    -0.493 OA
ATOM     36  C   UNL     1     -10.571   5.294   6.931  0.00  0.00    +0.277 C 
ENDBRANCH  31  35
ENDBRANCH  24  26
ENDBRANCH  21  22
ENDBRANCH  20  21
ENDBRANCH   4  20
TORSDOF 11
