REMARK  Name = ZINC02446115
REMARK  13 active torsions:
REMARK  status: ('A' for Active; 'I' for Inactive)
REMARK    1  A    between atoms: C_1  and  C_2
REMARK    2  A    between atoms: C_2  and  O_3
REMARK    3  A    between atoms: O_3  and  C_4
REMARK    4  A    between atoms: C_7  and  N_10
REMARK    5  A    between atoms: C_11  and  C_30
REMARK    6  A    between atoms: C_14  and  S_15
REMARK    7  A    between atoms: S_15  and  C_16
REMARK    8  A    between atoms: C_16  and  C_17
REMARK    9  A    between atoms: N_19  and  C_20
REMARK   10  A    between atoms: C_22  and  O_28
REMARK   11  A    between atoms: C_24  and  O_26
REMARK   12  A    between atoms: O_26  and  C_27
REMARK   13  A    between atoms: O_28  and  C_29
REMARK                            x       y       z     vdW  Elec       q    Type
REMARK                         _______ _______ _______ _____ _____    ______ ____
ROOT
ATOM      1  N   UNL     1      -6.548   1.014   0.302  0.00  0.00    -0.270 N 
ATOM      2  C   UNL     1      -7.178  -0.207   0.418  0.00  0.00    +0.176 A 
ATOM      3  N   UNL     1      -6.236  -1.125   0.441  0.00  0.00    -0.127 NA
ATOM      4  N   UNL     1      -5.080  -0.571   0.343  0.00  0.00    -0.122 NA
ATOM      5  C   UNL     1      -5.208   0.734   0.261  0.00  0.00    +0.197 A 
ENDROOT
BRANCH   1   9
ATOM      6  C   UNL     1      -8.345   4.774   0.116  0.00  0.00    +0.121 A 
ATOM      7  C   UNL     1      -7.638   4.288  -0.975  0.00  0.00    +0.047 A 
ATOM      8  C   UNL     1      -7.043   3.044  -0.913  0.00  0.00    +0.030 A 
ATOM      9  C   UNL     1      -7.152   2.279   0.240  0.00  0.00    +0.051 A 
ATOM     10  C   UNL     1      -7.865   2.762   1.328  0.00  0.00    +0.030 A 
ATOM     11  C   UNL     1      -8.455   4.009   1.268  0.00  0.00    +0.047 A 
BRANCH   6  12
ATOM     12  O   UNL     1      -8.931   5.999   0.055  0.00  0.00    -0.492 OA
BRANCH  12  14
ATOM     13  C   UNL     1     -10.228   7.827   0.959  0.00  0.00    +0.048 C 
ATOM     14  C   UNL     1      -9.643   6.436   1.214  0.00  0.00    +0.225 C 
ENDBRANCH  12  14
ENDBRANCH   6  12
ENDBRANCH   1   9
BRANCH   2  15
ATOM     15  C   UNL     1      -8.629  -0.439   0.500  0.00  0.00    +0.057 A 
ATOM     16  C   UNL     1      -9.328  -1.609   0.339  0.00  0.00    +0.019 A 
ATOM     17  C   UNL     1     -10.698  -1.582   0.464  0.00  0.00    +0.008 A 
ATOM     18  C   UNL     1     -11.315  -0.404   0.741  0.00  0.00    +0.046 A 
ATOM     19  S   UNL     1      -9.937   0.726   0.844  0.00  0.00    -0.094 S 
ENDBRANCH   2  15
BRANCH   5  20
ATOM     20  S   UNL     1      -3.899   1.904   0.118  0.00  0.00    -0.076 S 
BRANCH  20  21
ATOM     21  C   UNL     1      -2.475   0.787   0.133  0.00  0.00    +0.173 C 
BRANCH  21  22
ATOM     22  C   UNL     1      -1.205   1.591   0.017  0.00  0.00    +0.227 C 
ATOM     23  O   UNL     1      -1.258   2.799  -0.067  0.00  0.00    -0.275 OA
ATOM     24  N   UNL     1      -0.011   0.966   0.007  0.00  0.00    -0.285 N 
ATOM     25  H   UNL     1       0.035  -0.133   0.011  0.00  0.00    +0.155 HD
BRANCH  24  26
ATOM     26  C   UNL     1       1.170   1.715  -0.008  0.00  0.00    +0.040 A 
ATOM     27  C   UNL     1       1.224   2.912  -0.709  0.00  0.00    +0.069 A 
ATOM     28  C   UNL     1       2.394   3.657  -0.719  0.00  0.00    +0.125 A 
ATOM     29  C   UNL     1       3.513   3.200  -0.039  0.00  0.00    +0.091 A 
ATOM     30  C   UNL     1       3.461   2.002   0.657  0.00  0.00    +0.125 A 
ATOM     31  C   UNL     1       2.291   1.259   0.673  0.00  0.00    +0.069 A 
BRANCH  30  32
ATOM     32  O   UNL     1       4.558   1.555   1.323  0.00  0.00    -0.495 OA
ATOM     33  C   UNL     1       5.730   2.371   1.264  0.00  0.00    +0.277 C 
ENDBRANCH  30  32
BRANCH  28  34
ATOM     34  O   UNL     1       2.445   4.832  -1.400  0.00  0.00    -0.495 OA
ATOM     35  C   UNL     1       3.684   5.544  -1.373  0.00  0.00    +0.277 C 
ENDBRANCH  28  34
ENDBRANCH  24  26
ENDBRANCH  21  22
ENDBRANCH  20  21
ENDBRANCH   5  20
TORSDOF 10
