REMARK  Name = ZINC52296455
REMARK  5 active torsions:
REMARK  status: ('A' for Active; 'I' for Inactive)
REMARK    1  A    between atoms: C_1  and  C_2
REMARK    2  A    between atoms: C_7  and  C_9
REMARK    3  A    between atoms: C_7  and  N_12
REMARK    4  A    between atoms: N_15  and  C_16
REMARK    5  A    between atoms: C_19  and  C_21
REMARK                            x       y       z     vdW  Elec       q    Type
REMARK                         _______ _______ _______ _____ _____    ______ ____
ROOT
ATOM      1  C   UNL     1      -0.088   1.524   0.178  0.00  0.00    +0.007 C 
ATOM      2  C   UNL     1      -0.067  -0.006   0.170  0.00  0.00    -0.012 C 
ATOM      3  C   UNL     1       0.440  -0.502  -1.186  0.00  0.00    +0.003 C 
ATOM      4  C   UNL     1       1.855   0.029  -1.426  0.00  0.00    +0.003 C 
ATOM      5  C   UNL     1       2.784  -0.475  -0.319  0.00  0.00    +0.037 C 
ATOM      6  C   UNL     1       2.276   0.021   1.036  0.00  0.00    +0.137 C 
ATOM      7  C   UNL     1       0.861  -0.509   1.277  0.00  0.00    +0.040 C 
ENDROOT
BRANCH   6   8
ATOM      8  N   UNL     1       2.256   1.486   1.044  0.00  0.00    -0.284 N 
ATOM      9  C   UNL     1       1.859   2.148   2.149  0.00  0.00    +0.301 C 
ATOM     10  O   UNL     1       1.516   1.530   3.138  0.00  0.00    -0.253 OA
ATOM     11  N   UNL     1       1.840   3.496   2.156  0.00  0.00    -0.296 N 
ATOM     12  H   UNL     1       2.530   1.979   0.255  0.00  0.00    +0.151 HD
ATOM     13  H   UNL     1       2.113   3.989   1.367  0.00  0.00    +0.151 HD
BRANCH  11  14
ATOM     14  C   UNL     1       1.408   4.216   3.356  0.00  0.00    +0.078 C 
ATOM     15  C   UNL     1       0.466   5.407   3.165  0.00  0.00    +0.027 C 
ATOM     16  C   UNL     1       1.929   5.641   3.551  0.00  0.00    +0.008 C 
ATOM     17  C   UNL     1       2.861   6.206   2.478  0.00  0.00    +0.009 C 
ENDBRANCH  11  14
ENDBRANCH   6   8
BRANCH   6  18
ATOM     18  C   UNL     1       3.191  -0.475   2.127  0.00  0.00    +0.379 C 
ATOM     19  O   UNL     1       3.772   0.321   2.844  0.00  0.00    -0.244 OA
ATOM     20  O   UNL     1       3.349  -1.673   2.292  0.00  0.00    -0.244 OA
ENDBRANCH   6  18
TORSDOF 3
