REMARK  Name = ZINC17086989
REMARK  6 active torsions:
REMARK  status: ('A' for Active; 'I' for Inactive)
REMARK    1  A    between atoms: C_1  and  C_2
REMARK    2  A    between atoms: C_2  and  C_3
REMARK    3  A    between atoms: C_3  and  N_4
REMARK    4  A    between atoms: C_7  and  C_10
REMARK    5  A    between atoms: C_13  and  C_16
REMARK    6  A    between atoms: C_17  and  C_19
REMARK                            x       y       z     vdW  Elec       q    Type
REMARK                         _______ _______ _______ _____ _____    ______ ____
ROOT
ATOM      1  N   UNL     1       2.451  -2.821  -0.014  0.00  0.00    -0.244 N 
ATOM      2  C   UNL     1       1.224  -2.193   0.151  0.00  0.00    +0.168 A 
ATOM      3  N   UNL     1       0.941  -0.904   0.159  0.00  0.00    -0.224 NA
ATOM      4  C   UNL     1      -0.300  -0.474   0.335  0.00  0.00    +0.080 A 
ATOM      5  C   UNL     1      -1.307  -1.383   0.502  0.00  0.00    +0.076 A 
ATOM      6  S   UNL     1      -0.391  -2.915   0.403  0.00  0.00    -0.060 S 
ATOM      7  C   UNL     1       3.566  -2.086  -0.193  0.00  0.00    +0.288 C 
ATOM      8  O   UNL     1       3.514  -0.873  -0.113  0.00  0.00    -0.266 OA
ENDROOT
BRANCH   4   9
ATOM      9  C   UNL     1      -0.594   0.980   0.345  0.00  0.00    +0.001 A 
ATOM     10  C   UNL     1      -1.902   1.428   0.520  0.00  0.00    +0.010 A 
ATOM     11  C   UNL     1      -2.169   2.782   0.533  0.00  0.00    +0.004 A 
ATOM     12  C   UNL     1      -1.143   3.693   0.363  0.00  0.00    -0.050 A 
ATOM     13  C   UNL     1       0.157   3.255   0.184  0.00  0.00    +0.004 A 
ATOM     14  C   UNL     1       0.436   1.903   0.174  0.00  0.00    +0.010 A 
ATOM     15  C   UNL     1      -1.442   5.170   0.373  0.00  0.00    +0.044 C 
ENDBRANCH   4   9
BRANCH   7  16
ATOM     16  C   UNL     1       4.842  -2.748  -0.482  0.00  0.00    +0.190 A 
ATOM     17  C   UNL     1       6.060  -2.137  -0.575  0.00  0.00    +0.054 A 
ATOM     18  C   UNL     1       6.995  -3.143  -0.864  0.00  0.00    +0.042 A 
ATOM     19  C   UNL     1       6.316  -4.309  -0.934  0.00  0.00    +0.196 A 
ATOM     20  O   UNL     1       5.020  -4.068  -0.698  0.00  0.00    -0.458 OA
ENDBRANCH   7  16
BRANCH   1  21
ATOM     21  C   UNL     1       2.534  -4.284   0.006  0.00  0.00    +0.116 C 
BRANCH  21  23
ATOM     22  C   UNL     1       2.516  -6.348  -1.403  0.00  0.00    +0.005 C 
ATOM     23  C   UNL     1       2.430  -4.820  -1.423  0.00  0.00    +0.016 C 
ENDBRANCH  21  23
ENDBRANCH   1  21
TORSDOF 4
