REMARK  Name = ZINC62038810
REMARK  8 active torsions:
REMARK  status: ('A' for Active; 'I' for Inactive)
REMARK    1  A    between atoms: C_1  and  C_2
REMARK    2  A    between atoms: C_14  and  S_16
REMARK    3  A    between atoms: S_16  and  C_17
REMARK    4  A    between atoms: C_17  and  C_19
REMARK    5  A    between atoms: C_17  and  C_20
REMARK    6  A    between atoms: N_22  and  C_23
REMARK    7  A    between atoms: C_25  and  C_30
REMARK    8  A    between atoms: C_28  and  O_29
REMARK                            x       y       z     vdW  Elec       q    Type
REMARK                         _______ _______ _______ _____ _____    ______ ____
ROOT
ATOM      1  S   UNL     1       2.335  -8.429   0.707  0.00  0.00    -0.075 S 
ENDROOT
BRANCH   1  14
ATOM      2  C   UNL     1      -0.105   1.505   0.066  0.00  0.00    +0.008 C 
ATOM      3  C   UNL     1      -0.074  -0.025   0.051  0.00  0.00    -0.009 C 
ATOM      4  C   UNL     1       0.652  -0.512  -1.206  0.00  0.00    +0.008 C 
ATOM      5  C   UNL     1       0.473  -2.023  -1.357  0.00  0.00    +0.037 C 
ATOM      6  C   UNL     1       0.892  -2.702  -0.056  0.00  0.00    -0.023 A 
ATOM      7  C   UNL     1       0.969  -1.994   1.095  0.00  0.00    -0.004 A 
ATOM      8  S   UNL     1       1.484  -3.167   2.324  0.00  0.00    -0.075 S 
ATOM      9  C   UNL     1       1.593  -4.592   1.294  0.00  0.00    +0.092 A 
ATOM     10  C   UNL     1       1.226  -4.113   0.026  0.00  0.00    +0.075 A 
ATOM     11  C   UNL     1       1.220  -5.099  -1.084  0.00  0.00    +0.282 A 
ATOM     12  O   UNL     1       0.916  -4.787  -2.225  0.00  0.00    -0.265 OA
ATOM     13  N   UNL     1       1.569  -6.356  -0.759  0.00  0.00    -0.185 NA
ATOM     14  C   UNL     1       1.904  -6.740   0.452  0.00  0.00    +0.171 A 
ATOM     15  N   UNL     1       1.933  -5.889   1.528  0.00  0.00    -0.328 N 
ATOM     16  C   UNL     1       0.678  -0.537   1.287  0.00  0.00    +0.046 C 
ATOM     17  H   UNL     1       2.183  -6.197   2.413  0.00  0.00    +0.168 HD
ENDBRANCH   1  14
BRANCH   1  18
ATOM     18  C   UNL     1       2.167  -9.178  -0.937  0.00  0.00    +0.137 C 
ATOM     19  C   UNL     1       3.202  -8.568  -1.884  0.00  0.00    +0.029 C 
BRANCH  18  20
ATOM     20  C   UNL     1       2.392 -10.665  -0.837  0.00  0.00    +0.230 C 
ATOM     21  O   UNL     1       2.983 -11.126   0.117  0.00  0.00    -0.274 OA
ATOM     22  N   UNL     1       1.937 -11.482  -1.807  0.00  0.00    -0.282 N 
ATOM     23  H   UNL     1       1.408 -11.122  -2.536  0.00  0.00    +0.155 HD
BRANCH  22  24
ATOM     24  C   UNL     1       2.227 -12.852  -1.762  0.00  0.00    +0.076 A 
ATOM     25  C   UNL     1       2.303 -13.503  -0.546  0.00  0.00    +0.038 A 
ATOM     26  C   UNL     1       2.593 -14.872  -0.506  0.00  0.00    +0.016 A 
ATOM     27  C   UNL     1       2.804 -15.574  -1.699  0.00  0.00    +0.015 A 
ATOM     28  C   UNL     1       2.727 -14.918  -2.907  0.00  0.00    +0.048 A 
ATOM     29  C   UNL     1       2.433 -13.561  -2.947  0.00  0.00    +0.138 A 
BRANCH  29  30
ATOM     30  O   UNL     1       2.353 -12.922  -4.141  0.00  0.00    -0.505 OA
ATOM     31  H   UNL     1       3.193 -12.552  -4.447  0.00  0.00    +0.292 HD
ENDBRANCH  29  30
BRANCH  26  32
ATOM     32  C   UNL     1       2.675 -15.570   0.784  0.00  0.00    +0.258 C 
ATOM     33  O   UNL     1       2.927 -16.756   0.817  0.00  0.00    -0.296 OA
ENDBRANCH  26  32
ENDBRANCH  22  24
ENDBRANCH  18  20
ENDBRANCH   1  18
TORSDOF 6
