REMARK  Name = ZINC23139808
REMARK  9 active torsions:
REMARK  status: ('A' for Active; 'I' for Inactive)
REMARK    1  A    between atoms: C_1  and  C_2
REMARK    2  A    between atoms: C_2  and  N_3
REMARK    3  A    between atoms: N_6  and  C_9
REMARK    4  A    between atoms: C_14  and  N_15
REMARK    5  A    between atoms: C_16  and  C_18
REMARK    6  A    between atoms: C_18  and  C_20
REMARK    7  A    between atoms: C_18  and  S_21
REMARK    8  A    between atoms: S_21  and  C_22
REMARK    9  A    between atoms: C_25  and  N_28
REMARK                            x       y       z     vdW  Elec       q    Type
REMARK                         _______ _______ _______ _____ _____    ______ ____
ROOT
ATOM      1  C   UNL     1       0.641  -2.890   5.080  0.00  0.00    +0.051 A 
ATOM      2  C   UNL     1      -0.569  -3.532   5.298  0.00  0.00    +0.026 A 
ATOM      3  C   UNL     1      -0.710  -4.394   6.370  0.00  0.00    +0.022 A 
ATOM      4  C   UNL     1       0.352  -4.618   7.228  0.00  0.00    +0.043 A 
ATOM      5  C   UNL     1       1.562  -3.981   7.018  0.00  0.00    +0.045 A 
ATOM      6  C   UNL     1       1.714  -3.120   5.941  0.00  0.00    +0.056 A 
ATOM      7 CL   UNL     1       0.166  -5.701   8.572  0.00  0.00    -0.083 Cl
ENDROOT
BRANCH   1  11
ATOM      8  N   UNL     1       0.156  -0.542   1.707  0.00  0.00    +0.382 N 
ATOM      9  C   UNL     1      -0.445  -0.169   2.994  0.00  0.00    -0.060 C 
ATOM     10  C   UNL     1       0.491  -0.583   4.134  0.00  0.00    +0.086 C 
ATOM     11  N   UNL     1       0.787  -2.017   3.996  0.00  0.00    -0.332 N 
ATOM     12  C   UNL     1       1.241  -2.509   2.686  0.00  0.00    +0.086 C 
ATOM     13  C   UNL     1       0.269  -2.003   1.614  0.00  0.00    -0.060 C 
ATOM     14  H   UNL     1       1.074  -0.130   1.635  0.00  0.00    -0.082 HD
BRANCH   8  16
ATOM     15  C   UNL     1      -0.707   1.482   0.633  0.00  0.00    -0.017 C 
ATOM     16  C   UNL     1      -0.689  -0.048   0.612  0.00  0.00    -0.082 C 
ENDBRANCH   8  16
ENDBRANCH   1  11
BRANCH   6  17
ATOM     17  N   UNL     1       2.940  -2.478   5.723  0.00  0.00    -0.283 N 
ATOM     18  C   UNL     1       4.066  -2.966   6.282  0.00  0.00    +0.230 C 
ATOM     19  O   UNL     1       4.034  -4.013   6.893  0.00  0.00    -0.274 OA
ATOM     20  H   UNL     1       2.979  -1.682   5.170  0.00  0.00    +0.155 HD
BRANCH  18  21
ATOM     21  C   UNL     1       5.363  -2.211   6.147  0.00  0.00    +0.134 C 
ATOM     22  C   UNL     1       5.452  -1.151   7.247  0.00  0.00    +0.029 C 
BRANCH  21  23
ATOM     23  S   UNL     1       6.753  -3.365   6.305  0.00  0.00    -0.113 S 
BRANCH  23  24
ATOM     24  C   UNL     1       6.601  -4.412   4.896  0.00  0.00    +0.009 A 
ATOM     25  C   UNL     1       5.648  -4.136   3.923  0.00  0.00    +0.017 A 
ATOM     26  C   UNL     1       5.531  -4.958   2.820  0.00  0.00    +0.034 A 
ATOM     27  C   UNL     1       6.361  -6.056   2.684  0.00  0.00    +0.126 A 
ATOM     28  C   UNL     1       7.310  -6.335   3.651  0.00  0.00    +0.034 A 
ATOM     29  C   UNL     1       7.436  -5.513   4.753  0.00  0.00    +0.017 A 
BRANCH  27  30
ATOM     30  N   UNL     1       6.233  -6.936   1.500  0.00  0.00    +0.056 N 
ATOM     31  O   UNL     1       5.403  -6.694   0.655  0.00  0.00    -0.126 OA
ATOM     32  O   UNL     1       6.957  -7.896   1.380  0.00  0.00    -0.126 OA
ENDBRANCH  27  30
ENDBRANCH  23  24
ENDBRANCH  21  23
ENDBRANCH  18  21
ENDBRANCH   6  17
TORSDOF 7
