REMARK  Name = ZINC01930611
REMARK  6 active torsions:
REMARK  status: ('A' for Active; 'I' for Inactive)
REMARK    1  A    between atoms: C_1  and  C_2
REMARK    2  A    between atoms: C_5  and  C_8
REMARK    3  A    between atoms: C_8  and  N_9
REMARK    4  A    between atoms: C_10  and  C_12
REMARK    5  A    between atoms: C_14  and  C_18
REMARK    6  A    between atoms: C_16  and  N_17
REMARK                            x       y       z     vdW  Elec       q    Type
REMARK                         _______ _______ _______ _____ _____    ______ ____
ROOT
ATOM      1  C   UNL     1       0.605  -2.130  -1.026  0.00  0.00    +0.065 A 
ATOM      2  C   UNL     1       0.028  -2.867   0.010  0.00  0.00    +0.031 A 
ATOM      3  C   UNL     1       0.087  -4.223  -0.070  0.00  0.00    +0.022 A 
ATOM      4  S   UNL     1       0.956  -4.490  -1.604  0.00  0.00    -0.073 S 
ATOM      5  C   UNL     1       1.196  -2.839  -2.071  0.00  0.00    +0.076 A 
ENDROOT
BRANCH   3   6
ATOM      6  C   UNL     1      -0.438  -5.226   0.879  0.00  0.00    -0.011 A 
ATOM      7  C   UNL     1      -1.093  -4.816   2.042  0.00  0.00    +0.009 A 
ATOM      8  C   UNL     1      -1.586  -5.758   2.921  0.00  0.00    +0.001 A 
ATOM      9  C   UNL     1      -1.423  -7.107   2.657  0.00  0.00    +0.000 A 
ATOM     10  C   UNL     1      -0.770  -7.520   1.509  0.00  0.00    +0.001 A 
ATOM     11  C   UNL     1      -0.278  -6.589   0.619  0.00  0.00    +0.009 A 
ENDBRANCH   3   6
BRANCH   1  13
ATOM     12  N   UNL     1       0.002  -0.004   0.002  0.00  0.00    -0.307 N 
ATOM     13  C   UNL     1       0.585  -0.664  -1.018  0.00  0.00    +0.247 C 
ATOM     14  O   UNL     1       1.095  -0.044  -1.933  0.00  0.00    -0.270 OA
ATOM     15  H   UNL     1      -0.404  -0.499   0.731  0.00  0.00    +0.149 HD
BRANCH  12  16
ATOM     16  C   UNL     1      -0.018   1.461   0.010  0.00  0.00    +0.139 C 
BRANCH  16  21
ATOM     17  C   UNL     1      -2.723   3.325   4.764  0.00  0.00    +0.044 C 
ATOM     18  C   UNL     1      -2.017   2.839   3.524  0.00  0.00    -0.050 A 
ATOM     19  C   UNL     1      -0.651   2.626   3.545  0.00  0.00    +0.003 A 
ATOM     20  C   UNL     1      -0.004   2.181   2.407  0.00  0.00    +0.005 A 
ATOM     21  C   UNL     1      -0.723   1.947   1.250  0.00  0.00    -0.030 A 
ATOM     22  C   UNL     1      -2.088   2.164   1.228  0.00  0.00    +0.005 A 
ATOM     23  C   UNL     1      -2.736   2.606   2.367  0.00  0.00    +0.003 A 
ENDBRANCH  16  21
ENDBRANCH  12  16
ENDBRANCH   1  13
BRANCH   5  24
ATOM     24  N   UNL     1       1.820  -2.346  -3.200  0.00  0.00    -0.352 N 
ATOM     25  H   UNL     1       1.887  -1.389  -3.338  0.00  0.00    +0.143 HD
ATOM     26  H   UNL     1       2.192  -2.958  -3.854  0.00  0.00    +0.143 HD
ENDBRANCH   5  24
TORSDOF 5
