REMARK  Name = ZINC61679386
REMARK  3 active torsions:
REMARK  status: ('A' for Active; 'I' for Inactive)
REMARK    1  A    between atoms: C_1  and  C_2
REMARK    2  A    between atoms: C_2  and  C_4
REMARK    3  A    between atoms: C_2  and  N_7
REMARK                            x       y       z     vdW  Elec       q    Type
REMARK                         _______ _______ _______ _____ _____    ______ ____
ROOT
ATOM      1  N   UNL     1       1.054  -0.838   0.599  0.00  0.00    -0.284 NA
ATOM      2  C   UNL     1       0.676  -1.274   1.952  0.00  0.00    +0.113 C 
ATOM      3  C   UNL     1       1.814  -2.099   2.558  0.00  0.00    +0.175 C 
ATOM      4  O   UNL     1       2.118  -3.200   1.696  0.00  0.00    -0.374 OA
ATOM      5  C   UNL     1       2.494  -2.801   0.377  0.00  0.00    +0.135 C 
ATOM      6  C   UNL     1       1.350  -1.999  -0.251  0.00  0.00    +0.086 C 
ATOM      7  C   UNL     1       1.765  -1.537  -1.648  0.00  0.00    +0.021 C 
ATOM      8  C   UNL     1       2.059  -2.761  -2.517  0.00  0.00    +0.002 C 
ATOM      9  C   UNL     1       3.189  -3.580  -1.889  0.00  0.00    +0.003 C 
ATOM     10  C   UNL     1       2.777  -4.031  -0.486  0.00  0.00    +0.033 C 
ENDROOT
BRANCH   1  12
ATOM     11  C   UNL     1      -0.367   1.122   0.970  0.00  0.00    +0.034 C 
ATOM     12  C   UNL     1       0.002  -0.004   0.002  0.00  0.00    +0.140 C 
BRANCH  12  13
ATOM     13  C   UNL     1      -1.215  -0.850  -0.272  0.00  0.00    +0.227 C 
ATOM     14  O   UNL     1      -1.429  -1.839   0.397  0.00  0.00    -0.274 OA
ATOM     15  N   UNL     1      -2.065  -0.507  -1.260  0.00  0.00    -0.328 N 
ATOM     16  H   UNL     1      -1.894   0.284  -1.794  0.00  0.00    +0.145 HD
ATOM     17  H   UNL     1      -2.849  -1.051  -1.436  0.00  0.00    +0.145 HD
ENDBRANCH  12  13
ENDBRANCH   1  12
TORSDOF 2
