REMARK  Name = ZINC00648378
REMARK  15 active torsions:
REMARK  status: ('A' for Active; 'I' for Inactive)
REMARK    1  A    between atoms: C_1  and  C_2
REMARK    2  A    between atoms: C_3  and  C_33
REMARK    3  A    between atoms: C_4  and  C_25
REMARK    4  A    between atoms: C_10  and  C_15
REMARK    5  A    between atoms: C_18  and  O_23
REMARK    6  A    between atoms: C_19  and  O_21
REMARK    7  A    between atoms: O_21  and  C_22
REMARK    8  A    between atoms: O_23  and  C_24
REMARK    9  A    between atoms: C_28  and  S_31
REMARK   10  A    between atoms: S_31  and  C_32
REMARK   11  A    between atoms: C_33  and  O_35
REMARK   12  A    between atoms: O_35  and  C_36
REMARK   13  A    between atoms: C_36  and  C_37
REMARK   14  A    between atoms: C_37  and  C_38
REMARK   15  A    between atoms: C_37  and  C_39
REMARK                            x       y       z     vdW  Elec       q    Type
REMARK                         _______ _______ _______ _____ _____    ______ ____
ROOT
ATOM      1  C   UNL     1      -5.035   2.569  -2.419  0.00  0.00    +0.061 C 
ATOM      2  C   UNL     1      -4.313   2.199  -1.149  0.00  0.00    +0.016 C 
ATOM      3  C   UNL     1      -3.442   1.175  -1.151  0.00  0.00    +0.065 C 
ATOM      4  C   UNL     1      -2.699   0.782   0.092  0.00  0.00    +0.092 C 
ATOM      5  C   UNL     1      -3.360   1.355   1.321  0.00  0.00    +0.024 C 
ATOM      6  C   UNL     1      -4.234   2.378   1.220  0.00  0.00    +0.016 C 
ATOM      7  N   UNL     1      -4.547   2.907  -0.004  0.00  0.00    -0.321 N 
ATOM      8  C   UNL     1      -4.884   2.969   2.447  0.00  0.00    +0.059 C 
ATOM      9  C   UNL     1      -5.050   1.884   3.512  0.00  0.00    +0.032 C 
ATOM     10  C   UNL     1      -3.669   1.306   3.837  0.00  0.00    +0.088 C 
ATOM     11  C   UNL     1      -3.042   0.793   2.570  0.00  0.00    +0.162 C 
ATOM     12  O   UNL     1      -2.247  -0.124   2.626  0.00  0.00    -0.292 OA
ATOM     13  H   UNL     1      -4.992   3.911  -0.059  0.00  0.00    +0.152 HD
ENDROOT
BRANCH   9  14
ATOM     14  C   UNL     1      -5.655   2.481   4.757  0.00  0.00    -0.040 A 
ATOM     15  C   UNL     1      -5.008   3.512   5.413  0.00  0.00    +0.008 A 
ATOM     16  C   UNL     1      -5.559   4.062   6.555  0.00  0.00    +0.049 A 
ATOM     17  C   UNL     1      -6.762   3.580   7.045  0.00  0.00    +0.161 A 
ATOM     18  C   UNL     1      -7.413   2.543   6.385  0.00  0.00    +0.162 A 
ATOM     19  C   UNL     1      -6.858   1.999   5.238  0.00  0.00    +0.053 A 
BRANCH  18  20
ATOM     20  O   UNL     1      -8.594   2.067   6.862  0.00  0.00    -0.491 OA
ATOM     21  C   UNL     1      -9.206   1.001   6.134  0.00  0.00    +0.277 C 
ENDBRANCH  18  20
BRANCH  17  22
ATOM     22  O   UNL     1      -7.305   4.121   8.169  0.00  0.00    -0.491 OA
ATOM     23  C   UNL     1      -6.582   5.183   8.793  0.00  0.00    +0.277 C 
ENDBRANCH  17  22
ENDBRANCH   9  14
BRANCH   4  24
ATOM     24  C   UNL     1      -1.285   1.294   0.006  0.00  0.00    -0.035 A 
ATOM     25  C   UNL     1      -0.226   0.406   0.050  0.00  0.00    +0.005 A 
ATOM     26  C   UNL     1       1.072   0.872  -0.035  0.00  0.00    +0.015 A 
ATOM     27  C   UNL     1       1.312   2.235  -0.158  0.00  0.00    +0.008 A 
ATOM     28  C   UNL     1       0.246   3.125  -0.195  0.00  0.00    +0.015 A 
ATOM     29  C   UNL     1      -1.049   2.652  -0.111  0.00  0.00    +0.005 A 
BRANCH  27  30
ATOM     30  S   UNL     1       2.966   2.833  -0.266  0.00  0.00    -0.129 S 
ATOM     31  C   UNL     1       2.773   4.631  -0.410  0.00  0.00    +0.090 C 
ENDBRANCH  27  30
ENDBRANCH   4  24
BRANCH   3  32
ATOM     32  C   UNL     1      -3.222   0.453  -2.348  0.00  0.00    +0.338 C 
ATOM     33  O   UNL     1      -3.905   0.680  -3.329  0.00  0.00    -0.245 OA
BRANCH  32  34
ATOM     34  O   UNL     1      -2.255  -0.487  -2.401  0.00  0.00    -0.461 OA
BRANCH  34  35
ATOM     35  C   UNL     1      -2.089  -1.177  -3.641  0.00  0.00    +0.235 C 
BRANCH  35  36
ATOM     36  C   UNL     1      -0.955  -2.196  -3.510  0.00  0.00    +0.020 C 
ATOM     37  C   UNL     1      -0.858  -3.020  -4.795  0.00  0.00    +0.010 C 
ATOM     38  C   UNL     1       0.366  -1.461  -3.275  0.00  0.00    +0.010 C 
ENDBRANCH  35  36
ENDBRANCH  34  35
ENDBRANCH  32  34
ENDBRANCH   3  32
TORSDOF 9
