REMARK  Name = ZINC04187678
REMARK  4 active torsions:
REMARK  status: ('A' for Active; 'I' for Inactive)
REMARK    1  A    between atoms: C_5  and  O_16
REMARK    2  A    between atoms: C_6  and  C_7
REMARK    3  A    between atoms: N_8  and  N_9
REMARK    4  A    between atoms: N_14  and  N_15
REMARK                            x       y       z     vdW  Elec       q    Type
REMARK                         _______ _______ _______ _____ _____    ______ ____
ROOT
ATOM      1  C   UNL     1      -1.262  -0.762   0.011  0.00  0.00    +0.142 C 
ATOM      2  N   UNL     1      -1.240  -2.060   0.003  0.00  0.00    -0.187 NA
ENDROOT
BRANCH   1   8
ATOM      3  C   UNL     1      -0.017   1.392   0.010  0.00  0.00    +0.028 A 
ATOM      4  C   UNL     1       1.170   2.097   0.002  0.00  0.00    +0.020 A 
ATOM      5  C   UNL     1       2.381   1.424  -0.013  0.00  0.00    +0.034 A 
ATOM      6  C   UNL     1       2.412   0.041  -0.022  0.00  0.00    +0.061 A 
ATOM      7  C   UNL     1       1.229  -0.681  -0.014  0.00  0.00    +0.139 A 
ATOM      8  C   UNL     1       0.002  -0.004   0.002  0.00  0.00    +0.038 A 
ATOM      9 BR   UNL     1       4.071  -0.866  -0.044  0.00  0.00    -0.046 Br
ATOM     10 BR   UNL     1       1.144   3.987   0.013  0.00  0.00    -0.050 Br
BRANCH   7  11
ATOM     11  O   UNL     1       1.259  -2.039  -0.022  0.00  0.00    -0.505 OA
ATOM     12  H   UNL     1       1.277  -2.438   0.859  0.00  0.00    +0.292 HD
ENDBRANCH   7  11
ENDBRANCH   1   8
BRANCH   2  13
ATOM     13  N   UNL     1      -2.442  -2.781   0.011  0.00  0.00    -0.204 N 
ATOM     14  C   UNL     1      -2.418  -4.166   0.004  0.00  0.00    +0.253 A 
ATOM     15  N   UNL     1      -1.350  -4.929  -0.005  0.00  0.00    -0.110 NA
ATOM     16  N   UNL     1      -1.698  -6.166  -0.010  0.00  0.00    -0.135 NA
ATOM     17  C   UNL     1      -2.997  -6.266  -0.004  0.00  0.00    +0.245 A 
ATOM     18  N   UNL     1      -3.503  -4.996   0.010  0.00  0.00    -0.223 N 
ATOM     19  H   UNL     1      -3.289  -2.310   0.022  0.00  0.00    +0.177 HD
BRANCH  18  20
ATOM     20  N   UNL     1      -4.819  -4.633   0.025  0.00  0.00    -0.294 N 
ATOM     21  H   UNL     1      -5.177  -4.531  -0.913  0.00  0.00    +0.163 HD
ATOM     22  H   UNL     1      -5.371  -5.292   0.553  0.00  0.00    +0.163 HD
ENDBRANCH  18  20
ENDBRANCH   2  13
TORSDOF 4
