REMARK  Name = ZINC39550194
REMARK  7 active torsions:
REMARK  status: ('A' for Active; 'I' for Inactive)
REMARK    1  A    between atoms: C_1  and  C_2
REMARK    2  A    between atoms: C_2  and  C_3
REMARK    3  A    between atoms: C_3  and  N_4
REMARK    4  A    between atoms: C_11  and  O_33
REMARK    5  A    between atoms: C_13  and  C_17
REMARK    6  A    between atoms: N_19  and  C_20
REMARK    7  A    between atoms: C_22  and  O_32
REMARK                            x       y       z     vdW  Elec       q    Type
REMARK                         _______ _______ _______ _____ _____    ______ ____
ROOT
ATOM      1  C   UNL     1       1.010  -4.619  -0.573  0.00  0.00    +0.229 C 
ATOM      2  O   UNL     1       0.057  -5.347  -0.397  0.00  0.00    -0.275 OA
ATOM      3  N   UNL     1       1.351  -4.246  -1.823  0.00  0.00    -0.297 N 
ATOM      4  H   UNL     1       2.113  -3.663  -1.964  0.00  0.00    +0.150 HD
ENDROOT
BRANCH   3   5
ATOM      5  C   UNL     1       0.569  -4.720  -2.968  0.00  0.00    +0.226 C 
ATOM      6  C   UNL     1       1.495  -4.786  -4.168  0.00  0.00    +0.132 C 
ATOM      7  C   UNL     1       1.136  -4.032  -5.287  0.00  0.00    +0.036 A 
ATOM      8  C   UNL     1       1.940  -4.036  -6.445  0.00  0.00    +0.013 A 
ATOM      9  C   UNL     1       1.568  -3.293  -7.523  0.00  0.00    +0.001 A 
ATOM     10  C   UNL     1       0.408  -2.525  -7.507  0.00  0.00    +0.002 A 
ATOM     11  C   UNL     1      -0.408  -2.481  -6.417  0.00  0.00    +0.024 A 
ATOM     12  C   UNL     1      -0.086  -3.224  -5.268  0.00  0.00    +0.044 A 
ATOM     13  N   UNL     1      -0.890  -3.179  -4.198  0.00  0.00    -0.283 N 
ATOM     14  C   UNL     1      -0.658  -3.845  -3.086  0.00  0.00    +0.245 C 
ATOM     15  O   UNL     1      -1.434  -3.757  -2.152  0.00  0.00    -0.273 OA
ATOM     16  H   UNL     1      -1.686  -2.627  -4.245  0.00  0.00    +0.155 HD
BRANCH   6  17
ATOM     17  O   UNL     1       2.604  -5.532  -4.154  0.00  0.00    -0.508 OA
ATOM     18  H   UNL     1       3.113  -5.494  -4.975  0.00  0.00    +0.292 HD
ENDBRANCH   6  17
ENDBRANCH   3   5
BRANCH   1  27
ATOM     19  N   UNL     1       0.762  -1.976   1.234  0.00  0.00    -0.270 N 
ATOM     20  C   UNL     1      -0.277  -2.688   1.841  0.00  0.00    +0.042 A 
ATOM     21  C   UNL     1      -1.489  -2.064   2.106  0.00  0.00    +0.024 A 
ATOM     22  C   UNL     1      -2.511  -2.774   2.706  0.00  0.00    +0.002 A 
ATOM     23  C   UNL     1      -2.328  -4.102   3.044  0.00  0.00    +0.000 A 
ATOM     24  C   UNL     1      -1.121  -4.725   2.782  0.00  0.00    +0.008 A 
ATOM     25  C   UNL     1      -0.096  -4.022   2.182  0.00  0.00    +0.003 A 
ATOM     26  C   UNL     1       1.220  -4.697   1.894  0.00  0.00    +0.167 C 
ATOM     27  C   UNL     1       1.814  -4.131   0.604  0.00  0.00    +0.194 C 
ATOM     28  C   UNL     1       1.777  -2.627   0.636  0.00  0.00    +0.235 C 
ATOM     29  O   UNL     1       2.675  -1.994   0.122  0.00  0.00    -0.274 OA
BRANCH  26  30
ATOM     30  O   UNL     1       2.122  -4.462   2.977  0.00  0.00    -0.386 OA
ATOM     31  H   UNL     1       1.809  -4.796   3.829  0.00  0.00    +0.210 HD
ENDBRANCH  26  30
BRANCH  19  32
ATOM     32  C   UNL     1       0.742  -0.511   1.242  0.00  0.00    +0.113 C 
BRANCH  32  34
ATOM     33  C   UNL     1      -0.019   1.526   0.010  0.00  0.00    +0.005 C 
ATOM     34  C   UNL     1       0.002  -0.004   0.002  0.00  0.00    +0.016 C 
ENDBRANCH  32  34
ENDBRANCH  19  32
ENDBRANCH   1  27
TORSDOF 6
