REMARK  Name = ZINC39711415
REMARK  11 active torsions:
REMARK  status: ('A' for Active; 'I' for Inactive)
REMARK    1  A    between atoms: C_1  and  C_2
REMARK    2  A    between atoms: C_2  and  O_3
REMARK    3  A    between atoms: O_3  and  C_4
REMARK    4  A    between atoms: C_11  and  C_16
REMARK    5  A    between atoms: C_16  and  C_18
REMARK    6  A    between atoms: C_16  and  N_28
REMARK    7  A    between atoms: N_23  and  C_24
REMARK    8  A    between atoms: C_24  and  C_25
REMARK    9  A    between atoms: C_24  and  C_26
REMARK   10  A    between atoms: C_24  and  C_27
REMARK   11  A    between atoms: N_31  and  C_34
REMARK                            x       y       z     vdW  Elec       q    Type
REMARK                         _______ _______ _______ _____ _____    ______ ____
ROOT
ATOM      1  C   UNL     1       0.292  -6.658   4.514  0.00  0.00    +0.115 C 
ENDROOT
BRANCH   1   9
ATOM      2  C   UNL     1      -0.337  -9.998  -0.233  0.00  0.00    +0.121 A 
ATOM      3  C   UNL     1       1.031  -9.925  -0.523  0.00  0.00    +0.047 A 
ATOM      4  C   UNL     1       1.863  -9.046   0.093  0.00  0.00    +0.027 A 
ATOM      5  C   UNL     1       1.371  -8.158   1.068  0.00  0.00    +0.041 A 
ATOM      6  N   UNL     1       2.199  -7.300   1.665  0.00  0.00    -0.284 N 
ATOM      7  C   UNL     1       1.805  -6.439   2.587  0.00  0.00    +0.226 C 
ATOM      8  O   UNL     1       2.608  -5.680   3.097  0.00  0.00    -0.275 OA
ATOM      9  C   UNL     1       0.353  -6.401   3.007  0.00  0.00    +0.119 C 
ATOM     10  C   UNL     1      -0.593  -7.374   2.331  0.00  0.00    -0.003 C 
ATOM     11  C   UNL     1      -0.065  -8.211   1.394  0.00  0.00    -0.004 A 
ATOM     12  C   UNL     1      -0.909  -9.177   0.690  0.00  0.00    +0.055 A 
ATOM     13  H   UNL     1       3.135  -7.309   1.410  0.00  0.00    +0.155 HD
BRANCH   2  14
ATOM     14  O   UNL     1      -1.109 -10.903  -0.890  0.00  0.00    -0.492 OA
BRANCH  14  16
ATOM     15  C   UNL     1      -1.480 -12.686  -2.480  0.00  0.00    +0.048 C 
ATOM     16  C   UNL     1      -0.457 -11.740  -1.848  0.00  0.00    +0.225 C 
ENDBRANCH  14  16
ENDBRANCH   2  14
ENDBRANCH   1   9
BRANCH   1  17
ATOM     17  N   UNL     1       0.965  -7.928   4.821  0.00  0.00    -0.299 NA
ATOM     18  C   UNL     1       2.341  -7.934   4.304  0.00  0.00    +0.066 C 
ATOM     19  C   UNL     1       3.023  -9.246   4.696  0.00  0.00    -0.063 C 
ATOM     20  N   UNL     1       2.268 -10.376   4.140  0.00  0.00    +0.383 N 
ATOM     21  C   UNL     1       0.904 -10.371   4.683  0.00  0.00    -0.063 C 
ATOM     22  C   UNL     1       0.203  -9.068   4.292  0.00  0.00    +0.066 C 
ATOM     23  H   UNL     1       2.230 -10.293   3.135  0.00  0.00    -0.081 HD
BRANCH  20  24
ATOM     24  C   UNL     1       2.934 -11.635   4.501  0.00  0.00    -0.068 C 
ATOM     25  C   UNL     1       4.355 -11.641   3.933  0.00  0.00    -0.015 C 
ATOM     26  C   UNL     1       5.049 -12.952   4.309  0.00  0.00    -0.002 C 
ATOM     27  C   UNL     1       4.263 -14.130   3.729  0.00  0.00    -0.000 C 
ATOM     28  C   UNL     1       2.842 -14.123   4.297  0.00  0.00    -0.002 C 
ATOM     29  C   UNL     1       2.148 -12.812   3.921  0.00  0.00    -0.015 C 
ENDBRANCH  20  24
ENDBRANCH   1  17
BRANCH   1  30
ATOM     30  C   UNL     1       0.993  -5.518   5.254  0.00  0.00    +0.236 C 
ATOM     31  N   UNL     1       2.377  -5.374   4.783  0.00  0.00    -0.148 NA
ATOM     32  N   UNL     1       3.143  -5.567   5.729  0.00  0.00    -0.069 NA
ATOM     33  N   UNL     1       2.474  -5.854   6.919  0.00  0.00    -0.179 N 
ATOM     34  N   UNL     1       1.120  -5.837   6.692  0.00  0.00    -0.179 NA
ATOM     35  H   UNL     1       2.898  -6.036   7.772  0.00  0.00    +0.191 HD
BRANCH  34  36
ATOM     36  C   UNL     1       0.518  -7.143   6.996  0.00  0.00    +0.035 C 
ATOM     37  C   UNL     1       1.498  -8.256   6.620  0.00  0.00    +0.029 C 
ATOM     38  C   UNL     1       0.205  -7.224   8.491  0.00  0.00    +0.029 C 
ATOM     39  C   UNL     1      -0.774  -7.308   6.194  0.00  0.00    +0.029 C 
ENDBRANCH  34  36
ENDBRANCH   1  30
TORSDOF 7
