REMARK  Name = ZINC39469760
REMARK  8 active torsions:
REMARK  status: ('A' for Active; 'I' for Inactive)
REMARK    1  A    between atoms: C_1  and  C_2
REMARK    2  A    between atoms: C_2  and  O_3
REMARK    3  A    between atoms: O_3  and  C_4
REMARK    4  A    between atoms: P_13  and  S_29
REMARK    5  A    between atoms: C_21  and  C_22
REMARK    6  A    between atoms: C_27  and  O_28
REMARK    7  A    between atoms: S_29  and  O_32
REMARK    8  A    between atoms: O_32  and  C_33
REMARK                            x       y       z     vdW  Elec       q    Type
REMARK                         _______ _______ _______ _____ _____    ______ ____
ROOT
ATOM      1  C   UNL     1       0.777  -1.810  -1.336  0.00  0.00    +0.124 C 
ATOM      2  C   UNL     1       0.265  -2.637  -0.425  0.00  0.00    +0.023 C 
ATOM      3  C   UNL     1       0.379  -4.130  -0.624  0.00  0.00    +0.019 C 
ATOM      4  C   UNL     1       1.774  -4.578  -0.182  0.00  0.00    -0.002 C 
ATOM      5  C   UNL     1       1.983  -6.066  -0.486  0.00  0.00    -0.020 C 
ATOM      6  C   UNL     1       3.400  -6.426  -0.021  0.00  0.00    +0.158 C 
ATOM      7  O   UNL     1       3.634  -7.829  -0.234  0.00  0.00    -0.301 OA
ATOM      8  P   UNL     1       3.299  -8.436  -1.706  0.00  0.00    +0.431 P 
ATOM      9  O   UNL     1       3.070  -9.896  -1.619  0.00  0.00    -0.246 OA
ATOM     10  N   UNL     1       1.919  -7.668  -2.186  0.00  0.00    -0.271 NA
ATOM     11  N   UNL     1       1.813  -6.320  -1.919  0.00  0.00    +0.398 N 
ATOM     12  C   UNL     1       0.462  -5.929  -2.351  0.00  0.00    -0.046 C 
ATOM     13  C   UNL     1       0.197  -4.447  -2.111  0.00  0.00    +0.005 C 
ATOM     14  C   UNL     1       1.165  -3.625  -2.921  0.00  0.00    -0.013 C 
ATOM     15  C   UNL     1       1.457  -2.365  -2.530  0.00  0.00    +0.023 C 
ATOM     16  H   UNL     1       1.211  -8.149  -2.643  0.00  0.00    +0.113 HD
ATOM     17  H   UNL     1       2.511  -5.810  -2.439  0.00  0.00    -0.055 HD
ENDROOT
BRANCH  15  18
ATOM     18  C   UNL     1       2.423  -1.540  -3.295  0.00  0.00    +0.027 A 
ATOM     19  C   UNL     1       2.058  -0.994  -4.524  0.00  0.00    +0.012 A 
ATOM     20  C   UNL     1       2.960  -0.227  -5.231  0.00  0.00    +0.001 A 
ATOM     21  C   UNL     1       4.228   0.003  -4.725  0.00  0.00    +0.004 A 
ATOM     22  C   UNL     1       4.600  -0.533  -3.507  0.00  0.00    +0.046 A 
ATOM     23  C   UNL     1       3.702  -1.301  -2.783  0.00  0.00    +0.125 A 
BRANCH  23  24
ATOM     24  O   UNL     1       4.065  -1.825  -1.583  0.00  0.00    -0.506 OA
ATOM     25  H   UNL     1       4.468  -2.701  -1.643  0.00  0.00    +0.292 HD
ENDBRANCH  23  24
ENDBRANCH  15  18
BRANCH   8  26
ATOM     26  S   UNL     1       4.884  -8.021  -3.051  0.00  0.00    +0.209 S 
ATOM     27  O   UNL     1       4.580  -8.703  -4.260  0.00  0.00    -0.126 OA
ATOM     28  O   UNL     1       5.101  -6.617  -3.002  0.00  0.00    -0.126 OA
BRANCH  26  29
ATOM     29  O   UNL     1       6.137  -8.675  -2.486  0.00  0.00    -0.339 OA
BRANCH  29  30
ATOM     30  C   UNL     1       6.171 -10.025  -2.635  0.00  0.00    +0.157 A 
ATOM     31  C   UNL     1       5.637 -10.847  -1.654  0.00  0.00    +0.048 A 
ATOM     32  C   UNL     1       5.673 -12.219  -1.809  0.00  0.00    +0.004 A 
ATOM     33  C   UNL     1       6.242 -12.773  -2.941  0.00  0.00    +0.000 A 
ATOM     34  C   UNL     1       6.776 -11.956  -3.920  0.00  0.00    +0.004 A 
ATOM     35  C   UNL     1       6.737 -10.583  -3.773  0.00  0.00    +0.048 A 
ENDBRANCH  29  30
ENDBRANCH  26  29
ENDBRANCH   8  26
BRANCH   1  36
ATOM     36  O   UNL     1       0.671  -0.465  -1.174  0.00  0.00    -0.492 OA
BRANCH  36  38
ATOM     37  C   UNL     1      -0.019   1.526   0.010  0.00  0.00    +0.048 C 
ATOM     38  C   UNL     1       0.002  -0.004   0.002  0.00  0.00    +0.225 C 
ENDBRANCH  36  38
ENDBRANCH   1  36
TORSDOF 7
