REMARK  Name = ZINC62469892
REMARK  6 active torsions:
REMARK  status: ('A' for Active; 'I' for Inactive)
REMARK    1  A    between atoms: C_1  and  C_2
REMARK    2  A    between atoms: C_4  and  C_10
REMARK    3  A    between atoms: C_5  and  C_7
REMARK    4  A    between atoms: C_13  and  O_17
REMARK    5  A    between atoms: C_14  and  N_16
REMARK    6  A    between atoms: O_17  and  C_18
REMARK                            x       y       z     vdW  Elec       q    Type
REMARK                         _______ _______ _______ _____ _____    ______ ____
ROOT
ATOM      1  C   UNL     1      -1.646  -3.428   0.070  0.00  0.00    +0.004 A 
ATOM      2  C   UNL     1      -1.442  -4.537  -0.753  0.00  0.00    +0.014 A 
ATOM      3  C   UNL     1      -2.322  -5.598  -0.713  0.00  0.00    +0.048 A 
ATOM      4  C   UNL     1      -3.411  -5.568   0.145  0.00  0.00    +0.141 A 
ATOM      5  C   UNL     1      -3.621  -4.464   0.971  0.00  0.00    +0.067 A 
ATOM      6  C   UNL     1      -2.737  -3.399   0.938  0.00  0.00    +0.036 A 
ENDROOT
BRANCH   1  10
ATOM      7  C   UNL     1       1.181   0.064   2.226  0.00  0.00    +0.073 C 
ATOM      8  C   UNL     1       0.583  -0.700   1.074  0.00  0.00    +0.077 A 
ATOM      9  N   UNL     1      -0.253  -1.709   1.121  0.00  0.00    -0.243 NA
ATOM     10  C   UNL     1      -0.702  -2.289   0.027  0.00  0.00    +0.093 A 
ATOM     11  C   UNL     1      -0.227  -1.759  -1.182  0.00  0.00    +0.128 A 
ATOM     12  S   UNL     1       0.827  -0.453  -0.572  0.00  0.00    -0.065 S 
BRANCH  11  13
ATOM     13  C   UNL     1      -0.509  -2.147  -2.513  0.00  0.00    +0.395 C 
ATOM     14  O   UNL     1      -1.486  -2.847  -2.753  0.00  0.00    -0.240 OA
ATOM     15  O   UNL     1       0.223  -1.783  -3.425  0.00  0.00    -0.240 OA
ENDBRANCH  11  13
ENDBRANCH   1  10
BRANCH   5  16
ATOM     16  N   UNL     1      -4.721  -4.435   1.836  0.00  0.00    -0.355 N 
ATOM     17  H   UNL     1      -5.338  -5.184   1.861  0.00  0.00    +0.142 HD
ATOM     18  H   UNL     1      -4.867  -3.667   2.410  0.00  0.00    +0.142 HD
ENDBRANCH   5  16
BRANCH   4  19
ATOM     19  O   UNL     1      -4.275  -6.617   0.181  0.00  0.00    -0.493 OA
ATOM     20  C   UNL     1      -4.000  -7.714  -0.692  0.00  0.00    +0.277 C 
ENDBRANCH   4  19
TORSDOF 4
