REMARK  Name = ZINC35129632
REMARK  14 active torsions:
REMARK  status: ('A' for Active; 'I' for Inactive)
REMARK    1  A    between atoms: C_1  and  C_2
REMARK    2  A    between atoms: C_2  and  C_3
REMARK    3  A    between atoms: C_3  and  C_4
REMARK    4  A    between atoms: C_4  and  C_5
REMARK    5  A    between atoms: C_5  and  C_7
REMARK    6  A    between atoms: C_5  and  C_9
REMARK    7  A    between atoms: C_7  and  C_8
REMARK    8  A    between atoms: C_16  and  C_18
REMARK    9  A    between atoms: C_19  and  C_21
REMARK   10  A    between atoms: C_21  and  S_22
REMARK   11  A    between atoms: S_22  and  C_23
REMARK   12  A    between atoms: C_26  and  C_35
REMARK   13  A    between atoms: N_27  and  C_28
REMARK   14  A    between atoms: C_31  and  C_34
REMARK                            x       y       z     vdW  Elec       q    Type
REMARK                         _______ _______ _______ _____ _____    ______ ____
ROOT
ATOM      1  C   UNL     1       5.049  -6.262   6.881  0.00  0.00    +0.173 C 
ENDROOT
BRANCH   1  11
ATOM      2  C   UNL     1       1.968  -3.498   2.308  0.00  0.00    +0.219 C 
ATOM      3  O   UNL     1       1.543  -3.946   1.265  0.00  0.00    -0.275 OA
ATOM      4  N   UNL     1       2.326  -4.333   3.304  0.00  0.00    -0.295 N 
ATOM      5  C   UNL     1       2.942  -3.811   4.533  0.00  0.00    +0.127 C 
ATOM      6  C   UNL     1       4.279  -4.529   4.754  0.00  0.00    +0.127 C 
ATOM      7  N   UNL     1       4.061  -5.977   4.631  0.00  0.00    -0.298 N 
ATOM      8  C   UNL     1       3.446  -6.498   3.403  0.00  0.00    +0.130 C 
ATOM      9  C   UNL     1       2.103  -5.780   3.184  0.00  0.00    +0.090 C 
ATOM     10  C   UNL     1       1.568  -6.103   1.787  0.00  0.00    +0.029 C 
ATOM     11  C   UNL     1       4.419  -6.811   5.627  0.00  0.00    +0.226 C 
ATOM     12  O   UNL     1       4.234  -8.005   5.514  0.00  0.00    -0.275 OA
BRANCH   2  13
ATOM     13  C   UNL     1       2.097  -2.008   2.492  0.00  0.00    +0.075 C 
BRANCH  13  14
ATOM     14  C   UNL     1       0.983  -1.301   1.717  0.00  0.00    +0.009 C 
ATOM     15  C   UNL     1      -0.373  -1.674   2.319  0.00  0.00    +0.004 C 
ENDBRANCH  13  14
BRANCH  13  16
ATOM     16  C   UNL     1       3.457  -1.545   1.965  0.00  0.00    +0.013 C 
BRANCH  16  17
ATOM     17  C   UNL     1       3.639  -0.055   2.264  0.00  0.00    +0.000 C 
BRANCH  17  19
ATOM     18  C   UNL     1       5.181   1.897   2.036  0.00  0.00    +0.004 C 
ATOM     19  C   UNL     1       4.999   0.408   1.737  0.00  0.00    -0.003 C 
ENDBRANCH  17  19
ENDBRANCH  16  17
ENDBRANCH  13  16
ENDBRANCH   2  13
ENDBRANCH   1  11
BRANCH   1  20
ATOM     20  S   UNL     1       5.413  -7.624   8.022  0.00  0.00    -0.076 S 
BRANCH  20  21
ATOM     21  C   UNL     1       6.136  -6.829   9.418  0.00  0.00    +0.197 A 
ATOM     22  N   UNL     1       6.339  -5.539   9.562  0.00  0.00    -0.122 NA
ATOM     23  N   UNL     1       6.885  -5.299  10.700  0.00  0.00    -0.125 NA
ATOM     24  C   UNL     1       7.065  -6.424  11.358  0.00  0.00    +0.205 A 
ATOM     25  N   UNL     1       6.585  -7.440  10.559  0.00  0.00    -0.268 N 
BRANCH  25  26
ATOM     26  C   UNL     1       6.563  -8.811  10.851  0.00  0.00    +0.051 A 
ATOM     27  C   UNL     1       5.776  -9.289  11.889  0.00  0.00    +0.026 A 
ATOM     28  C   UNL     1       5.757 -10.640  12.175  0.00  0.00    +0.005 A 
ATOM     29  C   UNL     1       6.521 -11.517  11.427  0.00  0.00    -0.050 A 
ATOM     30  C   UNL     1       7.306 -11.044  10.391  0.00  0.00    +0.005 A 
ATOM     31  C   UNL     1       7.325  -9.694  10.098  0.00  0.00    +0.026 A 
ATOM     32  C   UNL     1       6.498 -12.991  11.740  0.00  0.00    +0.044 C 
ENDBRANCH  25  26
BRANCH  24  33
ATOM     33  C   UNL     1       7.660  -6.570  12.695  0.00  0.00    +0.172 A 
ATOM     34  C   UNL     1       7.858  -5.567  13.597  0.00  0.00    +0.053 A 
ATOM     35  C   UNL     1       8.449  -6.154  14.733  0.00  0.00    +0.042 A 
ATOM     36  C   UNL     1       8.583  -7.470  14.474  0.00  0.00    +0.196 A 
ATOM     37  O   UNL     1       8.100  -7.719  13.245  0.00  0.00    -0.460 OA
ENDBRANCH  24  33
ENDBRANCH  20  21
ENDBRANCH   1  20
TORSDOF 10
