REMARK  Name = ZINC40735699
REMARK  10 active torsions:
REMARK  status: ('A' for Active; 'I' for Inactive)
REMARK    1  A    between atoms: C_9  and  O_25
REMARK    2  A    between atoms: C_10  and  C_11
REMARK    3  A    between atoms: C_11  and  N_12
REMARK    4  A    between atoms: N_12  and  C_13
REMARK    5  A    between atoms: C_13  and  C_14
REMARK    6  A    between atoms: C_14  and  C_15
REMARK    7  A    between atoms: C_18  and  S_21
REMARK    8  A    between atoms: S_21  and  N_24
REMARK    9  A    between atoms: O_25  and  C_26
REMARK   10  A    between atoms: C_26  and  C_27
REMARK                            x       y       z     vdW  Elec       q    Type
REMARK                         _______ _______ _______ _____ _____    ______ ____
ROOT
ATOM      1  C   UNL     1      -0.016   1.357   0.009  0.00  0.00    +0.001 A 
ATOM      2  C   UNL     1       1.168   2.091   0.002  0.00  0.00    +0.001 A 
ATOM      3  C   UNL     1       2.378   1.468  -0.013  0.00  0.00    +0.009 A 
ATOM      4  C   UNL     1       2.438   0.064  -0.021  0.00  0.00    -0.013 A 
ATOM      5  C   UNL     1       1.232  -0.683  -0.013  0.00  0.00    -0.017 A 
ATOM      6  C   UNL     1       0.002  -0.004   0.002  0.00  0.00    +0.008 A 
ATOM      7  C   UNL     1       1.290  -2.087  -0.021  0.00  0.00    +0.012 A 
ATOM      8  C   UNL     1       2.497  -2.713  -0.036  0.00  0.00    +0.046 A 
ATOM      9  C   UNL     1       3.687  -1.979  -0.043  0.00  0.00    +0.123 A 
ATOM     10  C   UNL     1       3.668  -0.613  -0.037  0.00  0.00    -0.015 A 
ENDROOT
BRANCH  10  11
ATOM     11  C   UNL     1       4.960   0.163  -0.046  0.00  0.00    -0.042 C 
BRANCH  11  12
ATOM     12  N   UNL     1       5.393   0.408   1.336  0.00  0.00    +0.382 N 
ATOM     13  H   UNL     1       4.685   0.939   1.821  0.00  0.00    -0.085 HD
ATOM     14  H   UNL     1       5.534  -0.473   1.806  0.00  0.00    -0.085 HD
BRANCH  12  15
ATOM     15  C   UNL     1       6.652   1.165   1.327  0.00  0.00    -0.077 C 
BRANCH  15  16
ATOM     16  C   UNL     1       7.104   1.421   2.766  0.00  0.00    +0.016 C 
BRANCH  16  17
ATOM     17  C   UNL     1       8.396   2.197   2.757  0.00  0.00    -0.049 A 
ATOM     18  C   UNL     1       9.604   1.526   2.736  0.00  0.00    +0.005 A 
ATOM     19  C   UNL     1      10.789   2.238   2.728  0.00  0.00    +0.029 A 
ATOM     20  C   UNL     1      10.765   3.620   2.740  0.00  0.00    +0.105 A 
ATOM     21  C   UNL     1       9.557   4.291   2.760  0.00  0.00    +0.029 A 
ATOM     22  C   UNL     1       8.372   3.579   2.764  0.00  0.00    +0.005 A 
BRANCH  20  23
ATOM     23  S   UNL     1      12.276   4.528   2.730  0.00  0.00    +0.056 S 
ATOM     24  O   UNL     1      11.989   5.800   3.295  0.00  0.00    -0.153 OA
ATOM     25  O   UNL     1      13.271   3.665   3.263  0.00  0.00    -0.153 OA
BRANCH  23  26
ATOM     26  N   UNL     1      12.678   4.793   1.146  0.00  0.00    -0.204 NA
ATOM     27  H   UNL     1      13.177   5.587   0.899  0.00  0.00    +0.144 HD
ATOM     28  H   UNL     1      12.413   4.155   0.465  0.00  0.00    +0.144 HD
ENDBRANCH  23  26
ENDBRANCH  20  23
ENDBRANCH  16  17
ENDBRANCH  15  16
ENDBRANCH  12  15
ENDBRANCH  11  12
ENDBRANCH  10  11
BRANCH   9  29
ATOM     29  O   UNL     1       4.878  -2.633  -0.057  0.00  0.00    -0.487 OA
BRANCH  29  30
ATOM     30  C   UNL     1       4.834  -4.061  -0.064  0.00  0.00    +0.268 C 
BRANCH  30  31
ATOM     31  C   UNL     1       6.239  -4.607  -0.079  0.00  0.00    +0.043 A 
ATOM     32  C   UNL     1       6.875  -4.847  -1.285  0.00  0.00    +0.131 A 
ATOM     33  C   UNL     1       8.166  -5.348  -1.298  0.00  0.00    +0.039 A 
ATOM     34  C   UNL     1       8.818  -5.609  -0.107  0.00  0.00    +0.004 A 
ATOM     35  C   UNL     1       8.182  -5.370   1.097  0.00  0.00    +0.020 A 
ATOM     36  C   UNL     1       6.894  -4.863   1.111  0.00  0.00    +0.050 A 
ATOM     37 CL   UNL     1       6.100  -4.556   2.624  0.00  0.00    -0.083 Cl
ATOM     38  F   UNL     1       6.238  -4.592  -2.448  0.00  0.00    -0.205 F 
ENDBRANCH  30  31
ENDBRANCH  29  30
ENDBRANCH   9  29
TORSDOF 10
