REMARK  Name = ZINC04751060
REMARK  5 active torsions:
REMARK  status: ('A' for Active; 'I' for Inactive)
REMARK    1  A    between atoms: C_14  and  C_15
REMARK    2  A    between atoms: N_16  and  N_17
REMARK    3  A    between atoms: C_18  and  C_20
REMARK    4  A    between atoms: C_20  and  C_21
REMARK    5  A    between atoms: C_21  and  N_22
REMARK                            x       y       z     vdW  Elec       q    Type
REMARK                         _______ _______ _______ _____ _____    ______ ____
ROOT
ATOM      1  C   UNL     1      -8.418   3.199  -3.624  0.00  0.00    +0.139 C 
ATOM      2  N   UNL     1      -7.748   3.227  -2.509  0.00  0.00    -0.188 NA
ENDROOT
BRANCH   1  16
ATOM      3  C   UNL     1      -8.795   6.317  -7.649  0.00  0.00    +0.001 A 
ATOM      4  C   UNL     1      -9.465   6.194  -6.433  0.00  0.00    +0.001 A 
ATOM      5  C   UNL     1      -9.132   5.234  -5.529  0.00  0.00    +0.009 A 
ATOM      6  C   UNL     1      -8.088   4.339  -5.819  0.00  0.00    -0.009 A 
ATOM      7  C   UNL     1      -7.379   4.469  -7.094  0.00  0.00    -0.017 A 
ATOM      8  C   UNL     1      -7.771   5.491  -7.986  0.00  0.00    +0.008 A 
ATOM      9  C   UNL     1      -6.342   3.593  -7.416  0.00  0.00    +0.017 A 
ATOM     10  C   UNL     1      -5.972   2.591  -6.519  0.00  0.00    -0.017 A 
ATOM     11  C   UNL     1      -4.926   1.693  -6.823  0.00  0.00    +0.008 A 
ATOM     12  C   UNL     1      -4.590   0.728  -5.928  0.00  0.00    +0.001 A 
ATOM     13  C   UNL     1      -5.254   0.597  -4.709  0.00  0.00    +0.001 A 
ATOM     14  C   UNL     1      -6.270   1.430  -4.357  0.00  0.00    +0.009 A 
ATOM     15  C   UNL     1      -6.668   2.452  -5.238  0.00  0.00    -0.009 A 
ATOM     16  C   UNL     1      -7.717   3.332  -4.904  0.00  0.00    +0.010 A 
ENDBRANCH   1  16
BRANCH   2  17
ATOM     17  N   UNL     1      -6.379   3.523  -2.522  0.00  0.00    -0.207 N 
ATOM     18  C   UNL     1      -5.659   3.434  -1.385  0.00  0.00    +0.234 C 
ATOM     19  O   UNL     1      -6.176   3.014  -0.372  0.00  0.00    -0.274 OA
ATOM     20  H   UNL     1      -5.949   3.792  -3.348  0.00  0.00    +0.177 HD
BRANCH  18  21
ATOM     21  C   UNL     1      -4.213   3.858  -1.374  0.00  0.00    +0.121 C 
BRANCH  21  22
ATOM     22  C   UNL     1      -3.671   3.784   0.054  0.00  0.00    +0.155 C 
BRANCH  22  23
ATOM     23  N   UNL     1      -2.265   4.196   0.065  0.00  0.00    -0.243 N 
ATOM     24  C   UNL     1      -1.168   3.384  -0.100  0.00  0.00    +0.089 A 
ATOM     25  C   UNL     1      -1.000   2.021  -0.321  0.00  0.00    +0.029 A 
ATOM     26  C   UNL     1       0.259   1.503  -0.443  0.00  0.00    +0.002 A 
ATOM     27  C   UNL     1       1.374   2.328  -0.357  0.00  0.00    +0.002 A 
ATOM     28  C   UNL     1       1.235   3.668  -0.146  0.00  0.00    +0.032 A 
ATOM     29  C   UNL     1      -0.045   4.223  -0.013  0.00  0.00    +0.113 A 
ATOM     30  N   UNL     1      -0.488   5.479   0.196  0.00  0.00    -0.129 NA
ATOM     31  N   UNL     1      -1.773   5.497   0.247  0.00  0.00    -0.065 NA
ENDBRANCH  22  23
ENDBRANCH  21  22
ENDBRANCH  18  21
ENDBRANCH   2  17
TORSDOF 5
