REMARK  Name = ZINC15682197
REMARK  12 active torsions:
REMARK  status: ('A' for Active; 'I' for Inactive)
REMARK    1  A    between atoms: C_1  and  C_2
REMARK    2  A    between atoms: C_5  and  S_8
REMARK    3  A    between atoms: S_8  and  C_9
REMARK    4  A    between atoms: C_9  and  C_10
REMARK    5  A    between atoms: C_11  and  C_34
REMARK    6  A    between atoms: C_13  and  C_15
REMARK    7  A    between atoms: C_18  and  C_21
REMARK    8  A    between atoms: N_23  and  C_24
REMARK    9  A    between atoms: C_24  and  C_25
REMARK   10  A    between atoms: C_25  and  C_26
REMARK   11  A    between atoms: C_26  and  N_69
REMARK   12  A    between atoms: C_31  and  C_33
REMARK                            x       y       z     vdW  Elec       q    Type
REMARK                         _______ _______ _______ _____ _____    ______ ____
ROOT
ATOM      1  C   UNL     1       5.548  10.660   0.272  0.00  0.00    +0.037 A 
ATOM      2  C   UNL     1       6.787  10.069   0.535  0.00  0.00    +0.014 A 
ATOM      3  C   UNL     1       6.869   8.713   0.752  0.00  0.00    +0.014 A 
ATOM      4  C   UNL     1       5.715   7.926   0.711  0.00  0.00    +0.037 A 
ATOM      5  C   UNL     1       4.477   8.517   0.443  0.00  0.00    +0.014 A 
ATOM      6  C   UNL     1       4.394   9.874   0.231  0.00  0.00    +0.014 A 
ENDROOT
BRANCH   1  10
ATOM      7  C   UNL     1       4.671  14.080  -0.368  0.00  0.00    +0.093 A 
ATOM      8  C   UNL     1       6.002  14.207  -0.202  0.00  0.00    +0.127 A 
ATOM      9  O   UNL     1       6.492  12.978   0.052  0.00  0.00    -0.440 OA
ATOM     10  C   UNL     1       5.459  12.116   0.040  0.00  0.00    +0.228 A 
ATOM     11  N   UNL     1       4.360  12.785  -0.221  0.00  0.00    -0.213 NA
ATOM     12  C   UNL     1       6.796  15.485  -0.286  0.00  0.00    +0.088 C 
BRANCH   7  13
ATOM     13  C   UNL     1       3.705  15.196  -0.672  0.00  0.00    +0.133 C 
BRANCH  13  14
ATOM     14  S   UNL     1       3.550  15.389  -2.469  0.00  0.00    -0.119 S 
BRANCH  14  19
ATOM     15  C   UNL     1      -0.381  19.923  -3.118  0.00  0.00    +0.044 C 
ATOM     16  C   UNL     1       0.601  18.791  -2.956  0.00  0.00    -0.050 A 
ATOM     17  C   UNL     1       1.139  18.180  -4.073  0.00  0.00    +0.004 A 
ATOM     18  C   UNL     1       2.039  17.142  -3.929  0.00  0.00    +0.015 A 
ATOM     19  C   UNL     1       2.403  16.713  -2.658  0.00  0.00    +0.008 A 
ATOM     20  C   UNL     1       1.855  17.326  -1.538  0.00  0.00    +0.015 A 
ATOM     21  C   UNL     1       0.961  18.366  -1.690  0.00  0.00    +0.004 A 
ENDBRANCH  14  19
ENDBRANCH  13  14
ENDBRANCH   7  13
ENDBRANCH   1  10
BRANCH   4  22
ATOM     22  C   UNL     1       5.804   6.470   0.944  0.00  0.00    +0.244 C 
ATOM     23  O   UNL     1       6.881   5.956   1.171  0.00  0.00    -0.270 OA
ATOM     24  N   UNL     1       4.690   5.712   0.903  0.00  0.00    -0.311 N 
ATOM     25  H   UNL     1       3.830   6.123   0.722  0.00  0.00    +0.149 HD
BRANCH  24  26
ATOM     26  C   UNL     1       4.778   4.268   1.134  0.00  0.00    +0.102 C 
BRANCH  26  27
ATOM     27  C   UNL     1       3.382   3.650   1.034  0.00  0.00    +0.000 C 
BRANCH  27  28
ATOM     28  C   UNL     1       3.474   2.142   1.275  0.00  0.00    -0.077 C 
BRANCH  28  35
ATOM     29  C   UNL     1       1.419   2.052  -0.001  0.00  0.00    -0.078 C 
ATOM     30  C   UNL     1      -0.019   1.527   0.010  0.00  0.00    -0.019 C 
ATOM     31  C   UNL     1       0.002  -0.004   0.002  0.00  0.00    -0.003 C 
ATOM     32  C   UNL     1       0.794  -0.503   1.214  0.00  0.00    -0.016 C 
ATOM     33  C   UNL     1       2.208   0.081   1.168  0.00  0.00    -0.072 C 
ATOM     34  C   UNL     1       2.998  -0.398   2.388  0.00  0.00    -0.013 C 
ATOM     35  N   UNL     1       2.120   1.556   1.203  0.00  0.00    +0.381 N 
ATOM     36  H   UNL     1       1.590   1.839   2.037  0.00  0.00    -0.081 HD
ENDBRANCH  28  35
ENDBRANCH  27  28
ENDBRANCH  26  27
ENDBRANCH  24  26
ENDBRANCH   4  22
TORSDOF 9
