REMARK  Name = ZINC13152247
REMARK  4 active torsions:
REMARK  status: ('A' for Active; 'I' for Inactive)
REMARK    1  A    between atoms: C_6  and  N_7
REMARK    2  A    between atoms: C_9  and  C_16
REMARK    3  A    between atoms: C_10  and  N_15
REMARK    4  A    between atoms: N_17  and  C_18
REMARK                            x       y       z     vdW  Elec       q    Type
REMARK                         _______ _______ _______ _____ _____    ______ ____
ROOT
ATOM      1  N   UNL     1      -1.049  -1.457   0.092  0.00  0.00    -0.299 N 
ATOM      2  C   UNL     1      -1.389  -2.779   0.299  0.00  0.00    +0.138 A 
ATOM      3  C   UNL     1      -2.732  -3.200   0.192  0.00  0.00    +0.073 A 
ATOM      4  C   UNL     1      -3.019  -4.563   0.415  0.00  0.00    +0.132 A 
ATOM      5  N   UNL     1      -2.022  -5.388   0.714  0.00  0.00    -0.199 NA
ATOM      6  C   UNL     1      -0.775  -4.948   0.804  0.00  0.00    +0.216 A 
ATOM      7  N   UNL     1      -0.458  -3.678   0.599  0.00  0.00    -0.199 NA
ATOM      8  N   UNL     1       0.228  -5.844   1.118  0.00  0.00    -0.327 N 
ATOM      9  H   UNL     1      -1.740  -0.799  -0.082  0.00  0.00    +0.154 HD
ATOM     10  H   UNL     1       0.014  -6.778   1.268  0.00  0.00    +0.145 HD
ATOM     11  H   UNL     1       1.146  -5.539   1.188  0.00  0.00    +0.145 HD
ENDROOT
BRANCH   1  17
ATOM     12  C   UNL     1       1.289  -1.956  -0.248  0.00  0.00    +0.024 A 
ATOM     13  C   UNL     1       2.614  -1.567  -0.208  0.00  0.00    +0.017 A 
ATOM     14  C   UNL     1       2.949  -0.291   0.211  0.00  0.00    +0.018 A 
ATOM     15  C   UNL     1       1.959   0.598   0.590  0.00  0.00    +0.017 A 
ATOM     16  C   UNL     1       0.633   0.214   0.552  0.00  0.00    +0.024 A 
ATOM     17  C   UNL     1       0.293  -1.066   0.132  0.00  0.00    +0.032 A 
ATOM     18 BR   UNL     1       4.763   0.237   0.266  0.00  0.00    -0.050 Br
ENDBRANCH   1  17
BRANCH   4  19
ATOM     19  N   UNL     1      -4.314  -5.032   0.324  0.00  0.00    -0.342 N 
ATOM     20  H   UNL     1      -5.048  -4.409   0.198  0.00  0.00    +0.144 HD
ATOM     21  H   UNL     1      -4.491  -5.984   0.385  0.00  0.00    +0.144 HD
ENDBRANCH   4  19
BRANCH   3  22
ATOM     22  C   UNL     1      -3.795  -2.250  -0.140  0.00  0.00    +0.126 C 
ATOM     23  N   UNL     1      -4.593  -2.488  -1.147  0.00  0.00    -0.255 NA
BRANCH  23  24
ATOM     24  C   UNL     1      -4.355  -3.554  -1.972  0.00  0.00    +0.064 A 
ATOM     25  C   UNL     1      -3.081  -3.755  -2.509  0.00  0.00    +0.029 A 
ATOM     26  C   UNL     1      -2.848  -4.832  -3.339  0.00  0.00    +0.017 A 
ATOM     27  C   UNL     1      -3.872  -5.713  -3.639  0.00  0.00    +0.018 A 
ATOM     28  C   UNL     1      -5.137  -5.520  -3.111  0.00  0.00    +0.017 A 
ATOM     29  C   UNL     1      -5.383  -4.450  -2.275  0.00  0.00    +0.029 A 
ATOM     30 BR   UNL     1      -3.543  -7.186  -4.778  0.00  0.00    -0.050 Br
ENDBRANCH  23  24
ENDBRANCH   3  22
TORSDOF 4
