REMARK  Name = ZINC16227904
REMARK  9 active torsions:
REMARK  status: ('A' for Active; 'I' for Inactive)
REMARK    1  A    between atoms: C_1  and  O_2
REMARK    2  A    between atoms: O_2  and  C_3
REMARK    3  A    between atoms: C_12  and  C_13
REMARK    4  A    between atoms: C_13  and  N_14
REMARK    5  A    between atoms: N_14  and  N_15
REMARK    6  A    between atoms: N_20  and  N_21
REMARK    7  A    between atoms: C_22  and  C_23
REMARK    8  A    between atoms: C_32  and  O_33
REMARK    9  A    between atoms: O_33  and  C_34
REMARK                            x       y       z     vdW  Elec       q    Type
REMARK                         _______ _______ _______ _____ _____    ______ ____
ROOT
ATOM      1  N   UNL     1      -2.693   7.665   1.383  0.00  0.00    -0.247 N 
ATOM      2  C   UNL     1      -3.361   7.616   2.597  0.00  0.00    +0.251 A 
ATOM      3  N   UNL     1      -2.862   7.228   3.747  0.00  0.00    -0.110 NA
ATOM      4  N   UNL     1      -3.759   7.310   4.664  0.00  0.00    -0.134 NA
ATOM      5  C   UNL     1      -4.877   7.752   4.159  0.00  0.00    +0.250 A 
ATOM      6  N   UNL     1      -4.663   7.969   2.824  0.00  0.00    -0.187 N 
ATOM      7  H   UNL     1      -3.156   7.969   0.586  0.00  0.00    +0.169 HD
ENDROOT
BRANCH   1   8
ATOM      8  N   UNL     1      -1.383   7.284   1.308  0.00  0.00    -0.236 NA
ATOM      9  H   UNL     1      -1.260   6.343   1.652  0.00  0.00    +0.145 HD
BRANCH   8  10
ATOM     10  C   UNL     1      -0.875   7.413  -0.065  0.00  0.00    +0.141 C 
BRANCH  10  20
ATOM     11  C   UNL     1       1.563   7.899   0.101  0.00  0.00    +0.125 A 
ATOM     12  C   UNL     1       2.908   7.517   0.063  0.00  0.00    +0.046 A 
ATOM     13  C   UNL     1       3.261   6.227  -0.181  0.00  0.00    +0.012 A 
ATOM     14  C   UNL     1       2.265   5.260  -0.401  0.00  0.00    -0.017 A 
ATOM     15  C   UNL     1       2.595   3.918  -0.657  0.00  0.00    +0.008 A 
ATOM     16  C   UNL     1       1.605   3.009  -0.866  0.00  0.00    +0.001 A 
ATOM     17  C   UNL     1       0.264   3.388  -0.834  0.00  0.00    +0.001 A 
ATOM     18  C   UNL     1      -0.094   4.676  -0.583  0.00  0.00    +0.009 A 
ATOM     19  C   UNL     1       0.901   5.644  -0.363  0.00  0.00    -0.010 A 
ATOM     20  C   UNL     1       0.569   6.985  -0.108  0.00  0.00    +0.017 A 
BRANCH  11  22
ATOM     21  C   UNL     1       2.323  10.104   0.558  0.00  0.00    +0.277 C 
ATOM     22  O   UNL     1       1.240   9.195   0.348  0.00  0.00    -0.495 OA
ENDBRANCH  11  22
ENDBRANCH  10  20
ENDBRANCH   8  10
ENDBRANCH   1   8
BRANCH   6  23
ATOM     23  N   UNL     1      -5.585   8.449   1.885  0.00  0.00    -0.170 NA
ATOM     24  C   UNL     1      -6.282   9.515   2.146  0.00  0.00    +0.145 C 
BRANCH  24  25
ATOM     25  C   UNL     1      -6.012  10.289   3.365  0.00  0.00    +0.044 A 
ATOM     26  C   UNL     1      -7.079  10.562   4.327  0.00  0.00    -0.006 A 
ATOM     27  C   UNL     1      -8.381  10.090   4.127  0.00  0.00    +0.009 A 
ATOM     28  C   UNL     1      -9.346  10.362   5.052  0.00  0.00    +0.001 A 
ATOM     29  C   UNL     1      -9.052  11.099   6.197  0.00  0.00    +0.001 A 
ATOM     30  C   UNL     1      -7.794  11.569   6.424  0.00  0.00    +0.008 A 
ATOM     31  C   UNL     1      -6.775  11.308   5.492  0.00  0.00    -0.017 A 
ATOM     32  C   UNL     1      -5.464  11.776   5.694  0.00  0.00    +0.012 A 
ATOM     33  C   UNL     1      -4.486  11.518   4.787  0.00  0.00    +0.047 A 
ATOM     34  C   UNL     1      -4.735  10.784   3.627  0.00  0.00    +0.129 A 
BRANCH  34  35
ATOM     35  O   UNL     1      -3.728  10.551   2.748  0.00  0.00    -0.494 OA
ATOM     36  C   UNL     1      -2.474  11.183   3.015  0.00  0.00    +0.277 C 
ENDBRANCH  34  35
ENDBRANCH  24  25
ENDBRANCH   6  23
TORSDOF 7
