REMARK  Name = ZINC00886391
REMARK  10 active torsions:
REMARK  status: ('A' for Active; 'I' for Inactive)
REMARK    1  A    between atoms: C_1  and  C_2
REMARK    2  A    between atoms: C_5  and  C_7
REMARK    3  A    between atoms: N_10  and  C_12
REMARK    4  A    between atoms: C_12  and  C_13
REMARK    5  A    between atoms: N_15  and  C_16
REMARK    6  A    between atoms: N_15  and  C_24
REMARK    7  A    between atoms: C_16  and  C_17
REMARK    8  A    between atoms: C_24  and  C_26
REMARK    9  A    between atoms: C_24  and  C_33
REMARK   10  A    between atoms: N_35  and  C_36
REMARK                            x       y       z     vdW  Elec       q    Type
REMARK                         _______ _______ _______ _____ _____    ______ ____
ROOT
ATOM      1  C   UNL     1       4.756  -5.472  -1.908  0.00  0.00    +0.240 C 
ATOM      2  O   UNL     1       4.220  -5.288  -2.980  0.00  0.00    -0.273 OA
ATOM      3  N   UNL     1       6.100  -5.430  -1.810  0.00  0.00    -0.280 N 
ENDROOT
BRANCH   1   4
ATOM      4  C   UNL     1       3.920  -5.748  -0.685  0.00  0.00    +0.264 C 
BRANCH   4   8
ATOM      5  C   UNL     1       0.532  -5.089  -1.427  0.00  0.00    +0.239 A 
ATOM      6  N   UNL     1       0.613  -6.405  -1.677  0.00  0.00    -0.105 NA
ATOM      7  N   UNL     1       1.827  -6.767  -1.437  0.00  0.00    -0.045 NA
ATOM      8  N   UNL     1       2.502  -5.740  -1.051  0.00  0.00    -0.154 N 
ATOM      9  N   UNL     1       1.735  -4.704  -1.042  0.00  0.00    -0.127 NA
BRANCH   5  14
ATOM     10  C   UNL     1      -2.452  -1.052  -1.375  0.00  0.00    +0.086 C 
ATOM     11  C   UNL     1      -1.977  -2.473  -1.541  0.00  0.00    +0.103 A 
ATOM     12  C   UNL     1      -2.734  -3.512  -1.943  0.00  0.00    +0.045 A 
ATOM     13  C   UNL     1      -1.899  -4.648  -1.960  0.00  0.00    +0.053 A 
ATOM     14  C   UNL     1      -0.667  -4.235  -1.562  0.00  0.00    +0.175 A 
ATOM     15  O   UNL     1      -0.728  -2.912  -1.317  0.00  0.00    -0.457 OA
ENDBRANCH   5  14
ENDBRANCH   4   8
ENDBRANCH   1   4
BRANCH   3  16
ATOM     16  C   UNL     1       6.742  -5.536  -0.498  0.00  0.00    +0.145 C 
BRANCH  16  17
ATOM     17  C   UNL     1       6.892  -6.990  -0.128  0.00  0.00    -0.012 A 
ATOM     18  C   UNL     1       5.993  -7.577   0.743  0.00  0.00    +0.006 A 
ATOM     19  C   UNL     1       6.129  -8.910   1.083  0.00  0.00    +0.000 A 
ATOM     20  C   UNL     1       7.165  -9.656   0.552  0.00  0.00    +0.001 A 
ATOM     21  C   UNL     1       8.065  -9.070  -0.318  0.00  0.00    +0.020 A 
ATOM     22  C   UNL     1       7.925  -7.737  -0.663  0.00  0.00    +0.046 A 
ATOM     23 CL   UNL     1       9.051  -7.002  -1.761  0.00  0.00    -0.083 Cl
ENDBRANCH  16  17
ENDBRANCH   3  16
BRANCH   3  24
ATOM     24  C   UNL     1       6.917  -5.279  -3.016  0.00  0.00    +0.193 C 
BRANCH  24  25
ATOM     25  C   UNL     1       6.668  -3.924  -3.626  0.00  0.00    -0.018 A 
ATOM     26  C   UNL     1       5.602  -3.157  -3.192  0.00  0.00    +0.009 A 
ATOM     27  C   UNL     1       5.372  -1.914  -3.750  0.00  0.00    +0.038 A 
ATOM     28  C   UNL     1       6.211  -1.436  -4.743  0.00  0.00    +0.123 A 
ATOM     29  C   UNL     1       7.278  -2.204  -5.176  0.00  0.00    +0.038 A 
ATOM     30  C   UNL     1       7.508  -3.445  -4.614  0.00  0.00    +0.009 A 
ATOM     31  F   UNL     1       5.987  -0.221  -5.290  0.00  0.00    -0.205 F 
ENDBRANCH  24  25
BRANCH  24  32
ATOM     32  C   UNL     1       6.551  -6.352  -4.010  0.00  0.00    +0.238 C 
ATOM     33  O   UNL     1       5.691  -7.162  -3.737  0.00  0.00    -0.273 OA
ATOM     34  N   UNL     1       7.178  -6.410  -5.201  0.00  0.00    -0.311 N 
ATOM     35  H   UNL     1       7.866  -5.761  -5.419  0.00  0.00    +0.149 HD
BRANCH  34  36
ATOM     36  C   UNL     1       6.821  -7.452  -6.166  0.00  0.00    +0.073 C 
ATOM     37  C   UNL     1       7.609  -8.727  -5.855  0.00  0.00    +0.022 C 
ATOM     38  C   UNL     1       7.236  -9.816  -6.863  0.00  0.00    +0.002 C 
ATOM     39  C   UNL     1       7.576  -9.339  -8.277  0.00  0.00    +0.000 C 
ATOM     40  C   UNL     1       6.788  -8.065  -8.588  0.00  0.00    +0.002 C 
ATOM     41  C   UNL     1       7.161  -6.976  -7.580  0.00  0.00    +0.022 C 
ENDBRANCH  34  36
ENDBRANCH  24  32
ENDBRANCH   3  24
TORSDOF 9
