REMARK  Name = ZINC64282753
REMARK  8 active torsions:
REMARK  status: ('A' for Active; 'I' for Inactive)
REMARK    1  A    between atoms: C_1  and  C_2
REMARK    2  A    between atoms: C_2  and  C_3
REMARK    3  A    between atoms: C_3  and  C_4
REMARK    4  A    between atoms: C_4  and  C_5
REMARK    5  A    between atoms: C_4  and  N_24
REMARK    6  A    between atoms: N_7  and  C_8
REMARK    7  A    between atoms: C_11  and  C_14
REMARK    8  A    between atoms: C_19  and  C_23
REMARK                            x       y       z     vdW  Elec       q    Type
REMARK                         _______ _______ _______ _____ _____    ______ ____
ROOT
ATOM      1  C   UNL     1       3.664  -2.664  -3.569  0.00  0.00    +0.033 A 
ATOM      2  C   UNL     1       3.118  -3.458  -4.572  0.00  0.00    +0.024 A 
ATOM      3  C   UNL     1       3.921  -3.949  -5.578  0.00  0.00    +0.012 A 
ATOM      4  C   UNL     1       5.284  -3.647  -5.591  0.00  0.00    +0.007 A 
ATOM      5  C   UNL     1       5.830  -2.849  -4.583  0.00  0.00    +0.012 A 
ATOM      6  C   UNL     1       5.021  -2.357  -3.583  0.00  0.00    +0.024 A 
ENDROOT
BRANCH   4   7
ATOM      7  C   UNL     1       6.148  -4.172  -6.669  0.00  0.00    +0.109 A 
ATOM      8  N   UNL     1       5.820  -4.927  -7.696  0.00  0.00    -0.239 NA
ATOM      9  C   UNL     1       6.721  -5.335  -8.611  0.00  0.00    +0.079 A 
ATOM     10  C   UNL     1       6.502  -6.142  -9.753  0.00  0.00    +0.029 A 
ATOM     11  C   UNL     1       7.529  -6.467 -10.584  0.00  0.00    +0.005 A 
ATOM     12  C   UNL     1       8.824  -6.025 -10.350  0.00  0.00    -0.049 A 
ATOM     13  C   UNL     1       9.080  -5.234  -9.245  0.00  0.00    +0.020 A 
ATOM     14  C   UNL     1       8.051  -4.900  -8.400  0.00  0.00    +0.040 A 
ATOM     15  S   UNL     1       7.903  -3.937  -6.914  0.00  0.00    -0.067 S 
ATOM     16  C   UNL     1       9.939  -6.404 -11.290  0.00  0.00    +0.044 C 
ENDBRANCH   4   7
BRANCH   1  19
ATOM     17  C   UNL     1       1.828  -2.914  -2.081  0.00  0.00    +0.238 C 
ATOM     18  O   UNL     1       1.567  -3.979  -2.600  0.00  0.00    -0.273 OA
ATOM     19  N   UNL     1       2.848  -2.168  -2.550  0.00  0.00    -0.284 N 
ATOM     20  H   UNL     1       3.015  -1.288  -2.180  0.00  0.00    +0.155 HD
BRANCH  17  21
ATOM     21  C   UNL     1       1.012  -2.425  -0.912  0.00  0.00    +0.161 C 
BRANCH  21  22
ATOM     22  N   UNL     1      -0.028  -3.408  -0.597  0.00  0.00    -0.288 N 
ATOM     23  C   UNL     1      -0.539  -3.471   0.648  0.00  0.00    +0.298 C 
ATOM     24  O   UNL     1      -0.138  -2.713   1.510  0.00  0.00    -0.253 OA
ATOM     25  N   UNL     1      -1.496  -4.376   0.938  0.00  0.00    -0.313 N 
ATOM     26  H   UNL     1      -0.348  -4.013  -1.285  0.00  0.00    +0.151 HD
ATOM     27  H   UNL     1      -1.816  -4.981   0.250  0.00  0.00    +0.146 HD
ATOM     28  H   UNL     1      -1.864  -4.422   1.834  0.00  0.00    +0.146 HD
ENDBRANCH  21  22
BRANCH  21  29
ATOM     29  C   UNL     1       0.359  -1.089  -1.271  0.00  0.00    +0.031 C 
BRANCH  29  31
ATOM     30  C   UNL     1      -1.020   0.806  -0.403  0.00  0.00    +0.004 C 
ATOM     31  C   UNL     1      -0.367  -0.531  -0.044  0.00  0.00    -0.001 C 
ENDBRANCH  29  31
ENDBRANCH  21  29
ENDBRANCH  17  21
ENDBRANCH   1  19
TORSDOF 6
