REMARK  Name = ZINC62715928
REMARK  3 active torsions:
REMARK  status: ('A' for Active; 'I' for Inactive)
REMARK    1  A    between atoms: C_1  and  C_2
REMARK    2  A    between atoms: C_2  and  C_11
REMARK    3  A    between atoms: C_4  and  C_9
REMARK                            x       y       z     vdW  Elec       q    Type
REMARK                         _______ _______ _______ _____ _____    ______ ____
ROOT
ATOM      1  C   UNL     1      -0.019   1.526   0.010  0.00  0.00    +0.022 C 
ATOM      2  C   UNL     1       0.002  -0.004   0.002  0.00  0.00    +0.012 C 
ATOM      3  C   UNL     1       0.736  -0.501  -1.247  0.00  0.00    +0.027 C 
ATOM      4  C   UNL     1       2.149   0.074  -1.283  0.00  0.00    +0.054 C 
ATOM      5  C   UNL     1       3.024  -0.571  -0.212  0.00  0.00    +0.021 C 
ATOM      6  C   UNL     1       2.595  -0.083   1.175  0.00  0.00    +0.070 C 
ATOM      7  S   UNL     1       0.881  -0.610   1.474  0.00  0.00    -0.154 S 
ATOM      8  C   UNL     1      -1.432  -0.537   0.005  0.00  0.00    +0.022 C 
ENDROOT
BRANCH   4   9
ATOM      9  C   UNL     1       2.755  -0.185  -2.639  0.00  0.00    +0.226 C 
ATOM     10  O   UNL     1       3.108   0.741  -3.329  0.00  0.00    -0.301 OA
ENDBRANCH   4   9
TORSDOF 1
