REMARK  Name = ZINC13644838
REMARK  5 active torsions:
REMARK  status: ('A' for Active; 'I' for Inactive)
REMARK    1  A    between atoms: C_6  and  C_7
REMARK    2  A    between atoms: C_9  and  C_25
REMARK    3  A    between atoms: C_14  and  C_16
REMARK    4  A    between atoms: C_18  and  C_22
REMARK    5  A    between atoms: C_19  and  N_21
REMARK                            x       y       z     vdW  Elec       q    Type
REMARK                         _______ _______ _______ _____ _____    ______ ____
ROOT
ATOM      1  C   UNL     1       2.408  -6.271  -0.060  0.00  0.00    +0.075 A 
ATOM      2  C   UNL     1       3.758  -5.851  -0.071  0.00  0.00    +0.060 A 
ATOM      3  C   UNL     1       4.041  -4.529  -0.065  0.00  0.00    +0.149 A 
ATOM      4  N   UNL     1       3.015  -3.625  -0.049  0.00  0.00    -0.209 N 
ATOM      5  C   UNL     1       1.715  -4.065  -0.038  0.00  0.00    +0.157 A 
ATOM      6  N   UNL     1       1.438  -5.375  -0.044  0.00  0.00    -0.228 NA
ATOM      7  C   UNL     1       0.903  -2.941  -0.023  0.00  0.00    +0.083 A 
ATOM      8  C   UNL     1       1.737  -1.817  -0.025  0.00  0.00    +0.150 A 
ATOM      9  N   UNL     1       2.995  -2.225  -0.045  0.00  0.00    -0.160 NA
ENDROOT
BRANCH   1  15
ATOM     10  C   UNL     1       3.106  -8.663  -0.088  0.00  0.00    +0.013 A 
ATOM     11  C   UNL     1       2.797 -10.008  -0.089  0.00  0.00    +0.039 A 
ATOM     12  C   UNL     1       1.474 -10.417  -0.077  0.00  0.00    +0.123 A 
ATOM     13  C   UNL     1       0.453  -9.479  -0.061  0.00  0.00    +0.039 A 
ATOM     14  C   UNL     1       0.752  -8.133  -0.055  0.00  0.00    +0.013 A 
ATOM     15  C   UNL     1       2.083  -7.715  -0.065  0.00  0.00    +0.001 A 
ATOM     16  F   UNL     1       1.176 -11.735  -0.083  0.00  0.00    -0.205 F 
ENDBRANCH   1  15
BRANCH   8  17
ATOM     17  C   UNL     1       1.287  -0.409  -0.012  0.00  0.00    +0.250 A 
ATOM     18  N   UNL     1       2.074   0.634  -0.014  0.00  0.00    -0.201 NA
ATOM     19  C   UNL     1       1.307   1.757  -0.001  0.00  0.00    +0.186 A 
ATOM     20  C   UNL     1      -0.016   1.341   0.009  0.00  0.00    +0.217 A 
ATOM     21  O   UNL     1       0.002  -0.004   0.002  0.00  0.00    -0.420 OA
BRANCH  19  22
ATOM     22  C   UNL     1       1.787   3.142   0.002  0.00  0.00    +0.265 C 
ATOM     23  O   UNL     1       0.990   4.062   0.014  0.00  0.00    -0.269 OA
ATOM     24  N   UNL     1       3.111   3.397  -0.009  0.00  0.00    -0.324 N 
ATOM     25  H   UNL     1       3.745   2.664  -0.019  0.00  0.00    +0.145 HD
ATOM     26  H   UNL     1       3.428   4.314  -0.007  0.00  0.00    +0.145 HD
ENDBRANCH  19  22
BRANCH  20  27
ATOM     27  N   UNL     1      -1.131   2.147   0.019  0.00  0.00    -0.327 N 
ATOM     28  H   UNL     1      -2.016   1.751   0.022  0.00  0.00    +0.145 HD
ATOM     29  H   UNL     1      -1.031   3.112   0.024  0.00  0.00    +0.145 HD
ENDBRANCH  20  27
ENDBRANCH   8  17
BRANCH   3  30
ATOM     30  C   UNL     1       5.472  -4.056  -0.076  0.00  0.00    +0.434 C 
ATOM     31  F   UNL     1       5.928  -3.919   1.239  0.00  0.00    -0.164 F 
ATOM     32  F   UNL     1       6.266  -4.991  -0.750  0.00  0.00    -0.164 F 
ATOM     33  F   UNL     1       5.550  -2.821  -0.728  0.00  0.00    -0.164 F 
ENDBRANCH   3  30
TORSDOF 5
