REMARK  Name = ZINC02398986
REMARK  6 active torsions:
REMARK  status: ('A' for Active; 'I' for Inactive)
REMARK    1  A    between atoms: C_1  and  C_2
REMARK    2  A    between atoms: C_5  and  S_8
REMARK    3  A    between atoms: S_8  and  N_11
REMARK    4  A    between atoms: N_11  and  N_12
REMARK    5  A    between atoms: C_13  and  C_14
REMARK    6  A    between atoms: C_23  and  C_25
REMARK                            x       y       z     vdW  Elec       q    Type
REMARK                         _______ _______ _______ _____ _____    ______ ____
ROOT
ATOM      1  N   UNL     1       3.861   1.779  -2.642  0.00  0.00    -0.174 NA
ATOM      2  C   UNL     1       3.087   2.278  -1.721  0.00  0.00    +0.139 C 
ENDROOT
BRANCH   2   3
ATOM      3  C   UNL     1       2.140   1.451  -1.065  0.00  0.00    +0.013 C 
ATOM      4  C   UNL     1       2.038   0.141  -1.394  0.00  0.00    +0.020 C 
ATOM      5  C   UNL     1       1.024  -0.668  -0.696  0.00  0.00    +0.017 A 
ATOM      6  C   UNL     1       1.063  -2.061  -0.718  0.00  0.00    +0.011 A 
ATOM      7  C   UNL     1       0.092  -2.779  -0.049  0.00  0.00    +0.001 A 
ATOM      8  C   UNL     1      -0.914  -2.122   0.638  0.00  0.00    +0.004 A 
ATOM      9  C   UNL     1      -0.962  -0.739   0.666  0.00  0.00    +0.046 A 
ATOM     10  C   UNL     1       0.002  -0.004   0.002  0.00  0.00    +0.128 A 
ATOM     11  O   UNL     1      -0.016   1.353   0.009  0.00  0.00    -0.484 OA
ATOM     12  C   UNL     1       1.244   2.025   0.001  0.00  0.00    +0.202 C 
ATOM     13  C   UNL     1       1.021   3.513  -0.273  0.00  0.00    +0.057 C 
ENDBRANCH   2   3
BRANCH   1  14
ATOM     14  N   UNL     1       4.796   2.597  -3.289  0.00  0.00    -0.137 N 
ATOM     15  H   UNL     1       4.867   3.534  -3.052  0.00  0.00    +0.197 HD
BRANCH  14  16
ATOM     16  S   UNL     1       5.780   1.962  -4.460  0.00  0.00    +0.086 S 
ATOM     17  O   UNL     1       6.501   3.051  -5.019  0.00  0.00    -0.149 OA
ATOM     18  O   UNL     1       6.427   0.837  -3.882  0.00  0.00    -0.149 OA
BRANCH  16  23
ATOM     19  C   UNL     1       2.206  -0.163  -8.833  0.00  0.00    +0.044 C 
ATOM     20  C   UNL     1       3.099   0.368  -7.741  0.00  0.00    -0.050 A 
ATOM     21  C   UNL     1       3.544   1.676  -7.787  0.00  0.00    +0.005 A 
ATOM     22  C   UNL     1       4.363   2.162  -6.785  0.00  0.00    +0.029 A 
ATOM     23  C   UNL     1       4.736   1.341  -5.737  0.00  0.00    +0.110 A 
ATOM     24  C   UNL     1       4.296   0.032  -5.695  0.00  0.00    +0.029 A 
ATOM     25  C   UNL     1       3.473  -0.454  -6.694  0.00  0.00    +0.005 A 
ENDBRANCH  16  23
ENDBRANCH  14  16
ENDBRANCH   1  14
TORSDOF 4
