REMARK  Name = ZINC59170430
REMARK  11 active torsions:
REMARK  status: ('A' for Active; 'I' for Inactive)
REMARK    1  A    between atoms: C_1  and  C_2
REMARK    2  A    between atoms: C_2  and  N_3
REMARK    3  A    between atoms: N_3  and  C_4
REMARK    4  A    between atoms: N_3  and  C_6
REMARK    5  A    between atoms: C_4  and  C_5
REMARK    6  A    between atoms: C_11  and  C_27
REMARK    7  A    between atoms: N_13  and  C_14
REMARK    8  A    between atoms: C_17  and  S_20
REMARK    9  A    between atoms: S_20  and  N_23
REMARK   10  A    between atoms: N_29  and  C_30
REMARK   11  A    between atoms: C_34  and  C_36
REMARK                            x       y       z     vdW  Elec       q    Type
REMARK                         _______ _______ _______ _____ _____    ______ ____
ROOT
ATOM      1  C   UNL     1       0.257  -0.862  -2.377  0.00  0.00    +0.033 A 
ATOM      2  C   UNL     1      -0.734   0.091  -2.625  0.00  0.00    +0.024 A 
ATOM      3  C   UNL     1      -1.288   0.204  -3.865  0.00  0.00    +0.013 A 
ATOM      4  C   UNL     1      -0.870  -0.647  -4.899  0.00  0.00    +0.018 A 
ATOM      5  C   UNL     1      -1.465  -0.562  -6.182  0.00  0.00    +0.030 A 
ATOM      6  C   UNL     1      -1.165  -1.550  -7.112  0.00  0.00    +0.098 A 
ATOM      7  C   UNL     1      -0.268  -2.639  -6.678  0.00  0.00    +0.212 A 
ATOM      8  N   UNL     1      -0.310  -3.824  -7.248  0.00  0.00    -0.325 N 
ATOM      9  O   UNL     1       0.603  -2.373  -5.670  0.00  0.00    -0.438 OA
ATOM     10  C   UNL     1       0.151  -1.589  -4.661  0.00  0.00    +0.139 A 
ATOM     11  C   UNL     1       0.703  -1.693  -3.396  0.00  0.00    +0.070 A 
ATOM     12  H   UNL     1      -1.002  -4.026  -7.896  0.00  0.00    +0.169 HD
ENDROOT
BRANCH   8  13
ATOM     13  C   UNL     1       0.623  -4.771  -6.926  0.00  0.00    +0.042 A 
ATOM     14  C   UNL     1       1.974  -4.424  -6.840  0.00  0.00    +0.027 A 
ATOM     15  C   UNL     1       2.909  -5.385  -6.514  0.00  0.00    +0.030 A 
ATOM     16  C   UNL     1       2.512  -6.688  -6.274  0.00  0.00    +0.105 A 
ATOM     17  C   UNL     1       1.176  -7.039  -6.358  0.00  0.00    +0.030 A 
ATOM     18  C   UNL     1       0.229  -6.088  -6.676  0.00  0.00    +0.027 A 
BRANCH  16  19
ATOM     19  S   UNL     1       3.714  -7.909  -5.861  0.00  0.00    +0.056 S 
ATOM     20  O   UNL     1       3.157  -9.166  -6.218  0.00  0.00    -0.153 OA
ATOM     21  O   UNL     1       4.955  -7.450  -6.381  0.00  0.00    -0.153 OA
BRANCH  19  22
ATOM     22  N   UNL     1       3.864  -7.909  -4.212  0.00  0.00    -0.204 NA
ATOM     23  H   UNL     1       4.104  -8.726  -3.747  0.00  0.00    +0.144 HD
ATOM     24  H   UNL     1       3.712  -7.093  -3.711  0.00  0.00    +0.144 HD
ENDBRANCH  19  22
ENDBRANCH  16  19
ENDBRANCH   8  13
BRANCH   6  25
ATOM     25  C   UNL     1      -1.720  -1.513  -8.473  0.00  0.00    +0.253 C 
ATOM     26  O   UNL     1      -2.563  -0.686  -8.764  0.00  0.00    -0.270 OA
ATOM     27  N   UNL     1      -1.295  -2.396  -9.399  0.00  0.00    -0.281 N 
ATOM     28  H   UNL     1      -0.666  -3.092  -9.152  0.00  0.00    +0.155 HD
BRANCH  27  29
ATOM     29  C   UNL     1      -1.759  -2.308 -10.715  0.00  0.00    +0.034 A 
ATOM     30  C   UNL     1      -3.046  -1.851 -10.970  0.00  0.00    +0.023 A 
ATOM     31  C   UNL     1      -3.502  -1.766 -12.270  0.00  0.00    +0.002 A 
ATOM     32  C   UNL     1      -2.678  -2.134 -13.319  0.00  0.00    +0.003 A 
ATOM     33  C   UNL     1      -1.396  -2.588 -13.069  0.00  0.00    -0.049 A 
ATOM     34  C   UNL     1      -0.932  -2.671 -11.770  0.00  0.00    +0.026 A 
ATOM     35  C   UNL     1      -0.502  -2.988 -14.214  0.00  0.00    +0.044 C 
ENDBRANCH  27  29
ENDBRANCH   6  25
BRANCH   1  36
ATOM     36  N   UNL     1       0.803  -0.974  -1.104  0.00  0.00    -0.330 N 
BRANCH  36  38
ATOM     37  C   UNL     1       1.184   1.175   0.001  0.00  0.00    +0.024 C 
ATOM     38  C   UNL     1       0.336  -0.099  -0.026  0.00  0.00    +0.102 C 
ENDBRANCH  36  38
BRANCH  36  39
ATOM     39  C   UNL     1       1.847  -1.968  -0.841  0.00  0.00    +0.102 C 
ATOM     40  C   UNL     1       1.200  -3.282  -0.400  0.00  0.00    +0.024 C 
ENDBRANCH  36  39
ENDBRANCH   1  36
TORSDOF 8
