REMARK  Name = ZINC42813311
REMARK  6 active torsions:
REMARK  status: ('A' for Active; 'I' for Inactive)
REMARK    1  A    between atoms: C_4  and  C_7
REMARK    2  A    between atoms: C_7  and  C_9
REMARK    3  A    between atoms: C_7  and  N_24
REMARK    4  A    between atoms: C_9  and  N_10
REMARK    5  A    between atoms: N_13  and  N_14
REMARK    6  A    between atoms: N_17  and  C_18
REMARK                            x       y       z     vdW  Elec       q    Type
REMARK                         _______ _______ _______ _____ _____    ______ ____
ROOT
ATOM      1  N   UNL     1       4.121   0.227  -2.364  0.00  0.00    -0.299 N 
ATOM      2  C   UNL     1       4.316   0.240  -3.697  0.00  0.00    +0.316 C 
ATOM      3  O   UNL     1       4.457  -0.806  -4.301  0.00  0.00    -0.251 OA
ATOM      4  N   UNL     1       4.353   1.412  -4.361  0.00  0.00    -0.217 N 
ATOM      5  H   UNL     1       4.009   1.061  -1.881  0.00  0.00    +0.150 HD
ATOM      6  H   UNL     1       4.493   1.421  -5.321  0.00  0.00    +0.174 HD
ENDROOT
BRANCH   4   7
ATOM      7  N   UNL     1       4.191   2.617  -3.665  0.00  0.00    -0.217 N 
ATOM      8  C   UNL     1       4.229   3.789  -4.329  0.00  0.00    +0.320 C 
ATOM      9  O   UNL     1       4.088   4.835  -3.724  0.00  0.00    -0.251 OA
ATOM     10  N   UNL     1       4.423   3.802  -5.662  0.00  0.00    -0.268 N 
ATOM     11  H   UNL     1       4.051   2.607  -2.705  0.00  0.00    +0.174 HD
ATOM     12  H   UNL     1       4.606   2.975  -6.134  0.00  0.00    +0.156 HD
BRANCH  10  13
ATOM     13  C   UNL     1       4.360   5.010  -6.367  0.00  0.00    +0.035 A 
ATOM     14  C   UNL     1       3.829   5.041  -7.649  0.00  0.00    +0.023 A 
ATOM     15  C   UNL     1       3.768   6.234  -8.342  0.00  0.00    +0.002 A 
ATOM     16  C   UNL     1       4.236   7.398  -7.759  0.00  0.00    +0.000 A 
ATOM     17  C   UNL     1       4.766   7.370  -6.482  0.00  0.00    +0.002 A 
ATOM     18  C   UNL     1       4.823   6.181  -5.782  0.00  0.00    +0.023 A 
ENDBRANCH  10  13
ENDBRANCH   4   7
BRANCH   1  19
ATOM     19  C   UNL     1       4.080  -1.048  -1.642  0.00  0.00    +0.095 C 
BRANCH  19  20
ATOM     20  C   UNL     1       3.722  -0.793  -0.176  0.00  0.00    -0.020 C 
BRANCH  20  24
ATOM     21  C   UNL     1      -0.242   0.781   0.064  0.00  0.00    +0.000 A 
ATOM     22  C   UNL     1       0.845   1.631   0.148  0.00  0.00    +0.000 A 
ATOM     23  C   UNL     1       2.128   1.121   0.070  0.00  0.00    +0.002 A 
ATOM     24  C   UNL     1       2.323  -0.238  -0.091  0.00  0.00    -0.059 A 
ATOM     25  C   UNL     1       1.236  -1.087  -0.173  0.00  0.00    +0.002 A 
ATOM     26  C   UNL     1      -0.047  -0.578  -0.097  0.00  0.00    +0.000 A 
ENDBRANCH  20  24
BRANCH  20  27
ATOM     27  N   UNL     1       3.794  -2.055   0.572  0.00  0.00    +0.385 N 
ATOM     28  C   UNL     1       5.200  -2.527   0.644  0.00  0.00    -0.078 C 
ATOM     29  C   UNL     1       5.194  -3.473   1.871  0.00  0.00    -0.020 C 
ATOM     30  C   UNL     1       4.237  -2.759   2.853  0.00  0.00    -0.020 C 
ATOM     31  C   UNL     1       3.368  -1.842   1.972  0.00  0.00    -0.078 C 
ATOM     32  H   UNL     1       3.213  -2.753   0.134  0.00  0.00    -0.081 HD
ENDBRANCH  20  27
ENDBRANCH  19  20
ENDBRANCH   1  19
TORSDOF 6
