REMARK  Name = ZINC63349922
REMARK  10 active torsions:
REMARK  status: ('A' for Active; 'I' for Inactive)
REMARK    1  A    between atoms: C_1  and  C_2
REMARK    2  A    between atoms: N_4  and  C_5
REMARK    3  A    between atoms: C_8  and  O_11
REMARK    4  A    between atoms: O_11  and  C_12
REMARK    5  A    between atoms: C_12  and  C_13
REMARK    6  A    between atoms: C_15  and  C_21
REMARK    7  A    between atoms: C_18  and  O_19
REMARK    8  A    between atoms: O_19  and  C_20
REMARK    9  A    between atoms: C_28  and  O_33
REMARK   10  A    between atoms: O_33  and  C_34
REMARK                            x       y       z     vdW  Elec       q    Type
REMARK                         _______ _______ _______ _____ _____    ______ ____
ROOT
ATOM      1  C   UNL     1      -0.560  -8.376  -1.996  0.00  0.00    +0.032 A 
ATOM      2  C   UNL     1      -0.641  -8.857  -0.703  0.00  0.00    +0.015 A 
ATOM      3  C   UNL     1      -0.505 -10.211  -0.459  0.00  0.00    -0.028 A 
ATOM      4  C   UNL     1      -0.289 -11.087  -1.507  0.00  0.00    +0.009 A 
ATOM      5  C   UNL     1      -0.208 -10.611  -2.801  0.00  0.00    +0.046 A 
ATOM      6  C   UNL     1      -0.349  -9.253  -3.049  0.00  0.00    +0.126 A 
ENDROOT
BRANCH   3   7
ATOM      7  C   UNL     1      -0.592 -10.733   0.952  0.00  0.00    +0.111 C 
ATOM      8  C   UNL     1       0.650 -11.568   1.271  0.00  0.00    +0.128 C 
ATOM      9  C   UNL     1       0.581 -12.796   0.371  0.00  0.00    -0.035 C 
ATOM     10  C   UNL     1       1.729 -12.844  -0.288  0.00  0.00    +0.003 A 
ATOM     11  C   UNL     1       2.285 -13.830  -1.228  0.00  0.00    +0.055 A 
ATOM     12  C   UNL     1       3.515 -13.557  -1.743  0.00  0.00    +0.121 A 
ATOM     13  C   UNL     1       4.260 -12.410  -1.430  0.00  0.00    +0.047 A 
ATOM     14  C   UNL     1       3.846 -11.442  -0.573  0.00  0.00    +0.029 A 
ATOM     15  C   UNL     1       2.530 -11.628   0.053  0.00  0.00    +0.043 A 
ATOM     16  N   UNL     1       1.894 -10.878   0.930  0.00  0.00    -0.376 N 
ATOM     17  C   UNL     1      -0.667 -13.641   0.280  0.00  0.00    +0.048 C 
ATOM     18  C   UNL     1      -1.837 -12.660   0.084  0.00  0.00    +0.086 C 
ATOM     19  N   UNL     1      -1.777 -11.595   1.090  0.00  0.00    -0.307 NA
ATOM     20  H   UNL     1      -1.842 -11.974   2.022  0.00  0.00    +0.123 HD
ATOM     21  H   UNL     1       2.185 -10.024   1.286  0.00  0.00    +0.160 HD
BRANCH  12  22
ATOM     22  O   UNL     1       4.055 -14.450  -2.614  0.00  0.00    -0.495 OA
ATOM     23  C   UNL     1       5.347 -14.142  -3.142  0.00  0.00    +0.277 C 
ENDBRANCH  12  22
ENDBRANCH   3   7
BRANCH   6  24
ATOM     24  O   UNL     1      -0.275  -8.783  -4.322  0.00  0.00    -0.495 OA
ATOM     25  C   UNL     1      -0.056  -9.743  -5.357  0.00  0.00    +0.277 C 
ENDBRANCH   6  24
BRANCH   1  26
ATOM     26  C   UNL     1      -0.708  -6.900  -2.261  0.00  0.00    +0.268 C 
BRANCH  26  27
ATOM     27  O   UNL     1      -0.915  -6.212  -1.026  0.00  0.00    -0.487 OA
BRANCH  27  31
ATOM     28  C   UNL     1      -1.380  -2.114  -1.218  0.00  0.00    +0.034 A 
ATOM     29  C   UNL     1      -1.428  -2.762   0.009  0.00  0.00    +0.027 A 
ATOM     30  C   UNL     1      -1.273  -4.133   0.072  0.00  0.00    +0.047 A 
ATOM     31  C   UNL     1      -1.068  -4.862  -1.089  0.00  0.00    +0.121 A 
ATOM     32  C   UNL     1      -1.019  -4.216  -2.316  0.00  0.00    +0.047 A 
ATOM     33  C   UNL     1      -1.181  -2.846  -2.381  0.00  0.00    +0.027 A 
BRANCH  28  37
ATOM     34  C   UNL     1      -2.443   1.317  -2.348  0.00  0.00    +0.109 C 
ATOM     35  C   UNL     1      -2.181  -0.167  -2.328  0.00  0.00    +0.214 C 
ATOM     36  O   UNL     1      -2.550  -0.860  -3.253  0.00  0.00    -0.276 OA
ATOM     37  N   UNL     1      -1.538  -0.724  -1.283  0.00  0.00    -0.286 N 
ATOM     38  H   UNL     1      -1.184  -0.162  -0.576  0.00  0.00    +0.155 HD
ENDBRANCH  28  37
ENDBRANCH  27  31
ENDBRANCH  26  27
ENDBRANCH   1  26
TORSDOF 7
