REMARK  Name = ZINC28537685
REMARK  11 active torsions:
REMARK  status: ('A' for Active; 'I' for Inactive)
REMARK    1  A    between atoms: C_1  and  C_2
REMARK    2  A    between atoms: C_8  and  C_28
REMARK    3  A    between atoms: C_12  and  C_14
REMARK    4  A    between atoms: C_12  and  C_17
REMARK    5  A    between atoms: C_14  and  C_15
REMARK    6  A    between atoms: C_15  and  O_16
REMARK    7  A    between atoms: C_17  and  O_18
REMARK    8  A    between atoms: C_21  and  O_27
REMARK    9  A    between atoms: C_23  and  C_24
REMARK   10  A    between atoms: C_23  and  C_25
REMARK   11  A    between atoms: C_25  and  O_26
REMARK                            x       y       z     vdW  Elec       q    Type
REMARK                         _______ _______ _______ _____ _____    ______ ____
ROOT
ATOM      1  C   UNL     1      -1.505   3.847  -1.061  0.00  0.00    +0.010 C 
ATOM      2  C   UNL     1      -2.915   3.351  -1.366  0.00  0.00    +0.018 C 
ATOM      3  C   UNL     1      -3.930   4.398  -0.898  0.00  0.00    +0.006 C 
ATOM      4  C   UNL     1      -5.322   3.959  -1.358  0.00  0.00    +0.005 C 
ATOM      5  C   UNL     1      -5.701   2.595  -0.784  0.00  0.00    +0.008 C 
ATOM      6  C   UNL     1      -4.622   1.550  -1.031  0.00  0.00    +0.001 C 
ATOM      7  C   UNL     1      -3.224   2.051  -0.627  0.00  0.00    +0.079 C 
ATOM      8  C   UNL     1      -2.167   0.992  -0.975  0.00  0.00    +0.039 C 
ATOM      9  C   UNL     1      -1.257   0.929   0.272  0.00  0.00    +0.040 C 
ATOM     10  C   UNL     1      -2.086   1.582   1.391  0.00  0.00    +0.095 C 
ATOM     11  O   UNL     1      -3.190   2.255   0.786  0.00  0.00    -0.364 OA
ATOM     12  C   UNL     1      -4.592   1.145  -2.504  0.00  0.00    +0.012 C 
ATOM     13  C   UNL     1      -5.947   0.578  -2.917  0.00  0.00    +0.032 C 
ATOM     14  C   UNL     1      -7.035   1.624  -2.727  0.00  0.00    +0.123 C 
ATOM     15  C   UNL     1      -7.073   2.190  -1.314  0.00  0.00    +0.020 C 
ATOM     16  C   UNL     1      -7.993   3.434  -1.356  0.00  0.00    +0.016 C 
ATOM     17  C   UNL     1      -4.887   0.299  -0.175  0.00  0.00    +0.014 C 
ENDROOT
BRANCH  14  18
ATOM     18  O   UNL     1      -6.859   2.684  -3.673  0.00  0.00    -0.391 OA
ATOM     19  H   UNL     1      -7.557   3.534  -3.684  0.00  0.00    +0.210 HD
ENDBRANCH  14  18
BRANCH  10  20
ATOM     20  C   UNL     1      -1.217   2.580   2.167  0.00  0.00    +0.065 C 
BRANCH  20  21
ATOM     21  C   UNL     1      -0.042   1.840   2.809  0.00  0.00    +0.158 C 
BRANCH  21  22
ATOM     22  O   UNL     1       0.776   2.771   3.520  0.00  0.00    -0.395 OA
ATOM     23  H   UNL     1       1.674   2.421   4.051  0.00  0.00    +0.209 HD
ENDBRANCH  21  22
ENDBRANCH  20  21
ENDBRANCH  10  20
BRANCH  10  24
ATOM     24  C   UNL     1      -2.582   0.505   2.363  0.00  0.00    +0.190 C 
BRANCH  24  25
ATOM     25  O   UNL     1      -3.275   1.124   3.448  0.00  0.00    -0.392 OA
ATOM     26  H   UNL     1      -3.705   0.507   4.250  0.00  0.00    +0.210 HD
ENDBRANCH  24  25
ENDBRANCH  10  24
BRANCH  15  27
ATOM     27  C   UNL     1      -7.773   1.199  -0.375  0.00  0.00    +0.165 C 
BRANCH  27  28
ATOM     28  O   UNL     1      -7.688   1.675   0.970  0.00  0.00    -0.394 OA
ATOM     29  H   UNL     1      -8.136   1.093   1.788  0.00  0.00    +0.209 HD
ENDBRANCH  27  28
ENDBRANCH  15  27
TORSDOF 8
