REMARK  Name = ZINC40498426
REMARK  5 active torsions:
REMARK  status: ('A' for Active; 'I' for Inactive)
REMARK    1  A    between atoms: C_5  and  C_7
REMARK    2  A    between atoms: C_7  and  C_9
REMARK    3  A    between atoms: C_7  and  N_20
REMARK    4  A    between atoms: C_9  and  C_10
REMARK    5  A    between atoms: N_12  and  C_13
REMARK                            x       y       z     vdW  Elec       q    Type
REMARK                         _______ _______ _______ _____ _____    ______ ____
ROOT
ATOM      1  C   UNL     1       1.228  -2.187  -0.021  0.00  0.00    +0.116 C 
ENDROOT
BRANCH   1   6
ATOM      2  C   UNL     1       1.133   1.421   1.084  0.00  0.00    +0.000 A 
ATOM      3  C   UNL     1       1.220   2.085  -0.126  0.00  0.00    +0.003 A 
ATOM      4  C   UNL     1       1.310   1.367  -1.303  0.00  0.00    +0.039 A 
ATOM      5  C   UNL     1       1.313  -0.018  -1.270  0.00  0.00    +0.128 A 
ATOM      6  C   UNL     1       1.226  -0.681  -0.058  0.00  0.00    +0.008 A 
ATOM      7  C   UNL     1       1.136   0.040   1.118  0.00  0.00    +0.008 A 
ATOM      8  F   UNL     1       1.401  -0.721  -2.421  0.00  0.00    -0.205 F 
ENDBRANCH   1   6
BRANCH   1   9
ATOM      9  N   UNL     1      -0.068  -2.689  -0.485  0.00  0.00    -0.292 N 
ATOM     10  C   UNL     1      -1.201  -2.301   0.134  0.00  0.00    +0.298 C 
ATOM     11  O   UNL     1      -1.157  -1.465   1.015  0.00  0.00    -0.253 OA
ATOM     12  N   UNL     1      -2.383  -2.840  -0.226  0.00  0.00    -0.313 N 
ATOM     13  H   UNL     1      -0.110  -3.301  -1.236  0.00  0.00    +0.151 HD
ATOM     14  H   UNL     1      -2.418  -3.507  -0.929  0.00  0.00    +0.146 HD
ATOM     15  H   UNL     1      -3.198  -2.561   0.219  0.00  0.00    +0.146 HD
ENDBRANCH   1   9
BRANCH   1  16
ATOM     16  C   UNL     1       1.476  -2.662   1.412  0.00  0.00    +0.123 C 
BRANCH  16  17
ATOM     17  C   UNL     1       1.601  -4.163   1.430  0.00  0.00    +0.215 C 
ATOM     18  O   UNL     1       1.501  -4.792   0.397  0.00  0.00    -0.276 OA
ATOM     19  N   UNL     1       1.823  -4.808   2.592  0.00  0.00    -0.312 N 
ATOM     20  H   UNL     1       1.902  -4.305   3.418  0.00  0.00    +0.149 HD
BRANCH  19  21
ATOM     21  C   UNL     1       1.944  -6.268   2.609  0.00  0.00    +0.073 C 
ATOM     22  C   UNL     1       0.531  -6.886   2.625  0.00  0.00    +0.022 C 
ATOM     23  C   UNL     1       0.625  -8.306   2.136  0.00  0.00    +0.002 C 
ATOM     24  C   UNL     1       0.770  -9.318   3.288  0.00  0.00    +0.000 C 
ATOM     25  C   UNL     1       1.736  -8.837   4.388  0.00  0.00    +0.000 C 
ATOM     26  C   UNL     1       2.970  -8.185   3.826  0.00  0.00    +0.002 C 
ATOM     27  C   UNL     1       2.735  -6.661   3.766  0.00  0.00    +0.022 C 
ENDBRANCH  19  21
ENDBRANCH  16  17
ENDBRANCH   1  16
TORSDOF 5
