REMARK  Name = ZINC12445924
REMARK  7 active torsions:
REMARK  status: ('A' for Active; 'I' for Inactive)
REMARK    1  A    between atoms: C_6  and  C_7
REMARK    2  A    between atoms: C_7  and  N_8
REMARK    3  A    between atoms: C_12  and  C_15
REMARK    4  A    between atoms: C_12  and  O_26
REMARK    5  A    between atoms: C_15  and  N_51
REMARK    6  A    between atoms: C_16  and  C_17
REMARK    7  A    between atoms: C_16  and  N_51
REMARK                            x       y       z     vdW  Elec       q    Type
REMARK                         _______ _______ _______ _____ _____    ______ ____
ROOT
ATOM      1  N   UNL     1      -3.930   3.912   2.957  0.00  0.00    -0.295 N 
ATOM      2  C   UNL     1      -3.967   5.327   3.304  0.00  0.00    +0.108 C 
ATOM      3  C   UNL     1      -2.564   5.831   3.645  0.00  0.00    +0.022 C 
ATOM      4  C   UNL     1      -1.608   5.423   2.518  0.00  0.00    +0.044 C 
ATOM      5  C   UNL     1      -1.467   3.899   2.531  0.00  0.00    +0.127 C 
ATOM      6  C   UNL     1      -2.825   3.261   2.588  0.00  0.00    +0.246 C 
ATOM      7  O   UNL     1      -2.924   2.091   2.283  0.00  0.00    -0.273 OA
ENDROOT
BRANCH   5   8
ATOM      8  O   UNL     1      -0.709   3.504   3.676  0.00  0.00    -0.381 OA
ATOM      9  H   UNL     1      -0.575   2.549   3.749  0.00  0.00    +0.211 HD
ENDBRANCH   5   8
BRANCH   1  10
ATOM     10  C   UNL     1      -5.184   3.157   3.015  0.00  0.00    +0.143 C 
BRANCH  10  16
ATOM     11  C   UNL     1      -6.010   3.292   5.374  0.00  0.00    +0.008 A 
ATOM     12  C   UNL     1      -6.167   2.757   6.639  0.00  0.00    +0.041 A 
ATOM     13  C   UNL     1      -5.667   1.499   6.925  0.00  0.00    +0.158 A 
ATOM     14  C   UNL     1      -5.009   0.776   5.941  0.00  0.00    +0.159 A 
ATOM     15  C   UNL     1      -4.858   1.312   4.675  0.00  0.00    +0.046 A 
ATOM     16  C   UNL     1      -5.354   2.572   4.394  0.00  0.00    -0.027 A 
ATOM     17  F   UNL     1      -4.520  -0.453   6.218  0.00  0.00    -0.202 F 
ATOM     18  F   UNL     1      -5.820   0.976   8.161  0.00  0.00    -0.202 F 
ENDBRANCH  10  16
ENDBRANCH   1  10
BRANCH   5  19
ATOM     19  C   UNL     1      -0.745   3.444   1.261  0.00  0.00    -0.037 C 
BRANCH  19  20
ATOM     20  N   UNL     1      -0.710   1.970   1.226  0.00  0.00    +0.385 N 
ATOM     21  H   UNL     1      -1.671   1.608   1.230  0.00  0.00    -0.085 HD
ATOM     22  H   UNL     1      -0.211   1.624   2.054  0.00  0.00    -0.085 HD
BRANCH  20  23
ATOM     23  C   UNL     1      -0.018   1.503   0.010  0.00  0.00    -0.024 C 
BRANCH  23  24
ATOM     24  C   UNL     1       0.002  -0.004   0.002  0.00  0.00    +0.049 A 
ATOM     25  C   UNL     1       1.005  -0.815   0.551  0.00  0.00    -0.006 A 
ATOM     26  C   UNL     1       0.655  -2.104   0.344  0.00  0.00    +0.039 A 
ATOM     27  N   UNL     1      -0.522  -2.110  -0.322  0.00  0.00    -0.281 N 
ATOM     28  H   UNL     1      -1.026  -2.921  -0.618  0.00  0.00    +0.189 HD
ATOM     29  N   UNL     1      -0.910  -0.780  -0.523  0.00  0.00    -0.180 NA
ATOM     30  C   UNL     1       1.701  -3.031   0.923  0.00  0.00    +0.055 C 
ATOM     31  C   UNL     1       2.519  -2.154   1.895  0.00  0.00    +0.011 C 
ATOM     32  C   UNL     1       2.318  -0.743   1.301  0.00  0.00    +0.039 C 
ENDBRANCH  23  24
ENDBRANCH  20  23
ENDBRANCH  19  20
ENDBRANCH   5  19
TORSDOF 7
