REMARK  Name = ZINC08569259
REMARK  14 active torsions:
REMARK  status: ('A' for Active; 'I' for Inactive)
REMARK    1  A    between atoms: C_1  and  C_2
REMARK    2  A    between atoms: C_2  and  O_3
REMARK    3  A    between atoms: O_3  and  C_4
REMARK    4  A    between atoms: C_6  and  C_18
REMARK    5  A    between atoms: C_9  and  O_10
REMARK    6  A    between atoms: O_10  and  C_11
REMARK    7  A    between atoms: C_11  and  C_12
REMARK    8  A    between atoms: C_21  and  C_32
REMARK    9  A    between atoms: N_28  and  C_29
REMARK   10  A    between atoms: C_29  and  C_30
REMARK   11  A    between atoms: C_30  and  O_31
REMARK   12  A    between atoms: C_34  and  C_40
REMARK   13  A    between atoms: C_36  and  C_39
REMARK   14  A    between atoms: C_37  and  O_38
REMARK                            x       y       z     vdW  Elec       q    Type
REMARK                         _______ _______ _______ _____ _____    ______ ____
ROOT
ATOM      1  C   UNL     1       0.392  -4.790   0.026  0.00  0.00    +0.141 C 
ATOM      2  C   UNL     1       0.669  -5.292  -1.365  0.00  0.00    +0.035 A 
ATOM      3  C   UNL     1       0.810  -4.999  -2.684  0.00  0.00    +0.075 A 
ATOM      4  N   UNL     1       1.086  -6.176  -3.319  0.00  0.00    -0.276 N 
ATOM      5  H   UNL     1       1.237  -6.273  -4.272  0.00  0.00    +0.189 HD
ATOM      6  N   UNL     1       1.117  -7.138  -2.466  0.00  0.00    -0.168 NA
ATOM      7  C   UNL     1       0.873  -6.686  -1.252  0.00  0.00    +0.153 A 
ATOM      8  C   UNL     1       0.729  -7.050   0.169  0.00  0.00    +0.268 C 
ATOM      9  O   UNL     1       0.845  -8.177   0.611  0.00  0.00    -0.268 OA
ATOM     10  N   UNL     1       0.452  -5.961   0.908  0.00  0.00    -0.283 N 
ENDROOT
BRANCH   3  11
ATOM     11  C   UNL     1       0.689  -3.665  -3.311  0.00  0.00    +0.042 A 
ATOM     12  C   UNL     1      -0.344  -3.405  -4.211  0.00  0.00    +0.017 A 
ATOM     13  C   UNL     1      -0.453  -2.158  -4.792  0.00  0.00    -0.049 A 
ATOM     14  C   UNL     1       0.459  -1.164  -4.486  0.00  0.00    +0.010 A 
ATOM     15  C   UNL     1       1.487  -1.410  -3.595  0.00  0.00    -0.008 A 
ATOM     16  C   UNL     1       1.606  -2.655  -2.999  0.00  0.00    +0.129 A 
ATOM     17  C   UNL     1       2.477  -0.322  -3.268  0.00  0.00    +0.047 C 
ATOM     18  C   UNL     1      -1.570  -1.879  -5.765  0.00  0.00    +0.044 C 
BRANCH  16  19
ATOM     19  O   UNL     1       2.612  -2.896  -2.119  0.00  0.00    -0.506 OA
ATOM     20  H   UNL     1       3.421  -3.231  -2.529  0.00  0.00    +0.292 HD
ENDBRANCH  16  19
ENDBRANCH   3  11
BRANCH   1  23
ATOM     21  C   UNL     1      -2.365  -2.218   0.254  0.00  0.00    +0.162 A 
ATOM     22  C   UNL     1      -1.106  -2.794   0.198  0.00  0.00    +0.055 A 
ATOM     23  C   UNL     1      -0.978  -4.166   0.087  0.00  0.00    -0.019 A 
ATOM     24  C   UNL     1      -2.104  -4.966   0.032  0.00  0.00    +0.009 A 
ATOM     25  C   UNL     1      -3.363  -4.398   0.088  0.00  0.00    +0.050 A 
ATOM     26  C   UNL     1      -3.498  -3.024   0.205  0.00  0.00    +0.162 A 
BRANCH  21  27
ATOM     27  O   UNL     1      -2.493  -0.868   0.364  0.00  0.00    -0.489 OA
BRANCH  27  29
ATOM     28  C   UNL     1      -1.629   1.382   0.532  0.00  0.00    +0.048 C 
ATOM     29  C   UNL     1      -1.287  -0.104   0.409  0.00  0.00    +0.226 C 
ENDBRANCH  27  29
ENDBRANCH  21  27
BRANCH  26  30
ATOM     30  O   UNL     1      -4.736  -2.464   0.266  0.00  0.00    -0.484 OA
BRANCH  30  31
ATOM     31  C   UNL     1      -5.854  -3.353   0.210  0.00  0.00    +0.264 C 
BRANCH  31  32
ATOM     32  C   UNL     1      -7.132  -2.558   0.290  0.00  0.00    -0.010 A 
ATOM     33  C   UNL     1      -7.699  -2.284   1.520  0.00  0.00    +0.007 A 
ATOM     34  C   UNL     1      -8.872  -1.556   1.594  0.00  0.00    +0.000 A 
ATOM     35  C   UNL     1      -9.476  -1.101   0.437  0.00  0.00    +0.000 A 
ATOM     36  C   UNL     1      -8.909  -1.374  -0.793  0.00  0.00    +0.000 A 
ATOM     37  C   UNL     1      -7.734  -2.099  -0.867  0.00  0.00    +0.007 A 
ENDBRANCH  31  32
ENDBRANCH  30  31
ENDBRANCH  26  30
ENDBRANCH   1  23
BRANCH  10  38
ATOM     38  C   UNL     1       0.245  -5.945   2.358  0.00  0.00    +0.137 C 
BRANCH  38  39
ATOM     39  C   UNL     1       1.598  -5.848   3.066  0.00  0.00    +0.175 C 
BRANCH  39  40
ATOM     40  O   UNL     1       2.203  -4.588   2.766  0.00  0.00    -0.393 OA
ATOM     41  H   UNL     1       3.066  -4.457   3.182  0.00  0.00    +0.209 HD
ENDBRANCH  39  40
ENDBRANCH  38  39
ENDBRANCH  10  38
TORSDOF 11
