REMARK  Name = ZINC12747863
REMARK  7 active torsions:
REMARK  status: ('A' for Active; 'I' for Inactive)
REMARK    1  A    between atoms: C_1  and  C_2
REMARK    2  A    between atoms: C_2  and  C_4
REMARK    3  A    between atoms: C_2  and  N_14
REMARK    4  A    between atoms: C_7  and  S_10
REMARK    5  A    between atoms: S_10  and  N_13
REMARK    6  A    between atoms: C_15  and  C_17
REMARK    7  A    between atoms: N_20  and  C_22
REMARK                            x       y       z     vdW  Elec       q    Type
REMARK                         _______ _______ _______ _____ _____    ______ ____
ROOT
ATOM      1  N   UNL     1      -3.479   1.643  -0.860  0.00  0.00    -0.303 N 
ATOM      2  C   UNL     1      -4.480   0.935  -1.419  0.00  0.00    +0.265 C 
ATOM      3  O   UNL     1      -4.582  -0.255  -1.193  0.00  0.00    -0.268 OA
ATOM      4  H   UNL     1      -3.397   2.593  -1.041  0.00  0.00    +0.150 HD
ENDROOT
BRANCH   2   5
ATOM      5  C   UNL     1      -5.453   1.604  -2.306  0.00  0.00    +0.151 A 
ATOM      6  C   UNL     1      -6.546   0.997  -2.965  0.00  0.00    +0.006 A 
ATOM      7  C   UNL     1      -7.154   1.985  -3.656  0.00  0.00    +0.049 A 
ATOM      8  N   UNL     1      -6.448   3.124  -3.425  0.00  0.00    -0.236 N 
ATOM      9  N   UNL     1      -5.463   2.881  -2.637  0.00  0.00    -0.161 NA
ATOM     10  C   UNL     1      -8.352   1.439  -4.402  0.00  0.00    +0.056 C 
ATOM     11  C   UNL     1      -8.655   0.080  -3.733  0.00  0.00    +0.011 C 
ATOM     12  C   UNL     1      -7.274  -0.311  -3.162  0.00  0.00    +0.040 C 
BRANCH   8  13
ATOM     13  C   UNL     1      -6.752   4.381  -3.966  0.00  0.00    +0.066 A 
ATOM     14  C   UNL     1      -7.269   4.478  -5.251  0.00  0.00    +0.030 A 
ATOM     15  C   UNL     1      -7.573   5.717  -5.781  0.00  0.00    +0.040 A 
ATOM     16  C   UNL     1      -7.351   6.862  -5.035  0.00  0.00    +0.124 A 
ATOM     17  C   UNL     1      -6.831   6.768  -3.755  0.00  0.00    +0.040 A 
ATOM     18  C   UNL     1      -6.531   5.531  -3.220  0.00  0.00    +0.030 A 
ATOM     19  F   UNL     1      -7.643   8.074  -5.557  0.00  0.00    -0.205 F 
ENDBRANCH   8  13
ENDBRANCH   2   5
BRANCH   1  21
ATOM     20  C   UNL     1      -3.073   0.926   1.442  0.00  0.00    +0.033 C 
ATOM     21  C   UNL     1      -2.514   0.980   0.019  0.00  0.00    +0.100 C 
BRANCH  21  22
ATOM     22  C   UNL     1      -1.219   1.751   0.017  0.00  0.00    -0.027 A 
ATOM     23  C   UNL     1      -0.013   1.076   0.008  0.00  0.00    +0.007 A 
ATOM     24  C   UNL     1       1.175   1.783   0.000  0.00  0.00    +0.029 A 
ATOM     25  C   UNL     1       1.156   3.165   0.008  0.00  0.00    +0.105 A 
ATOM     26  C   UNL     1      -0.050   3.840   0.022  0.00  0.00    +0.029 A 
ATOM     27  C   UNL     1      -1.238   3.133   0.030  0.00  0.00    +0.007 A 
BRANCH  25  28
ATOM     28  S   UNL     1       2.670   4.067  -0.003  0.00  0.00    +0.056 S 
ATOM     29  O   UNL     1       2.387   5.342   0.557  0.00  0.00    -0.153 OA
ATOM     30  O   UNL     1       3.662   3.202   0.534  0.00  0.00    -0.153 OA
BRANCH  28  31
ATOM     31  N   UNL     1       3.075   4.326  -1.587  0.00  0.00    -0.204 NA
ATOM     32  H   UNL     1       2.502   3.992  -2.295  0.00  0.00    +0.144 HD
ATOM     33  H   UNL     1       3.886   4.811  -1.808  0.00  0.00    +0.144 HD
ENDBRANCH  28  31
ENDBRANCH  25  28
ENDBRANCH  21  22
ENDBRANCH   1  21
TORSDOF 6
