REMARK  Name = ZINC62843693
REMARK  5 active torsions:
REMARK  status: ('A' for Active; 'I' for Inactive)
REMARK    1  A    between atoms: C_1  and  C_2
REMARK    2  A    between atoms: C_2  and  C_18
REMARK    3  A    between atoms: N_5  and  C_8
REMARK    4  A    between atoms: C_13  and  S_14
REMARK    5  A    between atoms: S_14  and  N_17
REMARK                            x       y       z     vdW  Elec       q    Type
REMARK                         _______ _______ _______ _____ _____    ______ ____
ROOT
ATOM      1  C   UNL     1       4.059  -0.950   0.082  0.00  0.00    +0.056 A 
ATOM      2  C   UNL     1       4.106  -2.335   0.178  0.00  0.00    +0.025 A 
ATOM      3  C   UNL     1       5.310  -2.995   0.036  0.00  0.00    +0.002 A 
ATOM      4  C   UNL     1       6.469  -2.278  -0.201  0.00  0.00    +0.002 A 
ATOM      5  C   UNL     1       6.426  -0.900  -0.298  0.00  0.00    +0.030 A 
ATOM      6  C   UNL     1       5.224  -0.234  -0.163  0.00  0.00    +0.126 A 
ENDROOT
BRANCH   1  11
ATOM      7  C   UNL     1       0.041   1.568   0.542  0.00  0.00    +0.023 C 
ATOM      8  C   UNL     1       0.055   0.039   0.590  0.00  0.00    +0.072 C 
ATOM      9  C   UNL     1       0.607  -0.507  -0.729  0.00  0.00    +0.037 C 
ATOM     10  C   UNL     1       2.021   0.040  -0.952  0.00  0.00    +0.106 C 
ATOM     11  N   UNL     1       2.842  -0.279   0.224  0.00  0.00    -0.328 N 
ATOM     12  C   UNL     1       2.359   0.121   1.553  0.00  0.00    +0.106 C 
ATOM     13  C   UNL     1       0.942  -0.427   1.747  0.00  0.00    +0.037 C 
BRANCH   8  14
ATOM     14  C   UNL     1      -1.348  -0.471   0.796  0.00  0.00    +0.362 C 
ATOM     15  O   UNL     1      -2.217  -0.209  -0.019  0.00  0.00    -0.246 OA
ATOM     16  O   UNL     1      -1.614  -1.144   1.776  0.00  0.00    -0.246 OA
ENDBRANCH   8  14
ENDBRANCH   1  11
BRANCH   6  17
ATOM     17  S   UNL     1       5.169   1.523  -0.294  0.00  0.00    +0.058 S 
ATOM     18  O   UNL     1       4.414   1.989   0.816  0.00  0.00    -0.153 OA
ATOM     19  O   UNL     1       6.500   1.953  -0.545  0.00  0.00    -0.153 OA
BRANCH  17  20
ATOM     20  N   UNL     1       4.290   1.885  -1.650  0.00  0.00    -0.203 NA
ATOM     21  H   UNL     1       3.923   1.172  -2.195  0.00  0.00    +0.144 HD
ATOM     22  H   UNL     1       4.144   2.811  -1.899  0.00  0.00    +0.144 HD
ENDBRANCH  17  20
ENDBRANCH   6  17
TORSDOF 4
