REMARK  Name = ZINC40035605
REMARK  12 active torsions:
REMARK  status: ('A' for Active; 'I' for Inactive)
REMARK    1  A    between atoms: C_1  and  C_2
REMARK    2  A    between atoms: C_2  and  C_3
REMARK    3  A    between atoms: C_3  and  C_39
REMARK    4  A    between atoms: N_15  and  C_33
REMARK    5  A    between atoms: N_18  and  N_19
REMARK    6  A    between atoms: C_20  and  C_21
REMARK    7  A    between atoms: C_24  and  O_30
REMARK    8  A    between atoms: C_25  and  O_27
REMARK    9  A    between atoms: O_27  and  C_28
REMARK   10  A    between atoms: C_28  and  C_29
REMARK   11  A    between atoms: O_30  and  C_31
REMARK   12  A    between atoms: C_31  and  C_32
REMARK                            x       y       z     vdW  Elec       q    Type
REMARK                         _______ _______ _______ _____ _____    ______ ____
ROOT
ATOM      1  C   UNL     1      -1.884  -1.183  -0.207  0.00  0.00    +0.004 C 
ATOM      2  C   UNL     1      -2.030  -2.646  -0.616  0.00  0.00    +0.047 C 
ATOM      3  C   UNL     1      -1.297  -2.911  -1.903  0.00  0.00    -0.037 A 
ATOM      4  C   UNL     1      -0.662  -4.119  -2.110  0.00  0.00    +0.004 A 
ATOM      5  C   UNL     1       0.006  -4.355  -3.299  0.00  0.00    +0.000 A 
ATOM      6  C   UNL     1       0.043  -3.387  -4.287  0.00  0.00    +0.001 A 
ATOM      7  C   UNL     1      -0.588  -2.175  -4.091  0.00  0.00    +0.010 A 
ATOM      8  C   UNL     1      -1.259  -1.932  -2.897  0.00  0.00    +0.004 A 
ATOM      9  C   UNL     1      -1.936  -0.637  -2.654  0.00  0.00    +0.084 A 
ATOM     10  C   UNL     1      -2.244  -0.276  -1.350  0.00  0.00    +0.050 A 
ATOM     11  C   UNL     1      -2.892   0.945  -1.123  0.00  0.00    +0.264 A 
ATOM     12  O   UNL     1      -3.180   1.296   0.010  0.00  0.00    -0.267 OA
ATOM     13  N   UNL     1      -3.190   1.725  -2.184  0.00  0.00    -0.248 N 
ATOM     14  C   UNL     1      -2.860   1.325  -3.446  0.00  0.00    +0.223 A 
ATOM     15  N   UNL     1      -2.252   0.178  -3.666  0.00  0.00    -0.214 NA
ATOM     16  N   UNL     1      -3.168   2.135  -4.508  0.00  0.00    -0.206 N 
ATOM     17  C   UNL     1      -2.812  -0.895   0.975  0.00  0.00    +0.016 C 
ATOM     18  H   UNL     1      -3.549   3.014  -4.353  0.00  0.00    +0.177 HD
ENDROOT
BRANCH  13  19
ATOM     19  C   UNL     1      -3.841   2.950  -1.988  0.00  0.00    +0.053 A 
ATOM     20  C   UNL     1      -5.227   3.019  -2.049  0.00  0.00    +0.026 A 
ATOM     21  C   UNL     1      -5.865   4.228  -1.855  0.00  0.00    +0.002 A 
ATOM     22  C   UNL     1      -5.127   5.369  -1.600  0.00  0.00    +0.000 A 
ATOM     23  C   UNL     1      -3.747   5.303  -1.539  0.00  0.00    +0.002 A 
ATOM     24  C   UNL     1      -3.102   4.096  -1.727  0.00  0.00    +0.026 A 
ENDBRANCH  13  19
BRANCH   1  26
ATOM     25  C   UNL     1      -0.292   0.542   0.649  0.00  0.00    +0.005 C 
ATOM     26  C   UNL     1      -0.437  -0.917   0.211  0.00  0.00    +0.008 C 
ENDBRANCH   1  26
BRANCH  16  27
ATOM     27  N   UNL     1      -2.934   1.693  -5.816  0.00  0.00    -0.188 NA
ATOM     28  C   UNL     1      -3.226   2.460  -6.822  0.00  0.00    +0.138 C 
BRANCH  28  29
ATOM     29  C   UNL     1      -2.979   1.996  -8.199  0.00  0.00    -0.002 A 
ATOM     30  C   UNL     1      -2.436   0.728  -8.424  0.00  0.00    +0.013 A 
ATOM     31  C   UNL     1      -2.206   0.295  -9.713  0.00  0.00    +0.050 A 
ATOM     32  C   UNL     1      -2.513   1.116 -10.789  0.00  0.00    +0.162 A 
ATOM     33  C   UNL     1      -3.054   2.381 -10.572  0.00  0.00    +0.162 A 
ATOM     34  C   UNL     1      -3.293   2.819  -9.283  0.00  0.00    +0.059 A 
BRANCH  33  35
ATOM     35  O   UNL     1      -3.352   3.183 -11.630  0.00  0.00    -0.489 OA
BRANCH  35  36
ATOM     36  C   UNL     1      -3.904   4.467 -11.334  0.00  0.00    +0.226 C 
ATOM     37  C   UNL     1      -4.173   5.219 -12.639  0.00  0.00    +0.048 C 
ENDBRANCH  35  36
ENDBRANCH  33  35
BRANCH  32  38
ATOM     38  O   UNL     1      -2.284   0.684 -12.058  0.00  0.00    -0.489 OA
BRANCH  38  39
ATOM     39  C   UNL     1      -1.727  -0.623 -12.207  0.00  0.00    +0.226 C 
ATOM     40  C   UNL     1      -1.542  -0.931 -13.695  0.00  0.00    +0.048 C 
ENDBRANCH  38  39
ENDBRANCH  32  38
ENDBRANCH  28  29
ENDBRANCH  16  27
TORSDOF 8
