REMARK  Name = ZINC00647875
REMARK  16 active torsions:
REMARK  status: ('A' for Active; 'I' for Inactive)
REMARK    1  A    between atoms: C_1  and  C_2
REMARK    2  A    between atoms: C_3  and  C_35
REMARK    3  A    between atoms: C_4  and  C_25
REMARK    4  A    between atoms: C_10  and  C_15
REMARK    5  A    between atoms: C_18  and  O_23
REMARK    6  A    between atoms: C_19  and  O_21
REMARK    7  A    between atoms: O_21  and  C_22
REMARK    8  A    between atoms: O_23  and  C_24
REMARK    9  A    between atoms: C_30  and  O_31
REMARK   10  A    between atoms: O_31  and  C_32
REMARK   11  A    between atoms: C_32  and  C_33
REMARK   12  A    between atoms: C_32  and  C_34
REMARK   13  A    between atoms: C_35  and  O_37
REMARK   14  A    between atoms: O_37  and  C_38
REMARK   15  A    between atoms: C_38  and  C_39
REMARK   16  A    between atoms: C_38  and  C_40
REMARK                            x       y       z     vdW  Elec       q    Type
REMARK                         _______ _______ _______ _____ _____    ______ ____
ROOT
ATOM      1  C   UNL     1      -1.878   7.458  -2.435  0.00  0.00    +0.061 C 
ATOM      2  C   UNL     1      -1.623   6.817  -1.095  0.00  0.00    +0.016 C 
ATOM      3  C   UNL     1      -0.674   5.873  -0.976  0.00  0.00    +0.065 C 
ATOM      4  C   UNL     1      -0.399   5.207   0.340  0.00  0.00    +0.096 C 
ATOM      5  C   UNL     1      -0.972   6.007   1.483  0.00  0.00    +0.024 C 
ATOM      6  C   UNL     1      -1.910   6.951   1.261  0.00  0.00    +0.016 C 
ATOM      7  N   UNL     1      -2.360   7.199  -0.009  0.00  0.00    -0.321 N 
ATOM      8  C   UNL     1      -2.484   7.760   2.398  0.00  0.00    +0.059 C 
ATOM      9  C   UNL     1      -2.482   6.920   3.678  0.00  0.00    +0.032 C 
ATOM     10  C   UNL     1      -1.042   6.486   3.972  0.00  0.00    +0.088 C 
ATOM     11  C   UNL     1      -0.503   5.740   2.781  0.00  0.00    +0.162 C 
ATOM     12  O   UNL     1       0.352   4.893   2.945  0.00  0.00    -0.292 OA
ATOM     13  H   UNL     1      -3.323   7.711  -0.150  0.00  0.00    +0.152 HD
ENDROOT
BRANCH   9  14
ATOM     14  C   UNL     1      -3.009   7.740   4.827  0.00  0.00    -0.040 A 
ATOM     15  C   UNL     1      -2.373   8.915   5.184  0.00  0.00    +0.008 A 
ATOM     16  C   UNL     1      -2.852   9.671   6.238  0.00  0.00    +0.049 A 
ATOM     17  C   UNL     1      -3.972   9.252   6.938  0.00  0.00    +0.161 A 
ATOM     18  C   UNL     1      -4.612   8.069   6.579  0.00  0.00    +0.162 A 
ATOM     19  C   UNL     1      -4.129   7.319   5.518  0.00  0.00    +0.053 A 
BRANCH  18  20
ATOM     20  O   UNL     1      -5.711   7.654   7.263  0.00  0.00    -0.491 OA
ATOM     21  C   UNL     1      -6.316   6.431   6.838  0.00  0.00    +0.277 C 
ENDBRANCH  18  20
BRANCH  17  22
ATOM     22  O   UNL     1      -4.445   9.994   7.975  0.00  0.00    -0.491 OA
ATOM     23  C   UNL     1      -3.738  11.196   8.287  0.00  0.00    +0.277 C 
ENDBRANCH  17  22
ENDBRANCH   9  14
BRANCH   4  24
ATOM     24  C   UNL     1      -1.018   3.833   0.338  0.00  0.00    +0.006 A 
ATOM     25  C   UNL     1      -2.376   3.687   0.126  0.00  0.00    +0.008 A 
ATOM     26  C   UNL     1      -2.944   2.427   0.118  0.00  0.00    +0.001 A 
ATOM     27  C   UNL     1      -2.158   1.310   0.334  0.00  0.00    +0.004 A 
ATOM     28  C   UNL     1      -0.800   1.451   0.546  0.00  0.00    +0.046 A 
ATOM     29  C   UNL     1      -0.227   2.714   0.549  0.00  0.00    +0.125 A 
BRANCH  29  30
ATOM     30  O   UNL     1       1.109   2.855   0.759  0.00  0.00    -0.489 OA
BRANCH  30  31
ATOM     31  C   UNL     1       1.843   1.673   1.085  0.00  0.00    +0.167 C 
ATOM     32  C   UNL     1       2.227   0.940  -0.202  0.00  0.00    +0.051 C 
ATOM     33  C   UNL     1       3.110   2.054   1.853  0.00  0.00    +0.051 C 
ENDBRANCH  30  31
ENDBRANCH  29  30
ENDBRANCH   4  24
BRANCH   3  34
ATOM     34  C   UNL     1       0.080   5.501  -2.113  0.00  0.00    +0.338 C 
ATOM     35  O   UNL     1       1.208   5.931  -2.263  0.00  0.00    -0.245 OA
BRANCH  34  36
ATOM     36  O   UNL     1      -0.451   4.667  -3.032  0.00  0.00    -0.459 OA
BRANCH  36  37
ATOM     37  C   UNL     1       0.320   4.424  -4.210  0.00  0.00    +0.171 C 
ATOM     38  C   UNL     1       1.189   3.182  -4.003  0.00  0.00    +0.052 C 
ATOM     39  C   UNL     1      -0.619   4.197  -5.396  0.00  0.00    +0.052 C 
ENDBRANCH  36  37
ENDBRANCH  34  36
ENDBRANCH   3  34
TORSDOF 9
