REMARK  Name = ZINC19767268
REMARK  6 active torsions:
REMARK  status: ('A' for Active; 'I' for Inactive)
REMARK    1  A    between atoms: C_1  and  C_2
REMARK    2  A    between atoms: C_2  and  C_3
REMARK    3  A    between atoms: C_2  and  C_4
REMARK    4  A    between atoms: C_7  and  C_10
REMARK    5  A    between atoms: C_16  and  C_18
REMARK    6  A    between atoms: C_21  and  N_24
REMARK                            x       y       z     vdW  Elec       q    Type
REMARK                         _______ _______ _______ _____ _____    ______ ____
ROOT
ATOM      1  C   UNL     1      -1.266  -0.764   0.011  0.00  0.00    +0.062 A 
ATOM      2  C   UNL     1      -2.442  -0.107   0.031  0.00  0.00    +0.075 A 
ATOM      3  S   UNL     1      -3.617  -1.451   0.030  0.00  0.00    -0.057 S 
ATOM      4  C   UNL     1      -2.450  -2.792   0.011  0.00  0.00    +0.178 A 
ATOM      5  N   UNL     1      -1.241  -2.148   0.003  0.00  0.00    -0.293 N 
ATOM      6  C   UNL     1      -0.291  -3.164  -0.012  0.00  0.00    +0.122 A 
ATOM      7  C   UNL     1      -0.955  -4.345  -0.012  0.00  0.00    +0.090 A 
ATOM      8  N   UNL     1      -2.278  -4.082   0.003  0.00  0.00    -0.221 NA
ENDROOT
BRANCH   1  12
ATOM      9  C   UNL     1       2.378   1.419  -0.013  0.00  0.00    -0.045 A 
ATOM     10  C   UNL     1       1.223   2.011   0.468  0.00  0.00    +0.004 A 
ATOM     11  C   UNL     1       0.037   1.308   0.478  0.00  0.00    +0.010 A 
ATOM     12  C   UNL     1       0.002  -0.004   0.002  0.00  0.00    -0.001 A 
ATOM     13  C   UNL     1       1.170  -0.596  -0.482  0.00  0.00    +0.010 A 
ATOM     14  C   UNL     1       2.350   0.119  -0.486  0.00  0.00    +0.004 A 
BRANCH   9  16
ATOM     15  C   UNL     1       3.509   3.446  -0.885  0.00  0.00    +0.012 C 
ATOM     16  C   UNL     1       3.671   2.193  -0.022  0.00  0.00    +0.013 C 
ATOM     17  C   UNL     1       4.030   2.602   1.408  0.00  0.00    +0.012 C 
ENDBRANCH   9  16
ENDBRANCH   1  12
BRANCH   7  18
ATOM     18  C   UNL     1      -0.335  -5.693  -0.025  0.00  0.00    +0.002 A 
ATOM     19  C   UNL     1       1.052  -5.823  -0.044  0.00  0.00    +0.012 A 
ATOM     20  C   UNL     1       1.626  -7.077  -0.050  0.00  0.00    +0.023 A 
ATOM     21  C   UNL     1       0.822  -8.210  -0.048  0.00  0.00    +0.025 A 
ATOM     22  C   UNL     1      -0.562  -8.083  -0.035  0.00  0.00    +0.023 A 
ATOM     23  C   UNL     1      -1.140  -6.831  -0.023  0.00  0.00    +0.012 A 
BRANCH  21  24
ATOM     24  N   UNL     1       1.406  -9.479  -0.060  0.00  0.00    -0.358 N 
ATOM     25  H   UNL     1       0.770 -10.377  -0.059  0.00  0.00    +0.142 HD
ATOM     26  H   UNL     1       2.501  -9.581  -0.072  0.00  0.00    +0.142 HD
ENDBRANCH  21  24
ENDBRANCH   7  18
TORSDOF 4
