REMARK  Name = ZINC35036944
REMARK  12 active torsions:
REMARK  status: ('A' for Active; 'I' for Inactive)
REMARK    1  A    between atoms: C_1  and  C_2
REMARK    2  A    between atoms: C_2  and  C_4
REMARK    3  A    between atoms: C_2  and  N_21
REMARK    4  A    between atoms: N_14  and  C_15
REMARK    5  A    between atoms: N_21  and  C_22
REMARK    6  A    between atoms: C_22  and  C_23
REMARK    7  A    between atoms: C_23  and  N_24
REMARK    8  A    between atoms: N_24  and  C_25
REMARK    9  A    between atoms: N_24  and  C_26
REMARK   10  A    between atoms: C_27  and  C_29
REMARK   11  A    between atoms: C_29  and  C_30
REMARK   12  A    between atoms: C_29  and  C_36
REMARK                            x       y       z     vdW  Elec       q    Type
REMARK                         _______ _______ _______ _____ _____    ______ ____
ROOT
ATOM      1  N   UNL     1       1.137  -1.843  -0.407  0.00  0.00    -0.293 N 
ATOM      2  C   UNL     1       0.843  -2.481   0.743  0.00  0.00    +0.228 C 
ATOM      3  O   UNL     1      -0.311  -2.736   1.018  0.00  0.00    -0.275 OA
ENDROOT
BRANCH   1   5
ATOM      4  C   UNL     1       0.184   0.167  -1.424  0.00  0.00    +0.036 C 
ATOM      5  C   UNL     1       0.058  -1.350  -1.268  0.00  0.00    +0.139 C 
BRANCH   5   6
ATOM      6  C   UNL     1       0.157  -2.005  -2.621  0.00  0.00    +0.138 A 
ATOM      7  N   UNL     1       1.210  -1.769  -3.344  0.00  0.00    -0.231 NA
ATOM      8  C   UNL     1       1.367  -2.323  -4.572  0.00  0.00    +0.078 A 
ATOM      9  C   UNL     1       2.499  -2.070  -5.350  0.00  0.00    +0.028 A 
ATOM     10  C   UNL     1       2.618  -2.654  -6.591  0.00  0.00    +0.002 A 
ATOM     11  C   UNL     1       1.625  -3.493  -7.081  0.00  0.00    +0.001 A 
ATOM     12  C   UNL     1       0.499  -3.757  -6.333  0.00  0.00    +0.015 A 
ATOM     13  C   UNL     1       0.360  -3.177  -5.074  0.00  0.00    +0.065 A 
ATOM     14  C   UNL     1      -0.819  -3.424  -4.231  0.00  0.00    +0.266 A 
ATOM     15  O   UNL     1      -1.722  -4.149  -4.604  0.00  0.00    -0.267 OA
ATOM     16  N   UNL     1      -0.858  -2.817  -3.021  0.00  0.00    -0.263 N 
BRANCH  16  17
ATOM     17  C   UNL     1      -1.956  -3.023  -2.177  0.00  0.00    +0.051 A 
ATOM     18  C   UNL     1      -2.872  -2.001  -1.965  0.00  0.00    +0.026 A 
ATOM     19  C   UNL     1      -3.954  -2.207  -1.132  0.00  0.00    +0.002 A 
ATOM     20  C   UNL     1      -4.126  -3.430  -0.509  0.00  0.00    +0.000 A 
ATOM     21  C   UNL     1      -3.216  -4.449  -0.718  0.00  0.00    +0.002 A 
ATOM     22  C   UNL     1      -2.135  -4.251  -1.554  0.00  0.00    +0.026 A 
ENDBRANCH  16  17
ENDBRANCH   5   6
ENDBRANCH   1   5
BRANCH   1  23
ATOM     23  C   UNL     1       2.535  -1.641  -0.796  0.00  0.00    +0.090 C 
BRANCH  23  24
ATOM     24  C   UNL     1       3.040  -0.319  -0.216  0.00  0.00    -0.060 C 
BRANCH  24  25
ATOM     25  N   UNL     1       4.421  -0.085  -0.660  0.00  0.00    +0.377 N 
ATOM     26  C   UNL     1       4.873   1.229  -0.184  0.00  0.00    -0.097 C 
ATOM     27  C   UNL     1       5.295  -1.131  -0.112  0.00  0.00    -0.097 C 
ATOM     28  H   UNL     1       4.459  -0.109  -1.668  0.00  0.00    -0.083 HD
ENDBRANCH  24  25
ENDBRANCH  23  24
ENDBRANCH   1  23
BRANCH   2  29
ATOM     29  C   UNL     1       1.947  -2.879   1.688  0.00  0.00    +0.135 C 
BRANCH  29  30
ATOM     30  C   UNL     1       2.330  -1.696   2.540  0.00  0.00    -0.031 A 
ATOM     31  C   UNL     1       1.353  -0.836   3.007  0.00  0.00    +0.005 A 
ATOM     32  C   UNL     1       1.704   0.249   3.789  0.00  0.00    +0.000 A 
ATOM     33  C   UNL     1       3.031   0.473   4.103  0.00  0.00    +0.000 A 
ATOM     34  C   UNL     1       4.008  -0.387   3.637  0.00  0.00    +0.000 A 
ATOM     35  C   UNL     1       3.656  -1.474   2.859  0.00  0.00    +0.005 A 
ENDBRANCH  29  30
BRANCH  29  36
ATOM     36  C   UNL     1       1.472  -4.002   2.572  0.00  0.00    -0.031 A 
ATOM     37  C   UNL     1       0.366  -3.823   3.383  0.00  0.00    +0.005 A 
ATOM     38  C   UNL     1      -0.070  -4.854   4.194  0.00  0.00    +0.000 A 
ATOM     39  C   UNL     1       0.599  -6.064   4.195  0.00  0.00    +0.000 A 
ATOM     40  C   UNL     1       1.704  -6.243   3.384  0.00  0.00    +0.000 A 
ATOM     41  C   UNL     1       2.137  -5.214   2.569  0.00  0.00    +0.005 A 
ENDBRANCH  29  36
ENDBRANCH   2  29
TORSDOF 9
