REMARK  Name = ZINC57768601
REMARK  9 active torsions:
REMARK  status: ('A' for Active; 'I' for Inactive)
REMARK    1  A    between atoms: C_1  and  C_2
REMARK    2  A    between atoms: C_2  and  S_3
REMARK    3  A    between atoms: S_3  and  C_6
REMARK    4  A    between atoms: C_9  and  O_28
REMARK    5  A    between atoms: C_10  and  N_12
REMARK    6  A    between atoms: C_13  and  C_15
REMARK    7  A    between atoms: C_15  and  C_16
REMARK    8  A    between atoms: C_19  and  C_21
REMARK    9  A    between atoms: C_24  and  C_27
REMARK                            x       y       z     vdW  Elec       q    Type
REMARK                         _______ _______ _______ _____ _____    ______ ____
ROOT
ATOM      1  N   UNL     1      -1.265  -5.166   2.399  0.00  0.00    -0.282 N 
ATOM      2  C   UNL     1      -1.220  -4.496   3.568  0.00  0.00    +0.223 C 
ATOM      3  O   UNL     1      -1.333  -3.289   3.580  0.00  0.00    -0.275 OA
ATOM      4  H   UNL     1      -1.240  -6.135   2.394  0.00  0.00    +0.155 HD
ENDROOT
BRANCH   1   9
ATOM      5  C   UNL     1      -2.150  -2.585  -0.069  0.00  0.00    +0.090 A 
ATOM      6  C   UNL     1      -1.512  -3.067  -1.197  0.00  0.00    +0.030 A 
ATOM      7  C   UNL     1      -0.790  -4.245  -1.138  0.00  0.00    +0.049 A 
ATOM      8  C   UNL     1      -0.705  -4.946   0.054  0.00  0.00    +0.138 A 
ATOM      9  C   UNL     1      -1.348  -4.461   1.191  0.00  0.00    +0.077 A 
ATOM     10  C   UNL     1      -2.065  -3.275   1.125  0.00  0.00    +0.054 A 
BRANCH   5  11
ATOM     11  S   UNL     1      -3.068  -1.084  -0.153  0.00  0.00    -0.003 S 
ATOM     12  O   UNL     1      -4.036  -1.192   0.882  0.00  0.00    -0.169 OA
ATOM     13  O   UNL     1      -3.470  -0.980  -1.512  0.00  0.00    -0.169 OA
BRANCH  11  15
ATOM     14  C   UNL     1      -2.564   1.581   0.202  0.00  0.00    +0.028 C 
ATOM     15  C   UNL     1      -1.870   0.218   0.245  0.00  0.00    +0.168 C 
ENDBRANCH  11  15
ENDBRANCH   5  11
BRANCH   8  16
ATOM     16  O   UNL     1       0.004  -6.105   0.114  0.00  0.00    -0.505 OA
ATOM     17  H   UNL     1       0.934  -5.985   0.347  0.00  0.00    +0.292 HD
ENDBRANCH   8  16
ENDBRANCH   1   9
BRANCH   2  18
ATOM     18  C   UNL     1      -1.031  -5.248   4.860  0.00  0.00    +0.152 C 
BRANCH  18  19
ATOM     19  C   UNL     1      -1.016  -4.275   6.011  0.00  0.00    +0.058 A 
ATOM     20  C   UNL     1      -1.874  -4.439   7.052  0.00  0.00    +0.071 A 
ATOM     21  S   UNL     1      -1.421  -3.044   8.076  0.00  0.00    -0.075 S 
ATOM     22  C   UNL     1      -0.142  -2.397   7.007  0.00  0.00    +0.109 A 
ATOM     23  N   UNL     1      -0.172  -3.271   6.011  0.00  0.00    -0.243 NA
BRANCH  22  24
ATOM     24  C   UNL     1       0.721  -1.210   7.189  0.00  0.00    +0.007 A 
ATOM     25  C   UNL     1       1.664  -0.874   6.217  0.00  0.00    +0.011 A 
ATOM     26  C   UNL     1       2.466   0.235   6.392  0.00  0.00    +0.004 A 
ATOM     27  C   UNL     1       2.336   1.014   7.529  0.00  0.00    -0.050 A 
ATOM     28  C   UNL     1       1.403   0.686   8.496  0.00  0.00    +0.004 A 
ATOM     29  C   UNL     1       0.591  -0.417   8.330  0.00  0.00    +0.011 A 
ATOM     30  C   UNL     1       3.216   2.223   7.714  0.00  0.00    +0.044 C 
ENDBRANCH  22  24
ENDBRANCH  18  19
ENDBRANCH   2  18
TORSDOF 7
