REMARK  Name = ZINC65743042
REMARK  13 active torsions:
REMARK  status: ('A' for Active; 'I' for Inactive)
REMARK    1  A    between atoms: C_1  and  C_2
REMARK    2  A    between atoms: C_2  and  C_4
REMARK    3  A    between atoms: C_2  and  C_14
REMARK    4  A    between atoms: C_7  and  C_10
REMARK    5  A    between atoms: C_10  and  C_11
REMARK    6  A    between atoms: C_11  and  C_12
REMARK    7  A    between atoms: C_11  and  C_13
REMARK    8  A    between atoms: C_14  and  O_16
REMARK    9  A    between atoms: O_16  and  C_17
REMARK   10  A    between atoms: C_19  and  O_33
REMARK   11  A    between atoms: C_21  and  O_32
REMARK   12  A    between atoms: C_23  and  O_31
REMARK   13  A    between atoms: C_25  and  C_28
REMARK                            x       y       z     vdW  Elec       q    Type
REMARK                         _______ _______ _______ _____ _____    ______ ____
ROOT
ATOM      1  O   UNL     1       0.233  -0.166  -2.451  0.00  0.00    -0.432 OA
ENDROOT
BRANCH   1   2
ATOM      2  C   UNL     1       0.952  -0.660  -3.582  0.00  0.00    +0.343 C 
ATOM      3  C   UNL     1       0.199  -0.297  -4.865  0.00  0.00    +0.214 C 
ATOM      4  C   UNL     1       0.127   1.228  -4.990  0.00  0.00    +0.180 C 
ATOM      5  C   UNL     1       1.548   1.799  -4.969  0.00  0.00    +0.186 C 
ATOM      6  C   UNL     1       2.249   1.354  -3.683  0.00  0.00    +0.266 C 
ATOM      7  O   UNL     1       2.254  -0.074  -3.614  0.00  0.00    -0.322 OA
BRANCH   6   8
ATOM      8  C   UNL     1       3.668   1.862  -3.682  0.00  0.00    +0.387 C 
ATOM      9  O   UNL     1       3.886   3.061  -3.645  0.00  0.00    -0.243 OA
ATOM     10  O   UNL     1       4.598   1.074  -3.719  0.00  0.00    -0.243 OA
ENDBRANCH   6   8
BRANCH   5  11
ATOM     11  O   UNL     1       2.274   1.315  -6.101  0.00  0.00    -0.386 OA
ATOM     12  H   UNL     1       3.184   1.637  -6.152  0.00  0.00    +0.210 HD
ENDBRANCH   5  11
BRANCH   4  13
ATOM     13  O   UNL     1      -0.512   1.577  -6.220  0.00  0.00    -0.386 OA
ATOM     14  H   UNL     1      -1.415   1.242  -6.303  0.00  0.00    +0.210 HD
ENDBRANCH   4  13
BRANCH   3  15
ATOM     15  O   UNL     1       0.888  -0.838  -5.993  0.00  0.00    -0.383 OA
ATOM     16  H   UNL     1       0.974  -1.801  -5.977  0.00  0.00    +0.210 HD
ENDBRANCH   3  15
ENDBRANCH   1   2
BRANCH   1  17
ATOM     17  C   UNL     1       0.707  -0.490  -1.238  0.00  0.00    +0.317 C 
ATOM     18  O   UNL     1       1.700  -1.172  -1.140  0.00  0.00    -0.250 OA
BRANCH  17  20
ATOM     19  C   UNL     1      -0.019   1.526   0.010  0.00  0.00    +0.024 C 
ATOM     20  C   UNL     1       0.002  -0.004   0.002  0.00  0.00    +0.125 C 
BRANCH  20  21
ATOM     21  C   UNL     1       0.731  -0.503   1.223  0.00  0.00    -0.034 A 
ATOM     22  C   UNL     1       2.050  -0.148   1.434  0.00  0.00    +0.005 A 
ATOM     23  C   UNL     1       2.719  -0.606   2.554  0.00  0.00    +0.004 A 
ATOM     24  C   UNL     1       2.068  -1.419   3.463  0.00  0.00    -0.047 A 
ATOM     25  C   UNL     1       0.749  -1.773   3.252  0.00  0.00    +0.004 A 
ATOM     26  C   UNL     1       0.079  -1.312   2.135  0.00  0.00    +0.005 A 
BRANCH  24  27
ATOM     27  C   UNL     1       2.797  -1.919   4.683  0.00  0.00    +0.038 C 
BRANCH  27  28
ATOM     28  C   UNL     1       2.614  -0.923   5.830  0.00  0.00    -0.013 C 
ATOM     29  C   UNL     1       3.248  -1.489   7.103  0.00  0.00    +0.007 C 
ATOM     30  C   UNL     1       3.290   0.401   5.469  0.00  0.00    +0.007 C 
ENDBRANCH  27  28
ENDBRANCH  24  27
ENDBRANCH  20  21
ENDBRANCH  17  20
ENDBRANCH   1  17
TORSDOF 10
