REMARK  Name = ZINC38845446
REMARK  13 active torsions:
REMARK  status: ('A' for Active; 'I' for Inactive)
REMARK    1  A    between atoms: C_1  and  C_2
REMARK    2  A    between atoms: C_2  and  N_3
REMARK    3  A    between atoms: N_3  and  C_4
REMARK    4  A    between atoms: N_3  and  C_6
REMARK    5  A    between atoms: C_4  and  C_5
REMARK    6  A    between atoms: C_6  and  C_7
REMARK    7  A    between atoms: C_7  and  N_8
REMARK    8  A    between atoms: C_14  and  S_18
REMARK    9  A    between atoms: S_18  and  C_21
REMARK   10  A    between atoms: C_22  and  C_24
REMARK   11  A    between atoms: C_29  and  S_30
REMARK   12  A    between atoms: S_30  and  C_33
REMARK   13  A    between atoms: C_33  and  C_34
REMARK                            x       y       z     vdW  Elec       q    Type
REMARK                         _______ _______ _______ _____ _____    ______ ____
ROOT
ATOM      1  N   UNL     1      -1.077  -3.783   1.927  0.00  0.00    -0.248 N 
ATOM      2  C   UNL     1      -0.092  -4.651   1.490  0.00  0.00    +0.168 A 
ATOM      3  N   UNL     1       0.994  -4.385   0.801  0.00  0.00    -0.224 NA
ATOM      4  C   UNL     1       1.877  -5.340   0.439  0.00  0.00    +0.080 A 
ATOM      5  C   UNL     1       3.074  -5.189  -0.297  0.00  0.00    +0.031 A 
ATOM      6  C   UNL     1       3.863  -6.273  -0.582  0.00  0.00    +0.029 A 
ATOM      7  C   UNL     1       3.519  -7.550  -0.161  0.00  0.00    +0.089 A 
ATOM      8  C   UNL     1       2.355  -7.735   0.562  0.00  0.00    +0.044 A 
ATOM      9  C   UNL     1       1.559  -6.655   0.851  0.00  0.00    +0.043 A 
ATOM     10  S   UNL     1       0.031  -6.418   1.727  0.00  0.00    -0.052 S 
ATOM     11  C   UNL     1      -2.123  -4.252   2.635  0.00  0.00    +0.254 C 
ATOM     12  O   UNL     1      -2.155  -5.420   2.970  0.00  0.00    -0.270 OA
ENDROOT
BRANCH  11  13
ATOM     13  C   UNL     1      -3.232  -3.347   3.005  0.00  0.00    +0.062 A 
ATOM     14  C   UNL     1      -2.982  -2.213   3.781  0.00  0.00    +0.015 A 
ATOM     15  C   UNL     1      -4.021  -1.373   4.123  0.00  0.00    +0.001 A 
ATOM     16  C   UNL     1      -5.308  -1.651   3.699  0.00  0.00    +0.002 A 
ATOM     17  C   UNL     1      -5.562  -2.772   2.930  0.00  0.00    +0.028 A 
ATOM     18  C   UNL     1      -4.532  -3.618   2.575  0.00  0.00    +0.100 A 
BRANCH  18  19
ATOM     19  S   UNL     1      -4.856  -5.042   1.590  0.00  0.00    -0.003 S 
ATOM     20  O   UNL     1      -4.258  -6.119   2.299  0.00  0.00    -0.169 OA
ATOM     21  O   UNL     1      -6.259  -5.014   1.364  0.00  0.00    -0.169 OA
BRANCH  19  22
ATOM     22  C   UNL     1      -3.967  -4.747   0.037  0.00  0.00    +0.168 C 
ATOM     23  C   UNL     1      -4.181  -5.932  -0.907  0.00  0.00    +0.028 C 
ENDBRANCH  19  22
ENDBRANCH  18  19
ENDBRANCH  11  13
BRANCH   7  24
ATOM     24  S   UNL     1       4.556  -8.922  -0.544  0.00  0.00    -0.006 S 
ATOM     25  O   UNL     1       3.686 -10.046  -0.545  0.00  0.00    -0.170 OA
ATOM     26  O   UNL     1       5.244  -8.538  -1.727  0.00  0.00    -0.170 OA
ATOM     27  C   UNL     1       5.717  -9.032   0.846  0.00  0.00    +0.200 C 
ENDBRANCH   7  24
BRANCH   1  28
ATOM     28  C   UNL     1      -0.983  -2.353   1.620  0.00  0.00    +0.097 C 
BRANCH  28  29
ATOM     29  C   UNL     1      -1.800  -2.047   0.363  0.00  0.00    -0.059 C 
BRANCH  29  30
ATOM     30  N   UNL     1      -1.706  -0.614   0.055  0.00  0.00    +0.380 N 
ATOM     31  H   UNL     1      -1.991  -0.077   0.860  0.00  0.00    -0.082 HD
BRANCH  30  33
ATOM     32  C   UNL     1      -0.192   1.235  -0.481  0.00  0.00    -0.017 C 
ATOM     33  C   UNL     1      -0.318  -0.278  -0.292  0.00  0.00    -0.082 C 
ENDBRANCH  30  33
BRANCH  30  34
ATOM     34  C   UNL     1      -2.584  -0.298  -1.080  0.00  0.00    -0.082 C 
ATOM     35  C   UNL     1      -4.042  -0.518  -0.672  0.00  0.00    -0.017 C 
ENDBRANCH  30  34
ENDBRANCH  29  30
ENDBRANCH  28  29
ENDBRANCH   1  28
TORSDOF 9
