REMARK  Name = ZINC00672071
REMARK  6 active torsions:
REMARK  status: ('A' for Active; 'I' for Inactive)
REMARK    1  A    between atoms: C_6  and  O_25
REMARK    2  A    between atoms: C_7  and  C_11
REMARK    3  A    between atoms: N_13  and  N_14
REMARK    4  A    between atoms: N_14  and  C_15
REMARK    5  A    between atoms: C_15  and  N_17
REMARK    6  A    between atoms: N_17  and  C_18
REMARK                            x       y       z     vdW  Elec       q    Type
REMARK                         _______ _______ _______ _____ _____    ______ ____
ROOT
ATOM      1  C   UNL     1      -3.811   2.068   0.093  0.00  0.00    +0.264 C 
ATOM      2  O   UNL     1      -4.801   1.460   0.451  0.00  0.00    -0.269 OA
ATOM      3  N   UNL     1      -3.815   3.416   0.082  0.00  0.00    -0.231 N 
ATOM      4  H   UNL     1      -3.025   3.901  -0.203  0.00  0.00    +0.173 HD
ENDROOT
BRANCH   1  11
ATOM      5  C   UNL     1       1.922   1.284  -1.931  0.00  0.00    +0.001 A 
ATOM      6  C   UNL     1       1.911  -0.109  -1.914  0.00  0.00    +0.001 A 
ATOM      7  C   UNL     1       0.807  -0.798  -1.516  0.00  0.00    +0.008 A 
ATOM      8  C   UNL     1      -0.344  -0.097  -1.115  0.00  0.00    -0.014 A 
ATOM      9  C   UNL     1      -1.499  -0.781  -0.699  0.00  0.00    +0.054 A 
ATOM     10  C   UNL     1      -2.604  -0.081  -0.314  0.00  0.00    +0.130 A 
ATOM     11  C   UNL     1      -2.604   1.330  -0.328  0.00  0.00    +0.080 A 
ATOM     12  C   UNL     1      -1.476   2.028  -0.729  0.00  0.00    +0.025 A 
ATOM     13  C   UNL     1      -0.334   1.322  -1.133  0.00  0.00    -0.017 A 
ATOM     14  C   UNL     1       0.827   1.998  -1.550  0.00  0.00    +0.008 A 
BRANCH  10  15
ATOM     15  O   UNL     1      -3.716  -0.748   0.086  0.00  0.00    -0.506 OA
ATOM     16  H   UNL     1      -3.743  -0.934   1.034  0.00  0.00    +0.292 HD
ENDBRANCH  10  15
ENDBRANCH   1  11
BRANCH   3  17
ATOM     17  N   UNL     1      -4.961   4.116   0.482  0.00  0.00    -0.245 N 
ATOM     18  H   UNL     1      -5.751   3.630   0.767  0.00  0.00    +0.172 HD
BRANCH  17  19
ATOM     19  C   UNL     1      -4.966   5.463   0.470  0.00  0.00    +0.151 C 
ATOM     20  S   UNL     1      -6.366   6.319   0.959  0.00  0.00    -0.017 S 
BRANCH  19  21
ATOM     21  N   UNL     1      -3.868   6.138   0.074  0.00  0.00    -0.296 N 
ATOM     22  H   UNL     1      -3.055   5.655  -0.143  0.00  0.00    +0.154 HD
BRANCH  21  23
ATOM     23  C   UNL     1      -3.901   7.534  -0.024  0.00  0.00    +0.033 A 
ATOM     24  C   UNL     1      -3.367   8.166  -1.139  0.00  0.00    +0.026 A 
ATOM     25  C   UNL     1      -3.407   9.543  -1.236  0.00  0.00    +0.040 A 
ATOM     26  C   UNL     1      -3.968  10.294  -0.218  0.00  0.00    +0.124 A 
ATOM     27  C   UNL     1      -4.496   9.666   0.898  0.00  0.00    +0.040 A 
ATOM     28  C   UNL     1      -4.464   8.289   0.997  0.00  0.00    +0.026 A 
ATOM     29  F   UNL     1      -4.001  11.641  -0.312  0.00  0.00    -0.205 F 
ENDBRANCH  21  23
ENDBRANCH  19  21
ENDBRANCH  17  19
ENDBRANCH   3  17
TORSDOF 6
