REMARK  Name = ZINC02679258
REMARK  12 active torsions:
REMARK  status: ('A' for Active; 'I' for Inactive)
REMARK    1  A    between atoms: C_1  and  C_2
REMARK    2  A    between atoms: C_3  and  C_34
REMARK    3  A    between atoms: C_5  and  N_11
REMARK    4  A    between atoms: C_6  and  C_7
REMARK    5  A    between atoms: C_7  and  O_9
REMARK    6  A    between atoms: O_9  and  C_10
REMARK    7  A    between atoms: C_12  and  C_14
REMARK    8  A    between atoms: C_14  and  S_15
REMARK    9  A    between atoms: S_15  and  C_16
REMARK   10  A    between atoms: C_20  and  C_23
REMARK   11  A    between atoms: N_30  and  C_31
REMARK   12  A    between atoms: C_31  and  C_32
REMARK                            x       y       z     vdW  Elec       q    Type
REMARK                         _______ _______ _______ _____ _____    ______ ____
ROOT
ATOM      1  C   UNL     1      -4.444  -0.629   2.643  0.00  0.00    +0.173 A 
ATOM      2  N   UNL     1      -4.368  -1.544   1.699  0.00  0.00    -0.216 NA
ATOM      3  C   UNL     1      -3.321  -1.597   0.883  0.00  0.00    +0.117 A 
ATOM      4  C   UNL     1      -2.252  -0.690   0.983  0.00  0.00    +0.083 A 
ATOM      5  C   UNL     1      -1.182  -0.887   0.009  0.00  0.00    +0.039 A 
ATOM      6  C   UNL     1      -1.299  -1.893  -0.892  0.00  0.00    +0.059 A 
ATOM      7  S   UNL     1      -2.860  -2.645  -0.473  0.00  0.00    -0.076 S 
ATOM      8  C   UNL     1      -2.362   0.291   2.015  0.00  0.00    +0.264 A 
ATOM      9  O   UNL     1      -1.481   1.119   2.177  0.00  0.00    -0.267 OA
ATOM     10  N   UNL     1      -3.449   0.291   2.808  0.00  0.00    -0.283 N 
ENDROOT
BRANCH   5  11
ATOM     11  C   UNL     1       0.002  -0.004   0.002  0.00  0.00    +0.136 A 
ATOM     12  C   UNL     1       1.300  -0.410  -0.013  0.00  0.00    +0.050 A 
ATOM     13  C   UNL     1       2.091   0.758  -0.014  0.00  0.00    +0.042 A 
ATOM     14  C   UNL     1       1.246   1.807  -0.000  0.00  0.00    +0.196 A 
ATOM     15  O   UNL     1      -0.016   1.343   0.009  0.00  0.00    -0.463 OA
ENDBRANCH   5  11
BRANCH   1  16
ATOM     16  S   UNL     1      -5.849  -0.591   3.706  0.00  0.00    -0.078 S 
BRANCH  16  17
ATOM     17  C   UNL     1      -6.787  -1.986   3.037  0.00  0.00    +0.173 C 
BRANCH  17  19
ATOM     18  N   UNL     1      -8.932  -3.132   3.492  0.00  0.00    -0.279 N 
ATOM     19  C   UNL     1      -8.068  -2.149   3.815  0.00  0.00    +0.228 C 
ATOM     20  O   UNL     1      -8.321  -1.396   4.731  0.00  0.00    -0.275 OA
ATOM     21  H   UNL     1      -8.729  -3.734   2.759  0.00  0.00    +0.155 HD
BRANCH  18  26
ATOM     22  C   UNL     1     -13.394  -5.118   4.824  0.00  0.00    +0.045 C 
ATOM     23  C   UNL     1     -12.244  -4.150   4.924  0.00  0.00    -0.025 A 
ATOM     24  C   UNL     1     -12.226  -3.178   5.854  0.00  0.00    -0.008 A 
ATOM     25  S   UNL     1     -10.682  -2.345   5.546  0.00  0.00    -0.078 S 
ATOM     26  C   UNL     1     -10.110  -3.282   4.207  0.00  0.00    +0.086 A 
ATOM     27  C   UNL     1     -11.116  -4.225   4.027  0.00  0.00    +0.091 A 
ATOM     28  C   UNL     1     -13.259  -2.872   6.907  0.00  0.00    +0.052 C 
BRANCH  27  29
ATOM     29  C   UNL     1     -11.035  -5.244   2.978  0.00  0.00    +0.342 C 
ATOM     30  O   UNL     1     -10.513  -6.317   3.211  0.00  0.00    -0.245 OA
BRANCH  29  31
ATOM     31  O   UNL     1     -11.540  -4.992   1.753  0.00  0.00    -0.464 OA
ATOM     32  C   UNL     1     -11.425  -6.048   0.762  0.00  0.00    +0.280 C 
ENDBRANCH  29  31
ENDBRANCH  27  29
ENDBRANCH  18  26
ENDBRANCH  17  19
ENDBRANCH  16  17
ENDBRANCH   1  16
BRANCH  10  33
ATOM     33  C   UNL     1      -3.566   1.294   3.869  0.00  0.00    +0.154 C 
BRANCH  33  34
ATOM     34  C   UNL     1      -4.266   2.516   3.330  0.00  0.00    -0.013 C 
ATOM     35  C   UNL     1      -5.338   2.974   3.927  0.00  0.00    +0.005 C 
ENDBRANCH  33  34
ENDBRANCH  10  33
TORSDOF 9
