REMARK  Name = ZINC53540145
REMARK  8 active torsions:
REMARK  status: ('A' for Active; 'I' for Inactive)
REMARK    1  A    between atoms: C_1  and  N_2
REMARK    2  A    between atoms: N_2  and  C_3
REMARK    3  A    between atoms: N_2  and  C_4
REMARK    4  A    between atoms: C_4  and  C_9
REMARK    5  A    between atoms: C_9  and  N_10
REMARK    6  A    between atoms: C_11  and  C_13
REMARK    7  A    between atoms: C_16  and  N_19
REMARK    8  A    between atoms: C_23  and  C_26
REMARK                            x       y       z     vdW  Elec       q    Type
REMARK                         _______ _______ _______ _____ _____    ______ ____
ROOT
ATOM      1  C   UNL     1      -3.449   3.430   1.691  0.00  0.00    +0.037 A 
ATOM      2  C   UNL     1      -2.821   4.138   0.662  0.00  0.00    +0.015 A 
ATOM      3  C   UNL     1      -3.036   5.491   0.528  0.00  0.00    +0.024 A 
ATOM      4  C   UNL     1      -3.878   6.154   1.416  0.00  0.00    +0.030 A 
ATOM      5  C   UNL     1      -4.505   5.452   2.442  0.00  0.00    +0.024 A 
ATOM      6  C   UNL     1      -4.298   4.098   2.578  0.00  0.00    +0.015 A 
ENDROOT
BRANCH   4   7
ATOM      7  N   UNL     1      -4.094   7.521   1.279  0.00  0.00    -0.329 N 
ATOM      8  C   UNL     1      -4.874   8.261   2.280  0.00  0.00    +0.105 C 
ATOM      9  C   UNL     1      -5.997   9.021   1.567  0.00  0.00    +0.020 C 
ATOM     10  C   UNL     1      -5.394   9.898   0.466  0.00  0.00    +0.016 C 
ATOM     11  C   UNL     1      -4.681   9.014  -0.560  0.00  0.00    +0.092 C 
ATOM     12  C   UNL     1      -3.540   8.254   0.132  0.00  0.00    +0.117 C 
BRANCH  11  13
ATOM     13  C   UNL     1      -4.117   9.875  -1.660  0.00  0.00    +0.215 C 
ATOM     14  O   UNL     1      -2.923   9.879  -1.875  0.00  0.00    -0.276 OA
ATOM     15  N   UNL     1      -4.939  10.641  -2.405  0.00  0.00    -0.329 N 
ATOM     16  H   UNL     1      -5.893  10.638  -2.233  0.00  0.00    +0.145 HD
ATOM     17  H   UNL     1      -4.575  11.195  -3.113  0.00  0.00    +0.145 HD
ENDBRANCH  11  13
ENDBRANCH   4   7
BRANCH   1  19
ATOM     18  N   UNL     1      -2.401   1.338   0.982  0.00  0.00    -0.313 N 
ATOM     19  C   UNL     1      -3.220   1.980   1.837  0.00  0.00    +0.244 C 
ATOM     20  O   UNL     1      -3.771   1.365   2.730  0.00  0.00    -0.270 OA
ATOM     21  H   UNL     1      -1.962   1.828   0.270  0.00  0.00    +0.149 HD
BRANCH  18  22
ATOM     22  C   UNL     1      -2.174  -0.102   1.127  0.00  0.00    +0.092 C 
BRANCH  22  23
ATOM     23  C   UNL     1      -1.311  -0.602  -0.033  0.00  0.00    -0.050 C 
ATOM     24  C   UNL     1      -2.043  -0.380  -1.372  0.00  0.00    -0.010 C 
ATOM     25  C   UNL     1      -1.675  -1.624  -2.218  0.00  0.00    -0.001 C 
ATOM     26  C   UNL     1      -1.682  -2.764  -1.170  0.00  0.00    -0.001 C 
ATOM     27  C   UNL     1      -1.081  -2.118   0.096  0.00  0.00    -0.010 C 
BRANCH  23  29
ATOM     28  C   UNL     1       0.701  -0.184   1.205  0.00  0.00    -0.096 C 
ATOM     29  N   UNL     1      -0.022   0.103  -0.041  0.00  0.00    +0.381 N 
ATOM     30  C   UNL     1       0.777  -0.350  -1.187  0.00  0.00    -0.096 C 
ATOM     31  H   UNL     1      -0.183   1.097  -0.115  0.00  0.00    -0.082 HD
ENDBRANCH  23  29
ENDBRANCH  22  23
ENDBRANCH  18  22
ENDBRANCH   1  19
TORSDOF 6
