REMARK  Name = ZINC54613699
REMARK  6 active torsions:
REMARK  status: ('A' for Active; 'I' for Inactive)
REMARK    1  A    between atoms: C_6  and  C_10
REMARK    2  A    between atoms: C_10  and  N_11
REMARK    3  A    between atoms: N_14  and  C_17
REMARK    4  A    between atoms: C_17  and  C_18
REMARK    5  A    between atoms: N_20  and  C_21
REMARK    6  A    between atoms: C_22  and  C_26
REMARK                            x       y       z     vdW  Elec       q    Type
REMARK                         _______ _______ _______ _____ _____    ______ ____
ROOT
ATOM      1  N   UNL     1       3.802  -3.883   1.321  0.00  0.00    -0.294 NA
ATOM      2  C   UNL     1       4.664  -2.988   2.105  0.00  0.00    +0.100 C 
ATOM      3  C   UNL     1       4.737  -3.491   3.549  0.00  0.00    +0.100 C 
ATOM      4  N   UNL     1       5.261  -4.864   3.560  0.00  0.00    -0.292 NA
ATOM      5  C   UNL     1       4.399  -5.760   2.776  0.00  0.00    +0.100 C 
ATOM      6  C   UNL     1       4.325  -5.256   1.332  0.00  0.00    +0.100 C 
ENDROOT
BRANCH   1   7
ATOM      7  C   UNL     1       3.645  -3.391  -0.054  0.00  0.00    +0.139 C 
BRANCH   7  13
ATOM      8  C   UNL     1      -0.016   1.356   0.009  0.00  0.00    +0.005 A 
ATOM      9  C   UNL     1       1.194   2.068   0.002  0.00  0.00    +0.018 A 
ATOM     10  C   UNL     1       2.372   1.409  -0.013  0.00  0.00    +0.092 A 
ATOM     11  N   UNL     1       2.405   0.045  -0.021  0.00  0.00    -0.308 N 
ATOM     12  C   UNL     1       3.434  -0.856  -0.037  0.00  0.00    +0.115 A 
ATOM     13  C   UNL     1       2.885  -2.090  -0.039  0.00  0.00    +0.048 A 
ATOM     14  N   UNL     1       1.556  -1.965  -0.025  0.00  0.00    -0.342 N 
ATOM     15  C   UNL     1       1.240  -0.678  -0.014  0.00  0.00    +0.115 A 
ATOM     16  C   UNL     1       0.002  -0.004   0.002  0.00  0.00    +0.045 A 
ATOM     17  H   UNL     1       0.922  -2.699  -0.023  0.00  0.00    +0.167 HD
ENDBRANCH   7  13
ENDBRANCH   1   7
BRANCH   4  18
ATOM     18  C   UNL     1       5.418  -5.356   4.936  0.00  0.00    +0.180 C 
BRANCH  18  19
ATOM     19  C   UNL     1       6.178  -6.657   4.920  0.00  0.00    +0.232 C 
ATOM     20  O   UNL     1       6.552  -7.128   3.867  0.00  0.00    -0.274 OA
ATOM     21  N   UNL     1       6.442  -7.298   6.076  0.00  0.00    -0.278 N 
ATOM     22  H   UNL     1       6.143  -6.921   6.918  0.00  0.00    +0.155 HD
BRANCH  21  23
ATOM     23  C   UNL     1       7.142  -8.495   6.061  0.00  0.00    +0.084 A 
ATOM     24  C   UNL     1       7.496  -9.289   7.143  0.00  0.00    +0.065 A 
ATOM     25  C   UNL     1       8.231 -10.497   6.844  0.00  0.00    +0.022 A 
ATOM     26  C   UNL     1       8.491 -10.718   5.542  0.00  0.00    +0.048 A 
ATOM     27  S   UNL     1       7.748  -9.319   4.732  0.00  0.00    -0.081 S 
BRANCH  24  28
ATOM     28  C   UNL     1       7.144  -8.921   8.517  0.00  0.00    +0.244 C 
ATOM     29  O   UNL     1       6.524  -7.895   8.733  0.00  0.00    -0.270 OA
ATOM     30  N   UNL     1       7.506  -9.718   9.542  0.00  0.00    -0.325 N 
ATOM     31  H   UNL     1       7.999 -10.535   9.370  0.00  0.00    +0.145 HD
ATOM     32  H   UNL     1       7.272  -9.474  10.452  0.00  0.00    +0.145 HD
ENDBRANCH  24  28
ENDBRANCH  21  23
ENDBRANCH  18  19
ENDBRANCH   4  18
TORSDOF 6
