REMARK  Name = ZINC38787666
REMARK  6 active torsions:
REMARK  status: ('A' for Active; 'I' for Inactive)
REMARK    1  A    between atoms: C_5  and  C_7
REMARK    2  A    between atoms: C_9  and  S_13
REMARK    3  A    between atoms: S_13  and  C_14
REMARK    4  A    between atoms: C_14  and  C_15
REMARK    5  A    between atoms: N_17  and  C_18
REMARK    6  A    between atoms: C_20  and  C_28
REMARK                            x       y       z     vdW  Elec       q    Type
REMARK                         _______ _______ _______ _____ _____    ______ ____
ROOT
ATOM      1  C   UNL     1      -3.199  -6.027  -0.021  0.00  0.00    +0.224 C 
ATOM      2  O   UNL     1      -2.835  -7.184  -0.029  0.00  0.00    -0.275 OA
ATOM      3  N   UNL     1      -4.514  -5.734  -0.012  0.00  0.00    -0.302 N 
ATOM      4  H   UNL     1      -4.805  -4.808  -0.005  0.00  0.00    +0.150 HD
ENDROOT
BRANCH   3   5
ATOM      5  C   UNL     1      -5.505  -6.813  -0.013  0.00  0.00    +0.151 C 
ATOM      6  C   UNL     1      -6.569  -6.607   1.089  0.00  0.00    +0.132 C 
ATOM      7  C   UNL     1      -6.978  -7.924   1.722  0.00  0.00    -0.046 C 
ATOM      8  C   UNL     1      -6.162  -8.952   1.573  0.00  0.00    -0.013 C 
ATOM      9  S   UNL     1      -4.782  -8.395   0.589  0.00  0.00    -0.106 S 
ATOM     10  C   UNL     1      -6.671 -10.193   2.266  0.00  0.00    +0.042 C 
ATOM     11  C   UNL     1      -7.750  -9.677   3.242  0.00  0.00    +0.009 C 
ATOM     12  C   UNL     1      -8.191  -8.376   2.544  0.00  0.00    +0.033 C 
BRANCH   6  13
ATOM     13  C   UNL     1      -7.786  -5.955   0.484  0.00  0.00    +0.220 C 
ATOM     14  O   UNL     1      -8.854  -6.529   0.503  0.00  0.00    -0.275 OA
ATOM     15  N   UNL     1      -7.686  -4.734  -0.078  0.00  0.00    -0.329 N 
ATOM     16  H   UNL     1      -6.832  -4.275  -0.093  0.00  0.00    +0.145 HD
ATOM     17  H   UNL     1      -8.469  -4.315  -0.468  0.00  0.00    +0.145 HD
ENDBRANCH   6  13
ENDBRANCH   3   5
BRANCH   1  18
ATOM     18  C   UNL     1      -2.179  -4.917  -0.020  0.00  0.00    +0.173 C 
BRANCH  18  19
ATOM     19  S   UNL     1      -0.511  -5.628  -0.033  0.00  0.00    -0.077 S 
BRANCH  19  22
ATOM     20  C   UNL     1       1.246  -2.166  -0.022  0.00  0.00    +0.183 A 
ATOM     21  N   UNL     1       0.169  -2.965  -0.021  0.00  0.00    -0.201 NA
ATOM     22  C   UNL     1       0.552  -4.222  -0.030  0.00  0.00    +0.185 A 
ATOM     23  N   UNL     1       1.903  -4.249  -0.038  0.00  0.00    -0.253 N 
ATOM     24  H   UNL     1       2.468  -5.037  -0.046  0.00  0.00    +0.191 HD
ATOM     25  N   UNL     1       2.328  -2.910  -0.037  0.00  0.00    -0.152 NA
BRANCH  20  30
ATOM     26  C   UNL     1      -0.017   1.376   0.010  0.00  0.00    +0.001 A 
ATOM     27  C   UNL     1       1.170   2.087   0.002  0.00  0.00    +0.001 A 
ATOM     28  C   UNL     1       2.382   1.420  -0.013  0.00  0.00    +0.016 A 
ATOM     29  C   UNL     1       2.413   0.039  -0.021  0.00  0.00    +0.029 A 
ATOM     30  C   UNL     1       1.220  -0.682  -0.013  0.00  0.00    +0.035 A 
ATOM     31  C   UNL     1       0.002  -0.004   0.002  0.00  0.00    +0.013 A 
ATOM     32 BR   UNL     1       4.070  -0.871  -0.043  0.00  0.00    -0.050 Br
ENDBRANCH  20  30
ENDBRANCH  19  22
ENDBRANCH  18  19
ENDBRANCH   1  18
TORSDOF 6
