REMARK  Name = ZINC19972885
REMARK  14 active torsions:
REMARK  status: ('A' for Active; 'I' for Inactive)
REMARK    1  A    between atoms: C_1  and  C_2
REMARK    2  A    between atoms: C_2  and  C_3
REMARK    3  A    between atoms: C_3  and  C_4
REMARK    4  A    between atoms: C_3  and  C_5
REMARK    5  A    between atoms: C_3  and  N_6
REMARK    6  A    between atoms: C_7  and  C_11
REMARK    7  A    between atoms: C_11  and  C_13
REMARK    8  A    between atoms: C_11  and  N_26
REMARK    9  A    between atoms: C_17  and  C_25
REMARK   10  A    between atoms: N_26  and  C_27
REMARK   11  A    between atoms: N_26  and  C_35
REMARK   12  A    between atoms: C_27  and  C_28
REMARK   13  A    between atoms: C_28  and  C_29
REMARK   14  A    between atoms: C_35  and  C_36
REMARK                            x       y       z     vdW  Elec       q    Type
REMARK                         _______ _______ _______ _____ _____    ______ ____
ROOT
ATOM      1  C   UNL     1      -0.335   1.083  -0.306  0.00  0.00    +0.163 C 
ENDROOT
BRANCH   1   2
ATOM      2  C   UNL     1      -0.510   2.520   0.114  0.00  0.00    +0.042 A 
ATOM      3  C   UNL     1      -1.748   2.994   0.401  0.00  0.00    +0.021 A 
ATOM      4  C   UNL     1      -1.883   4.393   0.811  0.00  0.00    -0.001 A 
ATOM      5  C   UNL     1      -3.134   4.937   1.124  0.00  0.00    +0.013 A 
ATOM      6  C   UNL     1      -3.227   6.248   1.497  0.00  0.00    -0.050 A 
ATOM      7  C   UNL     1      -2.092   7.044   1.569  0.00  0.00    +0.005 A 
ATOM      8  C   UNL     1      -0.850   6.529   1.267  0.00  0.00    +0.026 A 
ATOM      9  C   UNL     1      -0.731   5.197   0.884  0.00  0.00    +0.049 A 
ATOM     10  N   UNL     1       0.499   4.655   0.574  0.00  0.00    -0.322 N 
ATOM     11  H   UNL     1       1.403   5.279   0.628  0.00  0.00    +0.169 HD
ATOM     12  C   UNL     1       0.614   3.368   0.203  0.00  0.00    +0.254 A 
ATOM     13  O   UNL     1       1.717   2.923  -0.064  0.00  0.00    -0.268 OA
ATOM     14  C   UNL     1      -4.574   6.834   1.834  0.00  0.00    +0.044 C 
ENDBRANCH   1   2
BRANCH   1  16
ATOM     15  N   UNL     1      -0.560   0.675  -2.814  0.00  0.00    -0.222 N 
ATOM     16  C   UNL     1       0.154   1.033  -1.731  0.00  0.00    +0.174 A 
ATOM     17  N   UNL     1       1.360   1.324  -2.155  0.00  0.00    -0.111 NA
ATOM     18  N   UNL     1       1.383   1.158  -3.432  0.00  0.00    -0.023 NA
ATOM     19  N   UNL     1       0.223   0.769  -3.834  0.00  0.00    -0.043 NA
BRANCH  15  20
ATOM     20  C   UNL     1      -1.965   0.260  -2.831  0.00  0.00    +0.062 C 
ATOM     21  C   UNL     1      -2.123  -1.039  -2.038  0.00  0.00    +0.036 C 
ATOM     22  C   UNL     1      -2.828   1.352  -2.197  0.00  0.00    +0.036 C 
BRANCH  20  24
ATOM     23  C   UNL     1      -3.879  -0.402  -4.295  0.00  0.00    +0.006 C 
ATOM     24  C   UNL     1      -2.412   0.032  -4.277  0.00  0.00    +0.026 C 
ENDBRANCH  20  24
ENDBRANCH  15  20
ENDBRANCH   1  16
BRANCH   1  25
ATOM     25  N   UNL     1       0.646   0.432   0.572  0.00  0.00    -0.284 NA
BRANCH  25  26
ATOM     26  C   UNL     1       0.773  -0.996   0.251  0.00  0.00    +0.090 C 
BRANCH  26  27
ATOM     27  C   UNL     1       1.672  -1.165  -0.976  0.00  0.00    +0.050 C 
BRANCH  27  28
ATOM     28  C   UNL     1       1.942  -2.630  -1.203  0.00  0.00    -0.046 A 
ATOM     29  C   UNL     1       3.038  -3.231  -0.612  0.00  0.00    +0.003 A 
ATOM     30  C   UNL     1       3.282  -4.576  -0.816  0.00  0.00    +0.000 A 
ATOM     31  C   UNL     1       2.437  -5.318  -1.620  0.00  0.00    +0.000 A 
ATOM     32  C   UNL     1       1.345  -4.716  -2.216  0.00  0.00    +0.000 A 
ATOM     33  C   UNL     1       1.097  -3.372  -2.007  0.00  0.00    +0.003 A 
ENDBRANCH  27  28
ENDBRANCH  26  27
ENDBRANCH  25  26
BRANCH  25  34
ATOM     34  C   UNL     1       0.297   0.625   1.986  0.00  0.00    +0.127 C 
BRANCH  34  35
ATOM     35  C   UNL     1       1.492   0.305   2.846  0.00  0.00    +0.004 A 
ATOM     36  C   UNL     1       2.442   1.141   3.332  0.00  0.00    +0.012 A 
ATOM     37  C   UNL     1       3.458   0.620   4.111  0.00  0.00    +0.008 A 
ATOM     38  C   UNL     1       3.475  -0.712   4.365  0.00  0.00    +0.045 A 
ATOM     39  S   UNL     1       2.019  -1.272   3.496  0.00  0.00    -0.100 S 
ENDBRANCH  34  35
ENDBRANCH  25  34
ENDBRANCH   1  25
TORSDOF 10
