REMARK  Name = ZINC00677198
REMARK  6 active torsions:
REMARK  status: ('A' for Active; 'I' for Inactive)
REMARK    1  A    between atoms: C_1  and  C_2
REMARK    2  A    between atoms: C_2  and  C_3
REMARK    3  A    between atoms: C_8  and  N_9
REMARK    4  A    between atoms: C_10  and  C_12
REMARK    5  A    between atoms: C_16  and  C_25
REMARK    6  A    between atoms: C_18  and  C_21
REMARK                            x       y       z     vdW  Elec       q    Type
REMARK                         _______ _______ _______ _____ _____    ______ ____
ROOT
ATOM      1  C   UNL     1       4.833   1.500  -0.250  0.00  0.00    +0.150 A 
ATOM      2  C   UNL     1       6.095   2.092  -0.370  0.00  0.00    +0.083 A 
ATOM      3  C   UNL     1       7.029   1.071  -0.465  0.00  0.00    +0.157 A 
ATOM      4  N   UNL     1       8.362   1.080  -0.594  0.00  0.00    -0.228 NA
ATOM      5  C   UNL     1       9.041  -0.050  -0.664  0.00  0.00    +0.075 A 
ATOM      6  C   UNL     1       8.363  -1.289  -0.604  0.00  0.00    +0.060 A 
ATOM      7  C   UNL     1       7.018  -1.302  -0.474  0.00  0.00    +0.149 A 
ATOM      8  N   UNL     1       6.340  -0.115  -0.403  0.00  0.00    -0.209 N 
ATOM      9  N   UNL     1       4.980   0.184  -0.265  0.00  0.00    -0.160 NA
ENDROOT
BRANCH   5  10
ATOM     10  C   UNL     1      10.515  -0.019  -0.806  0.00  0.00    +0.000 A 
ATOM     11  C   UNL     1      11.237  -1.211  -0.875  0.00  0.00    +0.010 A 
ATOM     12  C   UNL     1      12.609  -1.176  -1.013  0.00  0.00    +0.001 A 
ATOM     13  C   UNL     1      13.271   0.038  -1.072  0.00  0.00    +0.000 A 
ATOM     14  C   UNL     1      12.561   1.223  -0.999  0.00  0.00    +0.001 A 
ATOM     15  C   UNL     1      11.188   1.201  -0.866  0.00  0.00    +0.010 A 
ENDBRANCH   5  10
BRANCH   1  17
ATOM     16  N   UNL     1       2.396   1.534  -0.013  0.00  0.00    -0.280 N 
ATOM     17  C   UNL     1       3.549   2.222  -0.122  0.00  0.00    +0.268 C 
ATOM     18  O   UNL     1       3.535   3.438  -0.115  0.00  0.00    -0.268 OA
ATOM     19  H   UNL     1       2.413   0.566   0.047  0.00  0.00    +0.155 HD
BRANCH  16  25
ATOM     20  C   UNL     1       0.050   1.650  -0.574  0.00  0.00    -0.026 A 
ATOM     21  C   UNL     1      -1.153   2.329  -0.552  0.00  0.00    +0.005 A 
ATOM     22  C   UNL     1      -1.241   3.563   0.064  0.00  0.00    +0.000 A 
ATOM     23  C   UNL     1      -0.123   4.128   0.651  0.00  0.00    +0.002 A 
ATOM     24  C   UNL     1       1.084   3.458   0.627  0.00  0.00    +0.023 A 
ATOM     25  C   UNL     1       1.175   2.215   0.013  0.00  0.00    +0.037 A 
BRANCH  20  27
ATOM     26  C   UNL     1      -0.032  -0.798  -0.193  0.00  0.00    +0.009 C 
ATOM     27  C   UNL     1       0.144   0.302  -1.241  0.00  0.00    +0.033 C 
ENDBRANCH  20  27
ENDBRANCH  16  25
ENDBRANCH   1  17
BRANCH   7  28
ATOM     28  C   UNL     1       6.272  -2.610  -0.406  0.00  0.00    +0.434 C 
ATOM     29  F   UNL     1       7.187  -3.668  -0.383  0.00  0.00    -0.164 F 
ATOM     30  F   UNL     1       5.492  -2.643   0.755  0.00  0.00    -0.164 F 
ATOM     31  F   UNL     1       5.445  -2.734  -1.528  0.00  0.00    -0.164 F 
ENDBRANCH   7  28
TORSDOF 5
