REMARK  Name = ZINC44876311
REMARK  8 active torsions:
REMARK  status: ('A' for Active; 'I' for Inactive)
REMARK    1  A    between atoms: C_1  and  C_2
REMARK    2  A    between atoms: C_2  and  C_3
REMARK    3  A    between atoms: C_3  and  C_5
REMARK    4  A    between atoms: C_3  and  C_9
REMARK    5  A    between atoms: N_6  and  O_7
REMARK    6  A    between atoms: N_11  and  C_12
REMARK    7  A    between atoms: C_12  and  C_14
REMARK    8  A    between atoms: C_12  and  C_15
REMARK                            x       y       z     vdW  Elec       q    Type
REMARK                         _______ _______ _______ _____ _____    ______ ____
ROOT
ATOM      1  C   UNL     1       0.632  -2.000  -1.327  0.00  0.00    +0.224 C 
ATOM      2  O   UNL     1       1.645  -2.666  -1.337  0.00  0.00    -0.275 OA
ATOM      3  N   UNL     1      -0.572  -2.604  -1.380  0.00  0.00    -0.308 N 
ATOM      4  H   UNL     1      -1.383  -2.072  -1.372  0.00  0.00    +0.149 HD
ENDROOT
BRANCH   3   5
ATOM      5  C   UNL     1      -0.656  -4.065  -1.449  0.00  0.00    +0.100 C 
ATOM      6  C   UNL     1      -0.589  -4.647  -0.035  0.00  0.00    +0.033 C 
BRANCH   5   7
ATOM      7  C   UNL     1      -1.958  -4.464  -2.095  0.00  0.00    -0.027 A 
ATOM      8  C   UNL     1      -3.117  -3.771  -1.798  0.00  0.00    +0.006 A 
ATOM      9  C   UNL     1      -4.311  -4.136  -2.391  0.00  0.00    +0.015 A 
ATOM     10  C   UNL     1      -4.347  -5.194  -3.281  0.00  0.00    +0.018 A 
ATOM     11  C   UNL     1      -3.187  -5.886  -3.578  0.00  0.00    +0.015 A 
ATOM     12  C   UNL     1      -1.992  -5.518  -2.989  0.00  0.00    +0.006 A 
ATOM     13 BR   UNL     1      -5.980  -5.694  -4.092  0.00  0.00    -0.050 Br
ENDBRANCH   5   7
ENDBRANCH   3   5
BRANCH   1  14
ATOM     14  C   UNL     1       0.718  -0.497  -1.257  0.00  0.00    +0.141 C 
BRANCH  14  15
ATOM     15  C   UNL     1       2.165  -0.079  -1.208  0.00  0.00    +0.144 C 
ATOM     16  N   UNL     1       2.736   0.142  -0.070  0.00  0.00    -0.076 NA
ATOM     17  N   UNL     1       2.880   0.066  -2.376  0.00  0.00    -0.343 N 
ATOM     18  H   UNL     1       2.451  -0.100  -3.231  0.00  0.00    +0.144 HD
ATOM     19  H   UNL     1       3.811   0.335  -2.345  0.00  0.00    +0.144 HD
BRANCH  16  20
ATOM     20  O   UNL     1       4.095   0.535  -0.024  0.00  0.00    -0.408 OA
ATOM     21  H   UNL     1       4.433   0.678   0.870  0.00  0.00    +0.328 HD
ENDBRANCH  16  20
ENDBRANCH  14  15
BRANCH  14  23
ATOM     22  C   UNL     1      -0.019   1.526   0.010  0.00  0.00    +0.005 C 
ATOM     23  C   UNL     1       0.002  -0.004   0.002  0.00  0.00    +0.017 C 
ENDBRANCH  14  23
ENDBRANCH   1  14
TORSDOF 6
