REMARK  Name = ZINC25424921
REMARK  11 active torsions:
REMARK  status: ('A' for Active; 'I' for Inactive)
REMARK    1  A    between atoms: C_1  and  N_2
REMARK    2  A    between atoms: N_2  and  C_3
REMARK    3  A    between atoms: N_2  and  C_4
REMARK    4  A    between atoms: C_4  and  C_6
REMARK    5  A    between atoms: C_4  and  C_33
REMARK    6  A    between atoms: C_6  and  N_7
REMARK    7  A    between atoms: C_8  and  C_10
REMARK    8  A    between atoms: C_10  and  C_12
REMARK    9  A    between atoms: C_10  and  N_23
REMARK   10  A    between atoms: C_12  and  C_13
REMARK   11  A    between atoms: C_24  and  C_26
REMARK                            x       y       z     vdW  Elec       q    Type
REMARK                         _______ _______ _______ _____ _____    ______ ____
ROOT
ATOM      1  C   UNL     1      -1.142  -4.518  -1.507  0.00  0.00    +0.163 C 
ENDROOT
BRANCH   1   3
ATOM      2  N   UNL     1      -0.705  -2.180  -0.825  0.00  0.00    -0.315 N 
ATOM      3  C   UNL     1      -1.101  -3.038  -1.787  0.00  0.00    +0.234 C 
ATOM      4  O   UNL     1      -1.425  -2.618  -2.878  0.00  0.00    -0.274 OA
ATOM      5  H   UNL     1      -0.412  -2.561   0.164  0.00  0.00    +0.149 HD
BRANCH   2   6
ATOM      6  C   UNL     1      -0.665  -0.741  -1.098  0.00  0.00    +0.093 C 
BRANCH   6   7
ATOM      7  C   UNL     1      -0.061  -0.011   0.103  0.00  0.00    -0.021 C 
BRANCH   7   8
ATOM      8  C   UNL     1       1.367  -0.454   0.294  0.00  0.00    -0.059 A 
ATOM      9  C   UNL     1       2.367   0.080  -0.496  0.00  0.00    +0.002 A 
ATOM     10  C   UNL     1       3.678  -0.323  -0.318  0.00  0.00    +0.000 A 
ATOM     11  C   UNL     1       3.986  -1.266   0.644  0.00  0.00    +0.000 A 
ATOM     12  C   UNL     1       2.985  -1.804   1.431  0.00  0.00    +0.000 A 
ATOM     13  C   UNL     1       1.675  -1.398   1.256  0.00  0.00    +0.002 A 
ENDBRANCH   7   8
BRANCH   7  15
ATOM     14  C   UNL     1      -1.452   1.879  -0.491  0.00  0.00    -0.096 C 
ATOM     15  N   UNL     1      -0.097   1.438  -0.135  0.00  0.00    +0.382 N 
ATOM     16  C   UNL     1       0.409   2.176   1.030  0.00  0.00    -0.096 C 
ATOM     17  H   UNL     1       0.564   1.656  -0.987  0.00  0.00    -0.082 HD
ENDBRANCH   7  15
ENDBRANCH   6   7
ENDBRANCH   2   6
ENDBRANCH   1   3
BRANCH   1  18
ATOM     18  N   UNL     1      -2.023  -5.174  -2.477  0.00  0.00    -0.300 N 
ATOM     19  C   UNL     1      -1.748  -5.100  -3.794  0.00  0.00    +0.246 C 
ATOM     20  O   UNL     1      -0.770  -4.488  -4.178  0.00  0.00    -0.270 OA
ATOM     21  H   UNL     1      -2.908  -5.728  -2.130  0.00  0.00    +0.150 HD
BRANCH  19  22
ATOM     22  C   UNL     1      -2.636  -5.762  -4.772  0.00  0.00    +0.055 A 
ATOM     23  C   UNL     1      -3.757  -6.470  -4.335  0.00  0.00    +0.014 A 
ATOM     24  C   UNL     1      -4.585  -7.081  -5.253  0.00  0.00    +0.001 A 
ATOM     25  C   UNL     1      -4.301  -7.003  -6.606  0.00  0.00    +0.001 A 
ATOM     26  C   UNL     1      -3.190  -6.308  -7.047  0.00  0.00    +0.021 A 
ATOM     27  C   UNL     1      -2.355  -5.687  -6.138  0.00  0.00    +0.053 A 
ATOM     28 CL   UNL     1      -0.960  -4.815  -6.693  0.00  0.00    -0.083 Cl
ENDBRANCH  19  22
ENDBRANCH   1  18
BRANCH   1  29
ATOM     29  C   UNL     1       0.268  -5.098  -1.624  0.00  0.00    +0.069 C 
BRANCH  29  30
ATOM     30  C   UNL     1       0.248  -6.551  -1.225  0.00  0.00    -0.020 A 
ATOM     31  C   UNL     1       0.535  -7.050  -0.012  0.00  0.00    +0.087 A 
ATOM     32  N   UNL     1       0.408  -8.412  -0.025  0.00  0.00    -0.360 N 
ATOM     33  H   UNL     1       0.599  -8.992   0.890  0.00  0.00    +0.165 HD
ATOM     34  C   UNL     1       0.035  -8.835  -1.282  0.00  0.00    +0.047 A 
ATOM     35  C   UNL     1      -0.081  -7.688  -2.088  0.00  0.00    +0.003 A 
ATOM     36  C   UNL     1      -0.451  -7.813  -3.428  0.00  0.00    +0.010 A 
ATOM     37  C   UNL     1      -0.698  -9.051  -3.951  0.00  0.00    +0.001 A 
ATOM     38  C   UNL     1      -0.585 -10.186  -3.160  0.00  0.00    +0.002 A 
ATOM     39  C   UNL     1      -0.221 -10.085  -1.835  0.00  0.00    +0.026 A 
ENDBRANCH  29  30
ENDBRANCH   1  29
TORSDOF 9
