REMARK  Name = ZINC09633628
REMARK  7 active torsions:
REMARK  status: ('A' for Active; 'I' for Inactive)
REMARK    1  A    between atoms: C_1  and  O_2
REMARK    2  A    between atoms: O_2  and  C_3
REMARK    3  A    between atoms: C_8  and  C_9
REMARK    4  A    between atoms: C_12  and  S_15
REMARK    5  A    between atoms: N_13  and  N_14
REMARK    6  A    between atoms: S_15  and  C_16
REMARK    7  A    between atoms: C_17  and  C_28
REMARK                            x       y       z     vdW  Elec       q    Type
REMARK                         _______ _______ _______ _____ _____    ______ ____
ROOT
ATOM      1  C   UNL     1      -2.468   0.082   0.202  0.00  0.00    +0.088 A 
ATOM      2  C   UNL     1      -1.332  -0.706   0.131  0.00  0.00    +0.010 A 
ATOM      3  C   UNL     1      -0.031  -0.038  -0.034  0.00  0.00    +0.007 A 
ATOM      4  C   UNL     1       1.152  -0.776  -0.111  0.00  0.00    +0.010 A 
ATOM      5  C   UNL     1       2.354  -0.122  -0.264  0.00  0.00    +0.001 A 
ATOM      6  C   UNL     1       2.394   1.263  -0.343  0.00  0.00    +0.002 A 
ATOM      7  C   UNL     1       1.235   2.005  -0.269  0.00  0.00    +0.026 A 
ATOM      8  C   UNL     1       0.010   1.365  -0.113  0.00  0.00    +0.050 A 
ATOM      9  N   UNL     1      -1.161   2.093  -0.031  0.00  0.00    -0.321 N 
ATOM     10  H   UNL     1      -1.122   3.061  -0.087  0.00  0.00    +0.169 HD
ATOM     11  C   UNL     1      -2.353   1.491   0.114  0.00  0.00    +0.264 A 
ATOM     12  O   UNL     1      -3.360   2.175   0.177  0.00  0.00    -0.267 OA
ENDROOT
BRANCH   2  13
ATOM     13  C   UNL     1      -1.423  -2.179   0.220  0.00  0.00    -0.016 A 
ATOM     14  C   UNL     1      -0.888  -2.850   1.322  0.00  0.00    +0.008 A 
ATOM     15  C   UNL     1      -0.982  -4.224   1.401  0.00  0.00    +0.001 A 
ATOM     16  C   UNL     1      -1.593  -4.938   0.387  0.00  0.00    +0.000 A 
ATOM     17  C   UNL     1      -2.120  -4.281  -0.711  0.00  0.00    +0.001 A 
ATOM     18  C   UNL     1      -2.039  -2.906  -0.800  0.00  0.00    +0.008 A 
ENDBRANCH   2  13
BRANCH   1  19
ATOM     19  S   UNL     1      -4.052  -0.664   0.398  0.00  0.00    -0.042 S 
BRANCH  19  23
ATOM     20  C   UNL     1      -5.494   0.310   3.896  0.00  0.00    +0.185 A 
ATOM     21  N   UNL     1      -4.375   0.996   3.844  0.00  0.00    -0.127 NA
ATOM     22  N   UNL     1      -3.776   0.774   2.729  0.00  0.00    -0.120 NA
ATOM     23  C   UNL     1      -4.476  -0.067   2.001  0.00  0.00    +0.214 A 
ATOM     24  N   UNL     1      -5.596  -0.387   2.715  0.00  0.00    -0.223 N 
BRANCH  20  30
ATOM     25  C   UNL     1      -6.863   1.496   5.612  0.00  0.00    +0.131 A 
ATOM     26  C   UNL     1      -7.776   1.472   6.654  0.00  0.00    +0.046 A 
ATOM     27  C   UNL     1      -8.282   0.268   7.104  0.00  0.00    +0.004 A 
ATOM     28  C   UNL     1      -7.886  -0.921   6.516  0.00  0.00    +0.001 A 
ATOM     29  C   UNL     1      -6.981  -0.914   5.475  0.00  0.00    +0.015 A 
ATOM     30  C   UNL     1      -6.463   0.296   5.011  0.00  0.00    +0.062 A 
BRANCH  25  32
ATOM     31  C   UNL     1      -6.729   3.852   5.902  0.00  0.00    +0.277 C 
ATOM     32  O   UNL     1      -6.361   2.679   5.172  0.00  0.00    -0.494 OA
ENDBRANCH  25  32
ENDBRANCH  20  30
BRANCH  24  33
ATOM     33  N   UNL     1      -6.605  -1.226   2.337  0.00  0.00    -0.295 N 
ATOM     34  H   UNL     1      -6.457  -2.156   2.700  0.00  0.00    +0.163 HD
ATOM     35  H   UNL     1      -7.502  -0.865   2.623  0.00  0.00    +0.163 HD
ENDBRANCH  24  33
ENDBRANCH  19  23
ENDBRANCH   1  19
TORSDOF 6
