REMARK  Name = ZINC56604387
REMARK  11 active torsions:
REMARK  status: ('A' for Active; 'I' for Inactive)
REMARK    1  A    between atoms: C_1  and  C_2
REMARK    2  A    between atoms: C_2  and  C_3
REMARK    3  A    between atoms: C_3  and  C_4
REMARK    4  A    between atoms: C_3  and  C_6
REMARK    5  A    between atoms: C_4  and  C_5
REMARK    6  A    between atoms: C_6  and  C_8
REMARK    7  A    between atoms: C_6  and  N_13
REMARK    8  A    between atoms: N_16  and  C_17
REMARK    9  A    between atoms: C_20  and  O_23
REMARK   10  A    between atoms: O_23  and  C_24
REMARK   11  A    between atoms: C_24  and  C_25
REMARK                            x       y       z     vdW  Elec       q    Type
REMARK                         _______ _______ _______ _____ _____    ______ ____
ROOT
ATOM      1  N   UNL     1      -2.679   0.808   0.345  0.00  0.00    -0.292 N 
ATOM      2  C   UNL     1      -2.110   2.015   0.155  0.00  0.00    +0.304 C 
ATOM      3  O   UNL     1      -0.905   2.104   0.014  0.00  0.00    -0.252 OA
ATOM      4  N   UNL     1      -2.876   3.124   0.122  0.00  0.00    -0.269 N 
ATOM      5  H   UNL     1      -3.644   0.729   0.386  0.00  0.00    +0.151 HD
ATOM      6  H   UNL     1      -3.824   3.063   0.315  0.00  0.00    +0.156 HD
ENDROOT
BRANCH   4   7
ATOM      7  C   UNL     1      -2.301   4.364  -0.190  0.00  0.00    +0.035 A 
ATOM      8  C   UNL     1      -2.800   5.525   0.385  0.00  0.00    +0.027 A 
ATOM      9  C   UNL     1      -2.234   6.746   0.077  0.00  0.00    +0.047 A 
ATOM     10  C   UNL     1      -1.166   6.812  -0.806  0.00  0.00    +0.121 A 
ATOM     11  C   UNL     1      -0.667   5.653  -1.381  0.00  0.00    +0.047 A 
ATOM     12  C   UNL     1      -1.230   4.431  -1.070  0.00  0.00    +0.027 A 
BRANCH  10  13
ATOM     13  O   UNL     1      -0.609   8.015  -1.109  0.00  0.00    -0.483 OA
BRANCH  13  14
ATOM     14  C   UNL     1       0.487   8.010  -2.026  0.00  0.00    +0.324 C 
BRANCH  14  15
ATOM     15  C   UNL     1       0.971   9.421  -2.239  0.00  0.00    +0.248 C 
ATOM     16  O   UNL     1       0.430  10.341  -1.662  0.00  0.00    -0.272 OA
ATOM     17  N   UNL     1       2.004   9.661  -3.070  0.00  0.00    -0.327 N 
ATOM     18  H   UNL     1       2.437   8.926  -3.531  0.00  0.00    +0.145 HD
ATOM     19  H   UNL     1       2.316  10.570  -3.207  0.00  0.00    +0.145 HD
ENDBRANCH  14  15
ENDBRANCH  13  14
ENDBRANCH  10  13
ENDBRANCH   4   7
BRANCH   1  20
ATOM     20  C   UNL     1      -1.838  -0.383   0.489  0.00  0.00    +0.114 C 
BRANCH  20  21
ATOM     21  C   UNL     1      -2.674  -1.529   0.998  0.00  0.00    +0.010 A 
ATOM     22  C   UNL     1      -2.325  -2.532   1.841  0.00  0.00    +0.013 A 
ATOM     23  C   UNL     1      -3.269  -3.486   2.174  0.00  0.00    +0.008 A 
ATOM     24  C   UNL     1      -4.515  -3.389   1.649  0.00  0.00    +0.045 A 
ATOM     25  S   UNL     1      -4.383  -1.913   0.655  0.00  0.00    -0.100 S 
ENDBRANCH  20  21
BRANCH  20  26
ATOM     26  C   UNL     1      -1.240  -0.752  -0.869  0.00  0.00    +0.014 C 
BRANCH  26  28
ATOM     27  C   UNL     1       0.957  -1.416   0.118  0.00  0.00    +0.004 C 
ATOM     28  C   UNL     1      -0.245  -1.902  -0.693  0.00  0.00    +0.002 C 
ENDBRANCH  26  28
BRANCH  26  29
ATOM     29  C   UNL     1      -2.358  -1.186  -1.819  0.00  0.00    +0.002 C 
ATOM     30  C   UNL     1      -3.254   0.013  -2.134  0.00  0.00    +0.004 C 
ENDBRANCH  26  29
ENDBRANCH  20  26
ENDBRANCH   1  20
TORSDOF 9
