REMARK  Name = ZINC40592174
REMARK  7 active torsions:
REMARK  status: ('A' for Active; 'I' for Inactive)
REMARK    1  A    between atoms: C_1  and  C_2
REMARK    2  A    between atoms: C_5  and  C_32
REMARK    3  A    between atoms: C_6  and  N_8
REMARK    4  A    between atoms: C_10  and  N_29
REMARK    5  A    between atoms: C_11  and  N_15
REMARK    6  A    between atoms: N_15  and  N_16
REMARK    7  A    between atoms: C_17  and  C_19
REMARK                            x       y       z     vdW  Elec       q    Type
REMARK                         _______ _______ _______ _____ _____    ______ ____
ROOT
ATOM      1  N   UNL     1       0.078  -2.797   2.389  0.00  0.00    -0.297 N 
ATOM      2  C   UNL     1       0.179  -2.115   3.592  0.00  0.00    +0.159 A 
ATOM      3  C   UNL     1       0.295  -2.812   4.791  0.00  0.00    +0.207 A 
ATOM      4  C   UNL     1       0.393  -2.081   5.971  0.00  0.00    +0.171 A 
ATOM      5  N   UNL     1       0.373  -0.751   5.912  0.00  0.00    -0.217 NA
ATOM      6  C   UNL     1       0.262  -0.127   4.756  0.00  0.00    +0.225 A 
ATOM      7  N   UNL     1       0.172  -0.783   3.617  0.00  0.00    -0.218 NA
ATOM      8  H   UNL     1      -0.000  -3.764   2.384  0.00  0.00    +0.154 HD
ENDROOT
BRANCH   1  14
ATOM      9  C   UNL     1       1.347   1.214  -0.154  0.00  0.00    +0.044 C 
ATOM     10  C   UNL     1       0.698  -0.144  -0.079  0.00  0.00    -0.049 A 
ATOM     11  C   UNL     1       0.113  -0.693  -1.206  0.00  0.00    +0.004 A 
ATOM     12  C   UNL     1      -0.483  -1.939  -1.141  0.00  0.00    +0.005 A 
ATOM     13  C   UNL     1      -0.496  -2.639   0.049  0.00  0.00    -0.029 A 
ATOM     14  C   UNL     1       0.090  -2.091   1.182  0.00  0.00    +0.036 A 
ATOM     15  C   UNL     1       0.694  -0.841   1.113  0.00  0.00    +0.027 A 
ATOM     16  C   UNL     1      -1.147  -3.997   0.118  0.00  0.00    +0.045 C 
ENDBRANCH   1  14
BRANCH   3  17
ATOM     17  N   UNL     1       0.312  -4.292   4.811  0.00  0.00    +0.063 N 
ATOM     18  O   UNL     1       1.362  -4.885   4.724  0.00  0.00    -0.126 OA
ATOM     19  O   UNL     1      -0.723  -4.907   4.913  0.00  0.00    -0.126 OA
ENDBRANCH   3  17
BRANCH   4  20
ATOM     20  N   UNL     1       0.510  -2.728   7.192  0.00  0.00    -0.246 N 
ATOM     21  H   UNL     1       0.524  -3.698   7.227  0.00  0.00    +0.172 HD
BRANCH  20  22
ATOM     22  N   UNL     1       0.609  -1.983   8.374  0.00  0.00    -0.231 N 
ATOM     23  C   UNL     1       0.722  -2.612   9.560  0.00  0.00    +0.261 C 
ATOM     24  O   UNL     1       0.739  -3.828   9.604  0.00  0.00    -0.269 OA
ATOM     25  H   UNL     1       0.595  -1.014   8.338  0.00  0.00    +0.173 HD
BRANCH  23  26
ATOM     26  C   UNL     1       0.826  -1.828  10.804  0.00  0.00    +0.046 A 
ATOM     27  C   UNL     1       0.694  -0.447  10.776  0.00  0.00    +0.014 A 
ATOM     28  C   UNL     1       0.791   0.298  11.944  0.00  0.00    +0.001 A 
ATOM     29  C   UNL     1       1.017  -0.302  13.147  0.00  0.00    +0.008 A 
ATOM     30  C   UNL     1       1.157  -1.699  13.223  0.00  0.00    -0.017 A 
ATOM     31  C   UNL     1       1.055  -2.476  12.044  0.00  0.00    -0.006 A 
ATOM     32  C   UNL     1       1.189  -3.869  12.122  0.00  0.00    +0.009 A 
ATOM     33  C   UNL     1       1.409  -4.459  13.330  0.00  0.00    +0.001 A 
ATOM     34  C   UNL     1       1.503  -3.697  14.492  0.00  0.00    +0.001 A 
ATOM     35  C   UNL     1       1.391  -2.341  14.452  0.00  0.00    +0.008 A 
ENDBRANCH  23  26
ENDBRANCH  20  22
ENDBRANCH   4  20
TORSDOF 5
