REMARK  Name = ZINC32995996
REMARK  7 active torsions:
REMARK  status: ('A' for Active; 'I' for Inactive)
REMARK    1  A    between atoms: C_1  and  S_2
REMARK    2  A    between atoms: S_2  and  C_3
REMARK    3  A    between atoms: C_3  and  C_4
REMARK    4  A    between atoms: C_4  and  C_5
REMARK    5  A    between atoms: C_5  and  C_7
REMARK    6  A    between atoms: C_5  and  N_23
REMARK    7  A    between atoms: N_9  and  C_10
REMARK                            x       y       z     vdW  Elec       q    Type
REMARK                         _______ _______ _______ _____ _____    ______ ____
ROOT
ATOM      1  C   UNL     1      -0.022   4.142  -0.077  0.00  0.00    +0.238 C 
ATOM      2  O   UNL     1      -1.065   3.522  -0.071  0.00  0.00    -0.273 OA
ATOM      3  N   UNL     1       1.152   3.487   0.010  0.00  0.00    -0.284 N 
ATOM      4  H   UNL     1       2.093   4.052   0.091  0.00  0.00    +0.155 HD
ENDROOT
BRANCH   3   5
ATOM      5  C   UNL     1       1.176   2.089  -0.004  0.00  0.00    +0.034 A 
ATOM      6  C   UNL     1       0.238   1.385  -0.750  0.00  0.00    +0.024 A 
ATOM      7  C   UNL     1       0.258   0.007  -0.766  0.00  0.00    +0.010 A 
ATOM      8  C   UNL     1       1.222  -0.687  -0.030  0.00  0.00    -0.014 A 
ATOM      9  C   UNL     1       2.159   0.025   0.715  0.00  0.00    -0.034 A 
ATOM     10  C   UNL     1       2.136   1.402   0.729  0.00  0.00    +0.028 A 
ATOM     11  C   UNL     1       3.058  -0.980   1.393  0.00  0.00    +0.071 C 
ATOM     12  C   UNL     1       2.557  -2.340   0.971  0.00  0.00    -0.035 A 
ATOM     13  C   UNL     1       1.468  -2.142   0.127  0.00  0.00    -0.014 A 
ATOM     14  C   UNL     1       0.809  -3.249  -0.411  0.00  0.00    +0.009 A 
ATOM     15  C   UNL     1       1.240  -4.523  -0.105  0.00  0.00    +0.001 A 
ATOM     16  C   UNL     1       2.324  -4.709   0.734  0.00  0.00    +0.000 A 
ATOM     17  C   UNL     1       2.982  -3.617   1.271  0.00  0.00    +0.004 A 
ENDBRANCH   3   5
BRANCH   1  18
ATOM     18  C   UNL     1      -0.040   5.645  -0.182  0.00  0.00    +0.161 C 
BRANCH  18  19
ATOM     19  N   UNL     1      -1.327   6.081  -0.732  0.00  0.00    -0.288 N 
ATOM     20  C   UNL     1      -2.471   5.786  -0.083  0.00  0.00    +0.298 C 
ATOM     21  O   UNL     1      -2.436   5.158   0.958  0.00  0.00    -0.253 OA
ATOM     22  N   UNL     1      -3.654   6.187  -0.589  0.00  0.00    -0.313 N 
ATOM     23  H   UNL     1      -1.359   6.648  -1.673  0.00  0.00    +0.151 HD
ATOM     24  H   UNL     1      -4.588   5.946  -0.060  0.00  0.00    +0.146 HD
ATOM     25  H   UNL     1      -3.686   6.754  -1.530  0.00  0.00    +0.146 HD
ENDBRANCH  18  19
BRANCH  18  26
ATOM     26  C   UNL     1       0.154   6.256   1.207  0.00  0.00    +0.042 C 
BRANCH  26  27
ATOM     27  C   UNL     1       0.260   7.777   1.085  0.00  0.00    +0.071 C 
BRANCH  27  29
ATOM     28  C   UNL     1       0.597  10.285   2.416  0.00  0.00    +0.084 C 
ATOM     29  S   UNL     1       0.491   8.502   2.732  0.00  0.00    -0.164 S 
ENDBRANCH  27  29
ENDBRANCH  26  27
ENDBRANCH  18  26
ENDBRANCH   1  18
TORSDOF 6
