REMARK  Name = ZINC64156081
REMARK  13 active torsions:
REMARK  status: ('A' for Active; 'I' for Inactive)
REMARK    1  A    between atoms: C_1  and  C_2
REMARK    2  A    between atoms: C_4  and  S_11
REMARK    3  A    between atoms: C_6  and  C_8
REMARK    4  A    between atoms: C_8  and  C_9
REMARK    5  A    between atoms: C_8  and  C_10
REMARK    6  A    between atoms: S_11  and  C_12
REMARK    7  A    between atoms: C_12  and  C_13
REMARK    8  A    between atoms: N_15  and  C_16
REMARK    9  A    between atoms: C_16  and  C_17
REMARK   10  A    between atoms: C_17  and  C_19
REMARK   11  A    between atoms: C_17  and  C_27
REMARK   12  A    between atoms: C_22  and  O_25
REMARK   13  A    between atoms: O_25  and  C_26
REMARK                            x       y       z     vdW  Elec       q    Type
REMARK                         _______ _______ _______ _____ _____    ______ ____
ROOT
ATOM      1  C   UNL     1       0.113  -9.364  -3.758  0.00  0.00    +0.064 C 
ENDROOT
BRANCH   1   2
ATOM      2  C   UNL     1      -1.166  -9.670  -3.023  0.00  0.00    -0.033 C 
ATOM      3  C   UNL     1      -1.291 -10.063  -1.735  0.00  0.00    -0.000 A 
ATOM      4  C   UNL     1      -0.309 -10.316  -0.674  0.00  0.00    +0.010 A 
ATOM      5  C   UNL     1      -0.746 -10.710   0.544  0.00  0.00    +0.001 A 
ATOM      6  C   UNL     1      -2.110 -10.884   0.817  0.00  0.00    +0.002 A 
ATOM      7  C   UNL     1      -3.071 -10.672  -0.107  0.00  0.00    +0.026 A 
ATOM      8  C   UNL     1      -2.725 -10.254  -1.422  0.00  0.00    +0.043 A 
ATOM      9  N   UNL     1      -3.459  -9.988  -2.475  0.00  0.00    -0.380 N 
ATOM     10  C   UNL     1      -2.572  -9.593  -3.575  0.00  0.00    +0.145 C 
ATOM     11  H   UNL     1      -4.426 -10.040  -2.518  0.00  0.00    +0.160 HD
ENDBRANCH   1   2
BRANCH   1  12
ATOM     12  C   UNL     1       0.244 -10.283  -4.945  0.00  0.00    -0.038 A 
ATOM     13  C   UNL     1      -0.718 -10.269  -5.938  0.00  0.00    +0.008 A 
ATOM     14  C   UNL     1      -0.601 -11.111  -7.027  0.00  0.00    +0.046 A 
ATOM     15  C   UNL     1       0.483 -11.971  -7.123  0.00  0.00    +0.120 A 
ATOM     16  C   UNL     1       1.447 -11.983  -6.126  0.00  0.00    +0.046 A 
ATOM     17  C   UNL     1       1.328 -11.135  -5.042  0.00  0.00    +0.008 A 
BRANCH  15  18
ATOM     18  O   UNL     1       0.600 -12.801  -8.193  0.00  0.00    -0.495 OA
ATOM     19  C   UNL     1       1.742 -13.659  -8.226  0.00  0.00    +0.277 C 
ENDBRANCH  15  18
ENDBRANCH   1  12
BRANCH   1  20
ATOM     20  C   UNL     1       0.091  -7.911  -4.238  0.00  0.00    +0.116 C 
BRANCH  20  23
ATOM     21  C   UNL     1       0.065  -5.679  -3.262  0.00  0.00    +0.223 C 
ATOM     22  O   UNL     1       0.052  -5.220  -4.384  0.00  0.00    -0.275 OA
ATOM     23  N   UNL     1       0.084  -7.014  -3.080  0.00  0.00    -0.314 N 
ATOM     24  H   UNL     1       0.094  -7.381  -2.182  0.00  0.00    +0.149 HD
BRANCH  21  25
ATOM     25  C   UNL     1       0.058  -4.756  -2.070  0.00  0.00    +0.171 C 
BRANCH  25  26
ATOM     26  S   UNL     1       0.031  -3.034  -2.640  0.00  0.00    -0.096 S 
BRANCH  26  30
ATOM     27  C   UNL     1      -0.018   1.503   0.010  0.00  0.00    +0.066 C 
ATOM     28  C   UNL     1       0.002  -0.004   0.002  0.00  0.00    +0.043 A 
ATOM     29  C   UNL     1       0.006  -0.696  -1.193  0.00  0.00    +0.058 A 
ATOM     30  C   UNL     1       0.026  -2.092  -1.150  0.00  0.00    +0.101 A 
ATOM     31  N   UNL     1       0.040  -2.700   0.034  0.00  0.00    -0.226 NA
ATOM     32  C   UNL     1       0.035  -1.999   1.149  0.00  0.00    +0.133 A 
ATOM     33  N   UNL     1       0.022  -0.681   1.142  0.00  0.00    -0.237 NA
BRANCH  32  34
ATOM     34  C   UNL     1       0.051  -2.724   2.470  0.00  0.00    +0.051 C 
ATOM     35  C   UNL     1      -1.185  -3.619   2.576  0.00  0.00    +0.015 C 
ATOM     36  C   UNL     1       1.313  -3.585   2.564  0.00  0.00    +0.015 C 
ENDBRANCH  32  34
ENDBRANCH  26  30
ENDBRANCH  25  26
ENDBRANCH  21  25
ENDBRANCH  20  23
ENDBRANCH   1  20
TORSDOF 9
