REMARK  Name = ZINC10066132
REMARK  8 active torsions:
REMARK  status: ('A' for Active; 'I' for Inactive)
REMARK    1  A    between atoms: C_1  and  C_2
REMARK    2  A    between atoms: C_7  and  C_8
REMARK    3  A    between atoms: N_12  and  C_13
REMARK    4  A    between atoms: C_13  and  C_14
REMARK    5  A    between atoms: C_14  and  N_51
REMARK    6  A    between atoms: C_15  and  N_51
REMARK    7  A    between atoms: C_16  and  N_51
REMARK    8  A    between atoms: C_17  and  C_19
REMARK                            x       y       z     vdW  Elec       q    Type
REMARK                         _______ _______ _______ _____ _____    ______ ____
ROOT
ATOM      1  C   UNL     1       9.618  10.154  -1.504  0.00  0.00    +0.044 C 
ATOM      2  C   UNL     1       8.130  10.365  -1.389  0.00  0.00    -0.045 A 
ATOM      3  C   UNL     1       7.599  11.615  -1.675  0.00  0.00    +0.005 A 
ATOM      4  C   UNL     1       6.234  11.810  -1.570  0.00  0.00    +0.017 A 
ATOM      5  C   UNL     1       5.428  10.768  -1.186  0.00  0.00    +0.041 A 
ATOM      6  C   UNL     1       5.933   9.482  -0.887  0.00  0.00    +0.083 A 
ATOM      7  C   UNL     1       7.333   9.319  -1.006  0.00  0.00    -0.021 A 
ATOM      8  C   UNL     1       7.954   7.979  -0.706  0.00  0.00    +0.046 C 
ATOM      9  N   UNL     1       5.014   8.563  -0.519  0.00  0.00    -0.224 NA
ATOM     10  C   UNL     1       3.732   8.836  -0.451  0.00  0.00    +0.168 A 
ATOM     11  S   UNL     1       3.683  10.559  -0.924  0.00  0.00    -0.052 S 
ATOM     12  N   UNL     1       2.685   8.003  -0.097  0.00  0.00    -0.248 N 
ATOM     13  C   UNL     1       2.927   6.719   0.232  0.00  0.00    +0.260 C 
ATOM     14  O   UNL     1       4.071   6.307   0.274  0.00  0.00    -0.269 OA
ENDROOT
BRANCH  13  15
ATOM     15  C   UNL     1       1.811   5.817   0.539  0.00  0.00    +0.094 A 
ATOM     16  C   UNL     1       1.841   4.473   0.755  0.00  0.00    +0.068 A 
ATOM     17  C   UNL     1       0.648   3.782   1.038  0.00  0.00    +0.008 A 
ATOM     18  C   UNL     1       0.474   2.397   1.290  0.00  0.00    +0.010 A 
ATOM     19  C   UNL     1      -0.757   1.887   1.548  0.00  0.00    +0.001 A 
ATOM     20  C   UNL     1      -1.889   2.692   1.571  0.00  0.00    +0.001 A 
ATOM     21  C   UNL     1      -1.765   4.046   1.338  0.00  0.00    +0.016 A 
ATOM     22  C   UNL     1      -0.521   4.579   1.074  0.00  0.00    +0.021 A 
ATOM     23  S   UNL     1       0.080   6.211   0.720  0.00  0.00    -0.082 S 
ATOM     24 CL   UNL     1       3.347   3.614   0.681  0.00  0.00    -0.082 Cl
ENDBRANCH  13  15
BRANCH  12  25
ATOM     25  C   UNL     1       1.313   8.517  -0.080  0.00  0.00    +0.097 C 
BRANCH  25  26
ATOM     26  C   UNL     1       0.933   8.909   1.349  0.00  0.00    -0.060 C 
BRANCH  26  29
ATOM     27  C   UNL     1      -0.926   9.589   2.744  0.00  0.00    -0.097 C 
ATOM     28  C   UNL     1      -0.541  10.686   0.621  0.00  0.00    -0.097 C 
ATOM     29  N   UNL     1      -0.459   9.406   1.354  0.00  0.00    +0.377 N 
ATOM     30  H   UNL     1      -1.060   8.716   0.888  0.00  0.00    -0.083 HD
ENDBRANCH  26  29
ENDBRANCH  25  26
ENDBRANCH  12  25
TORSDOF 4
