REMARK  Name = ZINC63529263
REMARK  13 active torsions:
REMARK  status: ('A' for Active; 'I' for Inactive)
REMARK    1  A    between atoms: C_1  and  C_2
REMARK    2  A    between atoms: C_2  and  C_33
REMARK    3  A    between atoms: C_3  and  C_4
REMARK    4  A    between atoms: C_4  and  C_5
REMARK    5  A    between atoms: C_5  and  C_6
REMARK    6  A    between atoms: C_6  and  C_32
REMARK    7  A    between atoms: C_10  and  C_31
REMARK    8  A    between atoms: C_11  and  C_30
REMARK    9  A    between atoms: N_13  and  C_17
REMARK   10  A    between atoms: C_17  and  C_18
REMARK   11  A    between atoms: C_18  and  C_19
REMARK   12  A    between atoms: C_22  and  O_28
REMARK   13  A    between atoms: O_28  and  C_29
REMARK                            x       y       z     vdW  Elec       q    Type
REMARK                         _______ _______ _______ _____ _____    ______ ____
ROOT
ATOM      1  C   UNL     1      -0.851   0.796   5.444  0.00  0.00    +0.070 C 
ATOM      2  C   UNL     1      -1.922   0.782   6.527  0.00  0.00    +0.035 C 
ATOM      3  C   UNL     1      -1.300   1.547   7.741  0.00  0.00    +0.007 C 
ATOM      4  C   UNL     1      -0.293   0.549   8.358  0.00  0.00    +0.052 C 
ATOM      5  C   UNL     1       1.121   0.945   7.975  0.00  0.00    +0.158 C 
ATOM      6  C   UNL     1       1.459   0.647   6.488  0.00  0.00    +0.178 C 
ATOM      7  O   UNL     1       0.347   0.221   5.791  0.00  0.00    -0.346 OA
ATOM      8  N   UNL     1       1.989   1.938   6.006  0.00  0.00    -0.235 N 
ATOM      9  C   UNL     1       1.767   2.868   6.948  0.00  0.00    +0.406 C 
ATOM     10  O   UNL     1       1.998   4.052   6.787  0.00  0.00    -0.226 OA
ATOM     11  O   UNL     1       1.281   2.366   8.089  0.00  0.00    -0.439 OA
ATOM     12  C   UNL     1       2.584  -0.420   6.415  0.00  0.00    +0.068 C 
ATOM     13  C   UNL     1       2.126   0.237   8.894  0.00  0.00    +0.060 C 
ATOM     14  C   UNL     1      -0.716   2.218   4.907  0.00  0.00    +0.041 C 
ENDROOT
BRANCH   1  15
ATOM     15  C   UNL     1      -1.437  -0.043   4.280  0.00  0.00    +0.039 C 
BRANCH  15  16
ATOM     16  C   UNL     1      -0.455  -0.044   3.107  0.00  0.00    +0.030 C 
BRANCH  16  19
ATOM     17  C   UNL     1      -0.738   0.901   0.465  0.00  0.00    +0.038 C 
ATOM     18  C   UNL     1      -1.160  -0.503   0.815  0.00  0.00    -0.080 C 
ATOM     19  C   UNL     1      -0.965  -0.962   2.026  0.00  0.00    -0.028 C 
ATOM     20  C   UNL     1      -1.806  -1.378  -0.228  0.00  0.00    +0.038 C 
ENDBRANCH  16  19
ENDBRANCH  15  16
ENDBRANCH   1  15
BRANCH   8  21
ATOM     21  C   UNL     1       2.680   2.164   4.732  0.00  0.00    +0.118 C 
BRANCH  21  22
ATOM     22  C   UNL     1       4.192   2.106   4.954  0.00  0.00    +0.052 C 
BRANCH  22  23
ATOM     23  C   UNL     1       4.902   2.471   3.676  0.00  0.00    -0.040 C 
ATOM     24  C   UNL     1       5.370   3.691   3.326  0.00  0.00    +0.002 A 
ATOM     25  C   UNL     1       5.358   4.993   4.001  0.00  0.00    +0.055 A 
ATOM     26  C   UNL     1       5.915   6.066   3.391  0.00  0.00    +0.121 A 
ATOM     27  C   UNL     1       6.511   5.981   2.121  0.00  0.00    +0.047 A 
ATOM     28  C   UNL     1       6.571   4.828   1.421  0.00  0.00    +0.029 A 
ATOM     29  C   UNL     1       5.998   3.603   1.987  0.00  0.00    +0.043 A 
ATOM     30  N   UNL     1       5.922   2.378   1.529  0.00  0.00    -0.380 N 
ATOM     31  C   UNL     1       5.242   1.546   2.528  0.00  0.00    +0.144 C 
ATOM     32  H   UNL     1       6.263   2.072   0.674  0.00  0.00    +0.160 HD
BRANCH  26  33
ATOM     33  O   UNL     1       5.897   7.266   4.029  0.00  0.00    -0.495 OA
ATOM     34  C   UNL     1       6.496   8.371   3.349  0.00  0.00    +0.277 C 
ENDBRANCH  26  33
ENDBRANCH  22  23
ENDBRANCH  21  22
ENDBRANCH   8  21
TORSDOF 7
