REMARK  Name = ZINC43014447
REMARK  13 active torsions:
REMARK  status: ('A' for Active; 'I' for Inactive)
REMARK    1  A    between atoms: C_1  and  C_2
REMARK    2  A    between atoms: C_5  and  C_11
REMARK    3  A    between atoms: C_6  and  C_10
REMARK    4  A    between atoms: C_7  and  O_8
REMARK    5  A    between atoms: O_8  and  C_9
REMARK    6  A    between atoms: C_11  and  N_12
REMARK    7  A    between atoms: N_21  and  C_29
REMARK    8  A    between atoms: C_24  and  C_26
REMARK    9  A    between atoms: C_26  and  C_27
REMARK   10  A    between atoms: C_26  and  C_28
REMARK   11  A    between atoms: C_29  and  C_30
REMARK   12  A    between atoms: C_30  and  C_31
REMARK   13  A    between atoms: C_30  and  C_32
REMARK                            x       y       z     vdW  Elec       q    Type
REMARK                         _______ _______ _______ _____ _____    ______ ____
ROOT
ATOM      1  N   UNL     1      -1.257  -4.571   0.041  0.00  0.00    -0.296 N 
ATOM      2  C   UNL     1      -1.631  -5.043   1.292  0.00  0.00    +0.150 A 
ATOM      3  C   UNL     1      -2.983  -4.991   1.654  0.00  0.00    +0.114 A 
ATOM      4  C   UNL     1      -3.354  -5.468   2.899  0.00  0.00    +0.157 A 
ATOM      5  N   UNL     1      -2.413  -5.953   3.703  0.00  0.00    -0.201 NA
ATOM      6  C   UNL     1      -1.143  -5.984   3.331  0.00  0.00    +0.216 A 
ATOM      7  N   UNL     1      -0.748  -5.538   2.145  0.00  0.00    -0.198 NA
ATOM      8  N   UNL     1      -0.198  -6.496   4.206  0.00  0.00    -0.327 N 
ATOM      9 CL   UNL     1      -5.015  -5.434   3.401  0.00  0.00    -0.060 Cl
ATOM     10  N   UNL     1      -3.922  -4.459   0.761  0.00  0.00    -0.264 N 
ATOM     11  C   UNL     1      -3.595  -4.256  -0.530  0.00  0.00    +0.241 C 
ATOM     12  O   UNL     1      -4.401  -3.748  -1.282  0.00  0.00    -0.273 OA
ATOM     13  C   UNL     1      -2.240  -4.649  -1.050  0.00  0.00    +0.164 C 
ATOM     14  H   UNL     1      -0.471  -6.826   5.076  0.00  0.00    +0.145 HD
ATOM     15  H   UNL     1       0.736  -6.526   3.947  0.00  0.00    +0.145 HD
ENDROOT
BRANCH  13  16
ATOM     16  C   UNL     1      -2.298  -6.081  -1.584  0.00  0.00    +0.012 C 
ATOM     17  C   UNL     1      -3.321  -6.161  -2.719  0.00  0.00    +0.009 C 
ATOM     18  C   UNL     1      -0.919  -6.485  -2.111  0.00  0.00    +0.009 C 
ENDBRANCH  13  16
BRANCH   1  19
ATOM     19  C   UNL     1       0.076  -4.007  -0.184  0.00  0.00    +0.160 C 
BRANCH  19  24
ATOM     20  C   UNL     1      -0.032   1.531   1.311  0.00  0.00    +0.049 C 
ATOM     21  C   UNL     1       0.035   0.080   0.912  0.00  0.00    +0.007 A 
ATOM     22  C   UNL     1      -1.103  -0.701   0.916  0.00  0.00    +0.089 A 
ATOM     23  N   UNL     1      -1.052  -1.972   0.568  0.00  0.00    -0.362 N 
ATOM     24  C   UNL     1       0.077  -2.550   0.203  0.00  0.00    +0.040 A 
ATOM     25  C   UNL     1       1.258  -1.838   0.173  0.00  0.00    +0.012 A 
ATOM     26  C   UNL     1       1.246  -0.491   0.528  0.00  0.00    +0.129 A 
ATOM     27  C   UNL     1       2.543  -2.506  -0.245  0.00  0.00    +0.049 C 
ATOM     28  H   UNL     1      -1.868  -2.497   0.580  0.00  0.00    +0.165 HD
BRANCH  26  29
ATOM     29  O   UNL     1       2.387   0.245   0.506  0.00  0.00    -0.494 OA
ATOM     30  C   UNL     1       3.163   0.274   1.705  0.00  0.00    +0.277 C 
ENDBRANCH  26  29
ENDBRANCH  19  24
ENDBRANCH   1  19
BRANCH  10  31
ATOM     31  C   UNL     1      -5.267  -4.121   1.234  0.00  0.00    +0.117 C 
BRANCH  31  32
ATOM     32  C   UNL     1      -5.185  -2.939   2.202  0.00  0.00    +0.001 C 
ATOM     33  C   UNL     1      -4.709  -1.695   1.449  0.00  0.00    +0.009 C 
ATOM     34  C   UNL     1      -6.567  -2.674   2.802  0.00  0.00    +0.009 C 
ENDBRANCH  31  32
ENDBRANCH  10  31
TORSDOF 6
