REMARK  Name = ZINC63547762
REMARK  9 active torsions:
REMARK  status: ('A' for Active; 'I' for Inactive)
REMARK    1  A    between atoms: C_1  and  C_2
REMARK    2  A    between atoms: C_5  and  O_36
REMARK    3  A    between atoms: C_6  and  N_8
REMARK    4  A    between atoms: C_17  and  O_34
REMARK    5  A    between atoms: C_24  and  C_26
REMARK    6  A    between atoms: C_29  and  O_32
REMARK    7  A    between atoms: O_32  and  C_33
REMARK    8  A    between atoms: O_34  and  C_35
REMARK    9  A    between atoms: O_36  and  C_37
REMARK                            x       y       z     vdW  Elec       q    Type
REMARK                         _______ _______ _______ _____ _____    ______ ____
ROOT
ATOM      1  N   UNL     1      -0.131  -2.404   2.359  0.00  0.00    -0.266 N 
ATOM      2  C   UNL     1       0.054  -1.872   3.583  0.00  0.00    +0.307 C 
ATOM      3  O   UNL     1       0.125  -0.665   3.717  0.00  0.00    -0.252 OA
ATOM      4  N   UNL     1       0.160  -2.677   4.659  0.00  0.00    -0.276 N 
ATOM      5  C   UNL     1       0.181  -4.132   4.478  0.00  0.00    +0.114 C 
ATOM      6  C   UNL     1       1.474  -4.705   5.085  0.00  0.00    +0.052 C 
ATOM      7  C   UNL     1       1.643  -4.055   6.436  0.00  0.00    -0.035 C 
ATOM      8  C   UNL     1       1.847  -4.573   7.640  0.00  0.00    +0.003 A 
ATOM      9  C   UNL     1       2.090  -5.953   8.088  0.00  0.00    +0.055 A 
ATOM     10  C   UNL     1       2.240  -6.143   9.428  0.00  0.00    +0.121 A 
ATOM     11  C   UNL     1       2.177  -5.113  10.378  0.00  0.00    +0.047 A 
ATOM     12  C   UNL     1       1.966  -3.806  10.075  0.00  0.00    +0.029 A 
ATOM     13  C   UNL     1       1.797  -3.474   8.653  0.00  0.00    +0.043 A 
ATOM     14  N   UNL     1       1.608  -2.328   8.073  0.00  0.00    -0.375 N 
ATOM     15  C   UNL     1       1.576  -2.544   6.626  0.00  0.00    +0.131 C 
ATOM     16  C   UNL     1       0.259  -2.086   6.003  0.00  0.00    +0.134 C 
ATOM     17  H   UNL     1      -0.227  -3.364   2.257  0.00  0.00    +0.156 HD
ATOM     18  H   UNL     1       1.504  -1.474   8.522  0.00  0.00    +0.160 HD
ENDROOT
BRANCH   1  24
ATOM     19  C   UNL     1      -1.068   2.006   0.396  0.00  0.00    +0.044 C 
ATOM     20  C   UNL     1      -0.634   0.570   0.252  0.00  0.00    -0.048 A 
ATOM     21  C   UNL     1      -0.288   0.075  -0.992  0.00  0.00    +0.007 A 
ATOM     22  C   UNL     1       0.111  -1.241  -1.130  0.00  0.00    +0.048 A 
ATOM     23  C   UNL     1       0.165  -2.069  -0.021  0.00  0.00    +0.141 A 
ATOM     24  C   UNL     1      -0.183  -1.571   1.233  0.00  0.00    +0.077 A 
ATOM     25  C   UNL     1      -0.577  -0.248   1.365  0.00  0.00    +0.030 A 
BRANCH  23  26
ATOM     26  O   UNL     1       0.557  -3.364  -0.155  0.00  0.00    -0.493 OA
ATOM     27  C   UNL     1       0.898  -3.805  -1.470  0.00  0.00    +0.277 C 
ENDBRANCH  23  26
ENDBRANCH   1  24
BRANCH  16  28
ATOM     28  C   UNL     1      -0.893  -2.555   6.853  0.00  0.00    -0.024 A 
ATOM     29  C   UNL     1      -1.032  -3.899   7.148  0.00  0.00    +0.009 A 
ATOM     30  C   UNL     1      -2.087  -4.331   7.926  0.00  0.00    +0.046 A 
ATOM     31  C   UNL     1      -3.009  -3.416   8.414  0.00  0.00    +0.120 A 
ATOM     32  C   UNL     1      -2.868  -2.068   8.117  0.00  0.00    +0.046 A 
ATOM     33  C   UNL     1      -1.807  -1.640   7.343  0.00  0.00    +0.009 A 
BRANCH  31  34
ATOM     34  O   UNL     1      -4.049  -3.840   9.180  0.00  0.00    -0.495 OA
ATOM     35  C   UNL     1      -4.959  -2.842   9.647  0.00  0.00    +0.277 C 
ENDBRANCH  31  34
ENDBRANCH  16  28
BRANCH  10  36
ATOM     36  O   UNL     1       2.466  -7.407   9.872  0.00  0.00    -0.495 OA
ATOM     37  C   UNL     1       2.621  -7.582  11.282  0.00  0.00    +0.277 C 
ENDBRANCH  10  36
TORSDOF 5
