REMARK  Name = ZINC40982435
REMARK  14 active torsions:
REMARK  status: ('A' for Active; 'I' for Inactive)
REMARK    1  A    between atoms: C_1  and  C_2
REMARK    2  A    between atoms: C_2  and  C_3
REMARK    3  A    between atoms: C_3  and  C_4
REMARK    4  A    between atoms: C_4  and  O_5
REMARK    5  A    between atoms: O_5  and  C_6
REMARK    6  A    between atoms: C_11  and  C_12
REMARK    7  A    between atoms: C_14  and  C_27
REMARK    8  A    between atoms: C_15  and  C_26
REMARK    9  A    between atoms: C_20  and  S_22
REMARK   10  A    between atoms: S_22  and  C_23
REMARK   11  A    between atoms: C_23  and  C_24
REMARK   12  A    between atoms: C_24  and  C_25
REMARK   13  A    between atoms: C_27  and  O_29
REMARK   14  A    between atoms: O_29  and  C_30
REMARK                            x       y       z     vdW  Elec       q    Type
REMARK                         _______ _______ _______ _____ _____    ______ ____
ROOT
ATOM      1  C   UNL     1      -5.429  -3.500  -0.060  0.00  0.00    +0.183 C 
ATOM      2  C   UNL     1      -6.242  -3.636   1.200  0.00  0.00    +0.082 C 
ATOM      3  C   UNL     1      -7.391  -4.327   1.258  0.00  0.00    +0.020 C 
ATOM      4  N   UNL     1      -7.922  -4.957   0.161  0.00  0.00    -0.287 N 
ATOM      5  C   UNL     1      -7.381  -4.646  -1.079  0.00  0.00    +0.219 A 
ATOM      6  N   UNL     1      -6.217  -3.961  -1.200  0.00  0.00    -0.220 N 
ATOM      7  N   UNL     1      -5.977  -3.818  -2.566  0.00  0.00    -0.141 NA
ATOM      8  C   UNL     1      -6.973  -4.410  -3.189  0.00  0.00    +0.210 A 
ATOM      9  N   UNL     1      -7.821  -4.912  -2.279  0.00  0.00    -0.187 NA
ATOM     10  C   UNL     1      -8.123  -4.414   2.573  0.00  0.00    +0.061 C 
ATOM     11  H   UNL     1      -8.648  -5.595   0.248  0.00  0.00    +0.155 HD
ENDROOT
BRANCH   1  17
ATOM     12  C   UNL     1      -2.932  -3.729  -0.027  0.00  0.00    +0.126 A 
ATOM     13  C   UNL     1      -1.783  -4.498   0.086  0.00  0.00    +0.047 A 
ATOM     14  C   UNL     1      -1.881  -5.862   0.276  0.00  0.00    +0.019 A 
ATOM     15  C   UNL     1      -3.125  -6.463   0.353  0.00  0.00    +0.018 A 
ATOM     16  C   UNL     1      -4.272  -5.699   0.240  0.00  0.00    +0.025 A 
ATOM     17  C   UNL     1      -4.178  -4.333   0.056  0.00  0.00    +0.024 A 
ATOM     18 BR   UNL     1      -3.257  -8.331   0.614  0.00  0.00    -0.050 Br
BRANCH  12  19
ATOM     19  O   UNL     1      -2.838  -2.386  -0.214  0.00  0.00    -0.492 OA
BRANCH  19  20
ATOM     20  C   UNL     1      -1.522  -1.833  -0.291  0.00  0.00    +0.229 C 
BRANCH  20  21
ATOM     21  C   UNL     1      -1.617  -0.321  -0.502  0.00  0.00    +0.041 C 
BRANCH  21  23
ATOM     22  C   UNL     1      -0.303   1.784  -0.794  0.00  0.00    +0.004 C 
ATOM     23  C   UNL     1      -0.208   0.272  -0.584  0.00  0.00    -0.000 C 
ENDBRANCH  21  23
ENDBRANCH  20  21
ENDBRANCH  19  20
ENDBRANCH  12  19
ENDBRANCH   1  17
BRANCH   2  24
ATOM     24  C   UNL     1      -5.773  -3.009   2.375  0.00  0.00    +0.339 C 
ATOM     25  O   UNL     1      -5.969  -1.821   2.550  0.00  0.00    -0.245 OA
BRANCH  24  26
ATOM     26  O   UNL     1      -5.108  -3.727   3.305  0.00  0.00    -0.465 OA
ATOM     27  C   UNL     1      -4.663  -3.028   4.469  0.00  0.00    +0.280 C 
ENDBRANCH  24  26
ENDBRANCH   2  24
BRANCH   8  28
ATOM     28  S   UNL     1      -7.162  -4.526  -4.937  0.00  0.00    -0.084 S 
BRANCH  28  29
ATOM     29  C   UNL     1      -8.710  -5.446  -5.151  0.00  0.00    +0.077 C 
BRANCH  29  30
ATOM     30  C   UNL     1      -8.998  -5.620  -6.644  0.00  0.00    +0.008 C 
ATOM     31  C   UNL     1     -10.304  -6.396  -6.824  0.00  0.00    +0.004 C 
ENDBRANCH  29  30
ENDBRANCH  28  29
ENDBRANCH   8  28
TORSDOF 10
