REMARK  Name = ZINC28923231
REMARK  3 active torsions:
REMARK  status: ('A' for Active; 'I' for Inactive)
REMARK    1  A    between atoms: C_10  and  C_17
REMARK    2  A    between atoms: N_12  and  C_13
REMARK    3  A    between atoms: C_13  and  C_14
REMARK                            x       y       z     vdW  Elec       q    Type
REMARK                         _______ _______ _______ _____ _____    ______ ____
ROOT
ATOM      1  C   UNL     1      -4.114   2.997   3.779  0.00  0.00    +0.001 A 
ATOM      2  C   UNL     1      -2.746   2.889   3.581  0.00  0.00    +0.002 A 
ATOM      3  C   UNL     1      -2.194   3.121   2.337  0.00  0.00    +0.024 A 
ATOM      4  C   UNL     1      -3.014   3.465   1.271  0.00  0.00    +0.044 A 
ATOM      5  C   UNL     1      -4.400   3.570   1.472  0.00  0.00    +0.058 A 
ATOM      6  C   UNL     1      -4.945   3.336   2.731  0.00  0.00    +0.015 A 
ATOM      7  C   UNL     1      -5.250   3.928   0.319  0.00  0.00    +0.247 C 
ATOM      8  O   UNL     1      -6.386   4.334   0.472  0.00  0.00    -0.270 OA
ATOM      9  N   UNL     1      -4.714   3.784  -0.917  0.00  0.00    -0.289 N 
ATOM     10  C   UNL     1      -3.365   3.238  -1.061  0.00  0.00    +0.193 C 
ATOM     11  N   UNL     1      -2.486   3.706   0.013  0.00  0.00    -0.298 N 
ATOM     12  H   UNL     1      -5.287   4.076  -1.809  0.00  0.00    +0.151 HD
ENDROOT
BRANCH  10  13
ATOM     13  C   UNL     1      -3.434   1.733  -1.022  0.00  0.00    -0.001 A 
ATOM     14  C   UNL     1      -2.871   0.978  -2.033  0.00  0.00    +0.030 A 
ATOM     15  C   UNL     1      -2.946  -0.374  -1.964  0.00  0.00    +0.055 A 
ATOM     16  S   UNL     1      -3.848  -0.616  -0.442  0.00  0.00    -0.089 S 
ATOM     17  C   UNL     1      -4.056   1.100   0.003  0.00  0.00    +0.053 A 
ATOM     18 BR   UNL     1      -2.278  -1.668  -3.171  0.00  0.00    -0.043 Br
ENDBRANCH  10  13
BRANCH  11  19
ATOM     19  C   UNL     1      -1.143   3.124  -0.115  0.00  0.00    +0.202 C 
BRANCH  19  20
ATOM     20  C   UNL     1      -0.564   3.488  -1.458  0.00  0.00    +0.228 C 
ATOM     21  O   UNL     1      -1.150   4.265  -2.181  0.00  0.00    -0.274 OA
ATOM     22  N   UNL     1       0.606   2.949  -1.856  0.00  0.00    -0.328 N 
ATOM     23  H   UNL     1       1.028   3.215  -2.836  0.00  0.00    +0.145 HD
ATOM     24  H   UNL     1       1.137   2.244  -1.201  0.00  0.00    +0.145 HD
ENDBRANCH  19  20
ENDBRANCH  11  19
TORSDOF 3
