REMARK  Name = ZINC59410838
REMARK  11 active torsions:
REMARK  status: ('A' for Active; 'I' for Inactive)
REMARK    1  A    between atoms: C_1  and  C_2
REMARK    2  A    between atoms: C_5  and  C_37
REMARK    3  A    between atoms: N_8  and  C_10
REMARK    4  A    between atoms: C_10  and  C_11
REMARK    5  A    between atoms: C_14  and  C_17
REMARK    6  A    between atoms: C_17  and  N_18
REMARK    7  A    between atoms: C_19  and  C_21
REMARK    8  A    between atoms: C_21  and  C_22
REMARK    9  A    between atoms: C_22  and  C_23
REMARK   10  A    between atoms: C_23  and  N_24
REMARK   11  A    between atoms: C_28  and  N_34
REMARK                            x       y       z     vdW  Elec       q    Type
REMARK                         _______ _______ _______ _____ _____    ______ ____
ROOT
ATOM      1  N   UNL     1       7.205  -0.064   0.580  0.00  0.00    -0.311 N 
ATOM      2  C   UNL     1       8.415   0.422   0.237  0.00  0.00    +0.213 C 
ATOM      3  O   UNL     1       9.372   0.229   0.956  0.00  0.00    -0.276 OA
ATOM      4  H   UNL     1       6.440   0.090   0.004  0.00  0.00    +0.149 HD
ENDROOT
BRANCH   1   5
ATOM      5  C   UNL     1       7.047  -0.825   1.821  0.00  0.00    +0.139 C 
BRANCH   5   9
ATOM      6  C   UNL     1       2.971  -2.034   2.241  0.00  0.00    -0.064 A 
ATOM      7  C   UNL     1       3.870  -2.852   1.582  0.00  0.00    +0.002 A 
ATOM      8  C   UNL     1       5.189  -2.460   1.446  0.00  0.00    +0.005 A 
ATOM      9  C   UNL     1       5.609  -1.252   1.969  0.00  0.00    -0.030 A 
ATOM     10  C   UNL     1       4.710  -0.434   2.628  0.00  0.00    +0.005 A 
ATOM     11  C   UNL     1       3.390  -0.823   2.760  0.00  0.00    +0.002 A 
BRANCH   6  12
ATOM     12  C   UNL     1       1.534  -2.461   2.390  0.00  0.00    -0.043 C 
BRANCH  12  18
ATOM     13  C   UNL     1      -0.019   1.526   0.010  0.00  0.00    +0.005 C 
ATOM     14  C   UNL     1       0.002  -0.004   0.002  0.00  0.00    -0.031 C 
ATOM     15  C   UNL     1      -1.434  -0.535   0.015  0.00  0.00    +0.003 C 
ATOM     16  C   UNL     1      -1.402  -2.064   0.086  0.00  0.00    -0.031 C 
ATOM     17  C   UNL     1      -0.613  -2.496   1.324  0.00  0.00    -0.075 C 
ATOM     18  N   UNL     1       0.758  -1.980   1.239  0.00  0.00    +0.383 N 
ATOM     19  C   UNL     1       0.740  -0.512   1.242  0.00  0.00    -0.075 C 
ATOM     20  C   UNL     1      -0.728  -2.620  -1.170  0.00  0.00    +0.005 C 
ATOM     21  H   UNL     1       1.188  -2.307   0.386  0.00  0.00    -0.081 HD
ENDBRANCH  12  18
ENDBRANCH   6  12
ENDBRANCH   5   9
ENDBRANCH   1   5
BRANCH   2  22
ATOM     22  C   UNL     1       8.578   1.205  -1.040  0.00  0.00    +0.097 C 
BRANCH  22  23
ATOM     23  C   UNL     1      10.038   1.638  -1.190  0.00  0.00    +0.031 C 
BRANCH  23  24
ATOM     24  C   UNL     1      10.203   2.433  -2.487  0.00  0.00    +0.129 C 
BRANCH  24  25
ATOM     25  N   UNL     1      11.601   2.847  -2.630  0.00  0.00    -0.274 N 
ATOM     26  C   UNL     1      12.164   4.030  -2.151  0.00  0.00    +0.090 A 
ATOM     27  C   UNL     1      11.655   5.110  -1.448  0.00  0.00    +0.032 A 
ATOM     28  C   UNL     1      12.484   6.161  -1.107  0.00  0.00    +0.035 A 
ATOM     29  C   UNL     1      13.820   6.138  -1.466  0.00  0.00    +0.130 A 
ATOM     30  C   UNL     1      14.335   5.065  -2.167  0.00  0.00    +0.081 A 
ATOM     31  C   UNL     1      13.511   4.005  -2.514  0.00  0.00    +0.159 A 
ATOM     32  O   UNL     1      13.727   2.846  -3.182  0.00  0.00    -0.407 OA
ATOM     33  C   UNL     1      12.579   2.153  -3.244  0.00  0.00    +0.421 A 
ATOM     34  O   UNL     1      12.443   1.067  -3.775  0.00  0.00    -0.223 OA
BRANCH  29  35
ATOM     35  N   UNL     1      14.702   7.269  -1.098  0.00  0.00    +0.057 N 
ATOM     36  O   UNL     1      14.254   8.209  -0.485  0.00  0.00    -0.126 OA
ATOM     37  O   UNL     1      15.870   7.251  -1.410  0.00  0.00    -0.126 OA
ENDBRANCH  29  35
ENDBRANCH  24  25
ENDBRANCH  23  24
ENDBRANCH  22  23
ENDBRANCH   2  22
TORSDOF 9
