REMARK  Name = ZINC44731035
REMARK  5 active torsions:
REMARK  status: ('A' for Active; 'I' for Inactive)
REMARK    1  A    between atoms: C_1  and  C_2
REMARK    2  A    between atoms: C_4  and  C_8
REMARK    3  A    between atoms: C_5  and  C_7
REMARK    4  A    between atoms: C_8  and  C_10
REMARK    5  A    between atoms: C_8  and  N_11
REMARK                            x       y       z     vdW  Elec       q    Type
REMARK                         _______ _______ _______ _____ _____    ______ ____
ROOT
ATOM      1  N   UNL     1      -2.166  -3.511   1.237  0.00  0.00    -0.305 N 
ATOM      2  C   UNL     1      -3.543  -3.593   1.375  0.00  0.00    +0.071 A 
ATOM      3  C   UNL     1      -4.601  -3.569   0.480  0.00  0.00    +0.029 A 
ATOM      4  C   UNL     1      -5.896  -3.676   0.944  0.00  0.00    +0.022 A 
ATOM      5  C   UNL     1      -6.147  -3.808   2.303  0.00  0.00    +0.043 A 
ATOM      6  C   UNL     1      -5.107  -3.833   3.206  0.00  0.00    +0.050 A 
ATOM      7  C   UNL     1      -3.790  -3.727   2.751  0.00  0.00    +0.092 A 
ATOM      8  N   UNL     1      -2.584  -3.720   3.377  0.00  0.00    -0.215 NA
ATOM      9  C   UNL     1      -1.628  -3.599   2.489  0.00  0.00    +0.195 A 
ATOM     10  N   UNL     1      -0.280  -3.562   2.776  0.00  0.00    -0.329 N 
ATOM     11 CL   UNL     1      -7.783  -3.940   2.868  0.00  0.00    -0.083 Cl
ATOM     12  H   UNL     1       0.369  -3.549   2.056  0.00  0.00    +0.145 HD
ATOM     13  H   UNL     1       0.019  -3.550   3.699  0.00  0.00    +0.145 HD
ENDROOT
BRANCH   1  14
ATOM     14  C   UNL     1      -1.426  -3.363  -0.018  0.00  0.00    +0.121 C 
ATOM     15  C   UNL     1      -2.396  -3.461  -1.197  0.00  0.00    +0.036 C 
BRANCH  14  19
ATOM     16  C   UNL     1      -0.562   1.655   0.160  0.00  0.00    +0.086 C 
ATOM     17  C   UNL     1      -0.379   0.164   0.038  0.00  0.00    +0.103 A 
ATOM     18  C   UNL     1      -1.353  -0.758   0.133  0.00  0.00    +0.050 A 
ATOM     19  C   UNL     1      -0.741  -2.021  -0.042  0.00  0.00    +0.016 A 
ATOM     20  C   UNL     1       0.572  -1.794  -0.233  0.00  0.00    +0.107 A 
ATOM     21  O   UNL     1       0.784  -0.468  -0.190  0.00  0.00    -0.465 OA
ATOM     22  C   UNL     1       1.624  -2.848  -0.463  0.00  0.00    +0.086 C 
ENDBRANCH  14  19
ENDBRANCH   1  14
TORSDOF 2
