REMARK  Name = ZINC62893329
REMARK  5 active torsions:
REMARK  status: ('A' for Active; 'I' for Inactive)
REMARK    1  A    between atoms: C_1  and  C_2
REMARK    2  A    between atoms: C_2  and  C_7
REMARK    3  A    between atoms: N_9  and  C_10
REMARK    4  A    between atoms: C_12  and  S_17
REMARK    5  A    between atoms: S_17  and  N_20
REMARK                            x       y       z     vdW  Elec       q    Type
REMARK                         _______ _______ _______ _____ _____    ______ ____
ROOT
ATOM      1  C   UNL     1       0.817  -0.567  -3.630  0.00  0.00    +0.054 A 
ATOM      2  C   UNL     1       1.496  -1.777  -3.680  0.00  0.00    +0.053 A 
ATOM      3  C   UNL     1       2.153  -2.152  -4.835  0.00  0.00    +0.107 A 
ATOM      4  C   UNL     1       2.137  -1.323  -5.942  0.00  0.00    +0.030 A 
ATOM      5  C   UNL     1       1.462  -0.117  -5.897  0.00  0.00    +0.024 A 
ATOM      6  C   UNL     1       0.797   0.261  -4.745  0.00  0.00    +0.062 A 
ATOM      7 CL   UNL     1      -0.057   1.772  -4.691  0.00  0.00    -0.082 Cl
ENDROOT
BRANCH   1  10
ATOM      8  C   UNL     1       0.655  -0.516  -1.256  0.00  0.00    +0.221 C 
ATOM      9  O   UNL     1       1.645  -1.213  -1.186  0.00  0.00    -0.275 OA
ATOM     10  N   UNL     1       0.149  -0.185  -2.461  0.00  0.00    -0.284 N 
ATOM     11  H   UNL     1      -0.679   0.317  -2.517  0.00  0.00    +0.155 HD
BRANCH   8  13
ATOM     12  C   UNL     1      -0.034   1.510   0.020  0.00  0.00    +0.019 C 
ATOM     13  C   UNL     1      -0.008  -0.019   0.003  0.00  0.00    +0.028 C 
ATOM     14  C   UNL     1      -1.443  -0.582   0.113  0.00  0.00    -0.005 C 
ATOM     15  C   UNL     1      -1.264  -1.809   1.042  0.00  0.00    -0.082 C 
ATOM     16  N   UNL     1      -0.246  -1.348   2.021  0.00  0.00    +0.380 N 
ATOM     17  C   UNL     1       0.731  -0.556   1.243  0.00  0.00    -0.067 C 
ATOM     18  H   UNL     1      -0.678  -0.772   2.727  0.00  0.00    -0.086 HD
ATOM     19  H   UNL     1       0.210  -2.141   2.447  0.00  0.00    -0.086 HD
ENDBRANCH   8  13
ENDBRANCH   1  10
BRANCH   3  20
ATOM     20  S   UNL     1       3.015  -3.687  -4.899  0.00  0.00    +0.056 S 
ATOM     21  O   UNL     1       4.004  -3.556  -5.910  0.00  0.00    -0.153 OA
ATOM     22  O   UNL     1       3.337  -4.028  -3.557  0.00  0.00    -0.153 OA
BRANCH  20  23
ATOM     23  N   UNL     1       1.941  -4.830  -5.432  0.00  0.00    -0.204 NA
ATOM     24  H   UNL     1       1.028  -4.577  -5.641  0.00  0.00    +0.144 HD
ATOM     25  H   UNL     1       2.225  -5.751  -5.537  0.00  0.00    +0.144 HD
ENDBRANCH  20  23
ENDBRANCH   3  20
TORSDOF 4
