REMARK  Name = ZINC40424189
REMARK  9 active torsions:
REMARK  status: ('A' for Active; 'I' for Inactive)
REMARK    1  A    between atoms: C_1  and  C_2
REMARK    2  A    between atoms: C_2  and  C_3
REMARK    3  A    between atoms: C_3  and  C_4
REMARK    4  A    between atoms: C_4  and  C_6
REMARK    5  A    between atoms: C_4  and  C_7
REMARK    6  A    between atoms: C_7  and  N_8
REMARK    7  A    between atoms: C_11  and  C_14
REMARK    8  A    between atoms: C_21  and  C_30
REMARK    9  A    between atoms: C_22  and  C_23
REMARK                            x       y       z     vdW  Elec       q    Type
REMARK                         _______ _______ _______ _____ _____    ______ ____
ROOT
ATOM      1  C   UNL     1       1.926  -8.091   2.094  0.00  0.00    -0.040 A 
ATOM      2  C   UNL     1       0.630  -8.525   1.773  0.00  0.00    +0.022 A 
ATOM      3  C   UNL     1       0.375  -9.841   1.606  0.00  0.00    +0.093 A 
ATOM      4  N   UNL     1       1.368 -10.764   1.747  0.00  0.00    -0.297 N 
ATOM      5  C   UNL     1       2.642 -10.373   2.060  0.00  0.00    +0.139 A 
ATOM      6  C   UNL     1       2.926  -9.004   2.232  0.00  0.00    +0.050 A 
ATOM      7  N   UNL     1       3.413 -11.452   2.139  0.00  0.00    -0.227 NA
ATOM      8  C   UNL     1       2.684 -12.543   1.887  0.00  0.00    +0.099 A 
ATOM      9  C   UNL     1       1.379 -12.137   1.634  0.00  0.00    +0.100 A 
ENDROOT
BRANCH   9  10
ATOM     10  C   UNL     1       0.235 -13.003   1.310  0.00  0.00    +0.095 A 
ATOM     11  C   UNL     1      -1.077 -12.581   1.576  0.00  0.00    +0.050 A 
ATOM     12  C   UNL     1      -2.117 -13.428   1.253  0.00  0.00    +0.116 A 
ATOM     13  N   UNL     1      -1.851 -14.606   0.706  0.00  0.00    -0.223 NA
ATOM     14  C   UNL     1      -0.603 -14.981   0.465  0.00  0.00    +0.213 A 
ATOM     15  N   UNL     1       0.427 -14.201   0.752  0.00  0.00    -0.213 NA
ATOM     16  N   UNL     1      -0.370 -16.220  -0.108  0.00  0.00    -0.327 N 
ATOM     17  H   UNL     1      -1.116 -16.800  -0.327  0.00  0.00    +0.145 HD
ATOM     18  H   UNL     1       0.538 -16.507  -0.291  0.00  0.00    +0.145 HD
ENDBRANCH   9  10
BRANCH   1  22
ATOM     19  N   UNL     1       1.215  -3.902   2.291  0.00  0.00    +0.380 N 
ATOM     20  C   UNL     1       2.089  -4.371   1.208  0.00  0.00    -0.078 C 
ATOM     21  C   UNL     1       1.875  -5.870   0.988  0.00  0.00    -0.011 C 
ATOM     22  C   UNL     1       2.209  -6.623   2.279  0.00  0.00    +0.016 C 
ATOM     23  C   UNL     1       1.344  -6.074   3.417  0.00  0.00    -0.011 C 
ATOM     24  C   UNL     1       1.578  -4.567   3.548  0.00  0.00    -0.078 C 
ATOM     25  H   UNL     1       0.256  -4.116   2.062  0.00  0.00    -0.082 HD
BRANCH  19  26
ATOM     26  C   UNL     1       1.367  -2.449   2.446  0.00  0.00    -0.076 C 
BRANCH  26  27
ATOM     27  C   UNL     1       0.345  -1.935   3.461  0.00  0.00    -0.031 C 
ATOM     28  C   UNL     1      -1.068  -2.135   2.909  0.00  0.00    +0.005 C 
BRANCH  27  29
ATOM     29  C   UNL     1       0.586  -0.446   3.719  0.00  0.00    +0.001 C 
BRANCH  29  31
ATOM     30  C   UNL     1      -0.112   1.528   5.082  0.00  0.00    +0.004 C 
ATOM     31  C   UNL     1      -0.353   0.039   4.825  0.00  0.00    -0.003 C 
ENDBRANCH  29  31
ENDBRANCH  27  29
ENDBRANCH  26  27
ENDBRANCH  19  26
ENDBRANCH   1  22
BRANCH   8  32
ATOM     32  C   UNL     1       3.180 -13.940   1.878  0.00  0.00    +0.003 A 
ATOM     33  C   UNL     1       2.357 -14.977   2.316  0.00  0.00    +0.013 A 
ATOM     34  C   UNL     1       2.823 -16.275   2.305  0.00  0.00    +0.039 A 
ATOM     35  C   UNL     1       4.106 -16.549   1.862  0.00  0.00    +0.123 A 
ATOM     36  C   UNL     1       4.928 -15.522   1.426  0.00  0.00    +0.039 A 
ATOM     37  C   UNL     1       4.469 -14.221   1.427  0.00  0.00    +0.013 A 
ATOM     38  F   UNL     1       4.558 -17.823   1.854  0.00  0.00    -0.205 F 
ENDBRANCH   8  32
TORSDOF 7
