REMARK  Name = ZINC65335102
REMARK  3 active torsions:
REMARK  status: ('A' for Active; 'I' for Inactive)
REMARK    1  A    between atoms: N_4  and  C_6
REMARK    2  A    between atoms: C_14  and  C_16
REMARK    3  A    between atoms: N_18  and  N_19
REMARK                            x       y       z     vdW  Elec       q    Type
REMARK                         _______ _______ _______ _____ _____    ______ ____
ROOT
ATOM      1  C   UNL     1       1.760  -1.804  -0.025  0.00  0.00    +0.148 C 
ATOM      2  C   UNL     1       1.175  -2.546  -1.228  0.00  0.00    +0.009 A 
ATOM      3  C   UNL     1       1.253  -2.401  -2.633  0.00  0.00    -0.030 A 
ATOM      4  C   UNL     1       0.567  -3.288  -3.393  0.00  0.00    -0.005 A 
ATOM      5  S   UNL     1      -0.206  -4.352  -2.206  0.00  0.00    -0.078 S 
ATOM      6  C   UNL     1       0.421  -3.560  -0.735  0.00  0.00    +0.072 A 
ATOM      7  N   UNL     1       0.398  -3.632   0.647  0.00  0.00    -0.325 N 
ATOM      8  C   UNL     1       1.225  -2.553   1.204  0.00  0.00    +0.186 C 
ATOM      9  C   UNL     1       0.489  -3.344  -4.885  0.00  0.00    +0.043 C 
ATOM     10  C   UNL     1       1.013  -2.012  -5.444  0.00  0.00    +0.005 C 
ATOM     11  C   UNL     1       2.334  -1.672  -4.747  0.00  0.00    +0.005 C 
ATOM     12  C   UNL     1       2.074  -1.293  -3.288  0.00  0.00    +0.036 C 
ATOM     13  H   UNL     1      -0.088  -4.292   1.166  0.00  0.00    +0.147 HD
ENDROOT
BRANCH   1  17
ATOM     14  C   UNL     1      -0.016   1.344   0.009  0.00  0.00    +0.019 A 
ATOM     15  C   UNL     1       1.322   1.784  -0.001  0.00  0.00    +0.019 A 
ATOM     16  C   UNL     1       2.107   0.688  -0.014  0.00  0.00    +0.086 A 
ATOM     17  N   UNL     1       1.303  -0.413  -0.013  0.00  0.00    -0.344 N 
ATOM     18  C   UNL     1       0.002  -0.004   0.002  0.00  0.00    +0.086 A 
ENDBRANCH   1  17
BRANCH   8  19
ATOM     19  C   UNL     1       0.387  -1.634   2.055  0.00  0.00    +0.249 C 
ATOM     20  O   UNL     1      -0.823  -1.674   1.982  0.00  0.00    -0.272 OA
ATOM     21  N   UNL     1       0.982  -0.767   2.899  0.00  0.00    -0.252 N 
ATOM     22  H   UNL     1       1.950  -0.735   2.958  0.00  0.00    +0.169 HD
BRANCH  21  23
ATOM     23  N   UNL     1       0.223   0.066   3.670  0.00  0.00    -0.254 NA
ATOM     24  H   UNL     1      -0.432  -0.458   4.231  0.00  0.00    +0.140 HD
ATOM     25  H   UNL     1       0.805   0.654   4.248  0.00  0.00    +0.140 HD
ENDBRANCH  21  23
ENDBRANCH   8  19
TORSDOF 3
