REMARK  Name = ZINC54165426
REMARK  10 active torsions:
REMARK  status: ('A' for Active; 'I' for Inactive)
REMARK    1  A    between atoms: C_1  and  C_2
REMARK    2  A    between atoms: C_6  and  O_8
REMARK    3  A    between atoms: O_8  and  C_9
REMARK    4  A    between atoms: C_9  and  C_10
REMARK    5  A    between atoms: C_10  and  C_12
REMARK    6  A    between atoms: C_10  and  N_13
REMARK    7  A    between atoms: C_14  and  C_16
REMARK    8  A    between atoms: C_16  and  C_18
REMARK    9  A    between atoms: C_16  and  N_29
REMARK   10  A    between atoms: C_18  and  C_19
REMARK                            x       y       z     vdW  Elec       q    Type
REMARK                         _______ _______ _______ _____ _____    ______ ____
ROOT
ATOM      1  C   UNL     1       3.099  -4.827   6.042  0.00  0.00    +0.165 C 
ENDROOT
BRANCH   1   2
ATOM      2  N   UNL     1       3.652  -6.004   6.716  0.00  0.00    -0.288 N 
ATOM      3  C   UNL     1       2.939  -6.630   7.673  0.00  0.00    +0.298 C 
ATOM      4  O   UNL     1       1.837  -6.218   7.977  0.00  0.00    -0.253 OA
ATOM      5  N   UNL     1       3.449  -7.713   8.293  0.00  0.00    -0.313 N 
ATOM      6  H   UNL     1       4.532  -6.333   6.473  0.00  0.00    +0.151 HD
ATOM      7  H   UNL     1       4.329  -8.041   8.050  0.00  0.00    +0.146 HD
ATOM      8  H   UNL     1       2.936  -8.163   8.982  0.00  0.00    +0.146 HD
ENDBRANCH   1   2
BRANCH   1  10
ATOM      9  N   UNL     1       1.333  -4.432   4.355  0.00  0.00    -0.308 N 
ATOM     10  C   UNL     1       1.812  -5.202   5.351  0.00  0.00    +0.234 C 
ATOM     11  O   UNL     1       1.209  -6.197   5.692  0.00  0.00    -0.274 OA
ATOM     12  H   UNL     1       1.816  -3.636   4.082  0.00  0.00    +0.149 HD
BRANCH   9  13
ATOM     13  C   UNL     1       0.083  -4.796   3.683  0.00  0.00    +0.107 C 
ATOM     14  C   UNL     1      -1.103  -4.248   4.480  0.00  0.00    +0.031 C 
BRANCH  13  15
ATOM     15  C   UNL     1       0.069  -4.202   2.274  0.00  0.00    +0.251 C 
BRANCH  15  16
ATOM     16  O   UNL     1       0.050  -2.776   2.358  0.00  0.00    -0.490 OA
BRANCH  16  22
ATOM     17  C   UNL     1      -0.018   1.503   0.010  0.00  0.00    +0.044 C 
ATOM     18  C   UNL     1       0.002  -0.004   0.002  0.00  0.00    -0.047 A 
ATOM     19  C   UNL     1       0.006  -0.688  -1.200  0.00  0.00    +0.003 A 
ATOM     20  C   UNL     1       0.024  -2.071  -1.211  0.00  0.00    +0.004 A 
ATOM     21  C   UNL     1       0.039  -2.772  -0.020  0.00  0.00    +0.045 A 
ATOM     22  C   UNL     1       0.035  -2.088   1.186  0.00  0.00    +0.121 A 
ATOM     23  C   UNL     1       0.023  -0.700   1.195  0.00  0.00    +0.049 A 
ENDBRANCH  16  22
ENDBRANCH  15  16
ENDBRANCH  13  15
ENDBRANCH   9  13
ENDBRANCH   1  10
BRANCH   1  24
ATOM     24  C   UNL     1       2.823  -3.731   7.073  0.00  0.00    +0.069 C 
BRANCH  24  25
ATOM     25  C   UNL     1       4.125  -3.269   7.676  0.00  0.00    -0.020 A 
ATOM     26  C   UNL     1       4.679  -3.714   8.815  0.00  0.00    +0.087 A 
ATOM     27  N   UNL     1       5.861  -3.063   9.043  0.00  0.00    -0.360 N 
ATOM     28  H   UNL     1       6.442  -3.215   9.805  0.00  0.00    +0.165 HD
ATOM     29  C   UNL     1       6.102  -2.161   8.031  0.00  0.00    +0.047 A 
ATOM     30  C   UNL     1       5.028  -2.255   7.127  0.00  0.00    +0.003 A 
ATOM     31  C   UNL     1       5.005  -1.451   5.986  0.00  0.00    +0.010 A 
ATOM     32  C   UNL     1       6.030  -0.578   5.751  0.00  0.00    +0.001 A 
ATOM     33  C   UNL     1       7.094  -0.485   6.638  0.00  0.00    +0.002 A 
ATOM     34  C   UNL     1       7.131  -1.262   7.775  0.00  0.00    +0.026 A 
ENDBRANCH  24  25
ENDBRANCH   1  24
TORSDOF 8
