REMARK  Name = ZINC64000201
REMARK  12 active torsions:
REMARK  status: ('A' for Active; 'I' for Inactive)
REMARK    1  A    between atoms: C_1  and  C_2
REMARK    2  A    between atoms: C_2  and  C_3
REMARK    3  A    between atoms: C_3  and  N_4
REMARK    4  A    between atoms: N_4  and  C_5
REMARK    5  A    between atoms: C_5  and  C_6
REMARK    6  A    between atoms: C_10  and  C_12
REMARK    7  A    between atoms: C_17  and  C_19
REMARK    8  A    between atoms: C_19  and  C_20
REMARK    9  A    between atoms: C_20  and  C_21
REMARK   10  A    between atoms: C_29  and  C_31
REMARK   11  A    between atoms: C_34  and  O_37
REMARK   12  A    between atoms: O_37  and  C_38
REMARK                            x       y       z     vdW  Elec       q    Type
REMARK                         _______ _______ _______ _____ _____    ______ ____
ROOT
ATOM      1  C   UNL     1      -1.438  -1.906  -2.467  0.00  0.00    +0.100 C 
ENDROOT
BRANCH   1   3
ATOM      2  N   UNL     1      -1.413  -1.998   0.005  0.00  0.00    -0.296 N 
ATOM      3  C   UNL     1      -1.415  -2.666  -1.166  0.00  0.00    +0.216 C 
ATOM      4  O   UNL     1      -1.399  -3.879  -1.173  0.00  0.00    -0.276 OA
BRANCH   2   5
ATOM      5  C   UNL     1      -1.433  -0.534   0.013  0.00  0.00    +0.107 C 
BRANCH   5   7
ATOM      6  C   UNL     1      -0.019   1.526   0.010  0.00  0.00    +0.005 C 
ATOM      7  C   UNL     1       0.002  -0.004   0.002  0.00  0.00    +0.016 C 
ENDBRANCH   5   7
ENDBRANCH   2   5
BRANCH   2   8
ATOM      8  C   UNL     1      -1.391  -2.738   1.269  0.00  0.00    +0.174 C 
BRANCH   8   9
ATOM      9  C   UNL     1      -2.826  -3.015   1.723  0.00  0.00    +0.295 C 
ATOM     10  N   UNL     1      -3.554  -3.778   0.695  0.00  0.00    -0.226 N 
ATOM     11  N   UNL     1      -4.623  -2.957   0.307  0.00  0.00    -0.143 NA
ATOM     12  C   UNL     1      -4.598  -1.845   0.970  0.00  0.00    +0.275 C 
ATOM     13  O   UNL     1      -3.560  -1.788   1.843  0.00  0.00    -0.448 OA
ATOM     14  H   UNL     1      -3.339  -4.661   0.356  0.00  0.00    +0.172 HD
BRANCH  12  15
ATOM     15  C   UNL     1      -5.584  -0.767   0.798  0.00  0.00    +0.190 A 
ATOM     16  C   UNL     1      -6.645  -0.781  -0.057  0.00  0.00    +0.055 A 
ATOM     17  C   UNL     1      -7.315   0.446   0.108  0.00  0.00    +0.042 A 
ATOM     18  C   UNL     1      -6.641   1.142   1.045  0.00  0.00    +0.196 A 
ATOM     19  O   UNL     1      -5.599   0.405   1.464  0.00  0.00    -0.458 OA
ENDBRANCH  12  15
ENDBRANCH   8   9
ENDBRANCH   2   8
ENDBRANCH   1   3
BRANCH   1  20
ATOM     20  C   UNL     1      -1.436  -2.893  -3.635  0.00  0.00    +0.043 C 
BRANCH  20  21
ATOM     21  C   UNL     1      -1.458  -2.133  -4.936  0.00  0.00    -0.034 C 
ATOM     22  C   UNL     1      -1.472  -0.790  -5.093  0.00  0.00    -0.000 A 
ATOM     23  C   UNL     1      -1.472   0.323  -4.135  0.00  0.00    +0.010 A 
ATOM     24  C   UNL     1      -1.489   1.591  -4.604  0.00  0.00    +0.001 A 
ATOM     25  C   UNL     1      -1.508   1.870  -5.978  0.00  0.00    +0.002 A 
ATOM     26  C   UNL     1      -1.510   0.901  -6.918  0.00  0.00    +0.026 A 
ATOM     27  C   UNL     1      -1.492  -0.469  -6.538  0.00  0.00    +0.043 A 
ATOM     28  N   UNL     1      -1.491  -1.572  -7.247  0.00  0.00    -0.374 N 
ATOM     29  C   UNL     1      -1.464  -2.717  -6.331  0.00  0.00    +0.137 C 
ATOM     30  H   UNL     1      -1.502  -1.622  -8.216  0.00  0.00    +0.161 HD
BRANCH  29  31
ATOM     31  C   UNL     1      -0.219  -3.537  -6.556  0.00  0.00    -0.021 A 
ATOM     32  C   UNL     1       0.974  -2.909  -6.864  0.00  0.00    +0.009 A 
ATOM     33  C   UNL     1       2.116  -3.658  -7.071  0.00  0.00    +0.046 A 
ATOM     34  C   UNL     1       2.066  -5.040  -6.969  0.00  0.00    +0.120 A 
ATOM     35  C   UNL     1       0.868  -5.668  -6.659  0.00  0.00    +0.046 A 
ATOM     36  C   UNL     1      -0.270  -4.914  -6.448  0.00  0.00    +0.009 A 
BRANCH  34  37
ATOM     37  O   UNL     1       3.189  -5.779  -7.172  0.00  0.00    -0.495 OA
ATOM     38  C   UNL     1       3.063  -7.197  -7.051  0.00  0.00    +0.277 C 
ENDBRANCH  34  37
ENDBRANCH  29  31
ENDBRANCH  20  21
ENDBRANCH   1  20
TORSDOF 10
