REMARK  Name = ZINC09023446
REMARK  9 active torsions:
REMARK  status: ('A' for Active; 'I' for Inactive)
REMARK    1  A    between atoms: C_1  and  C_2
REMARK    2  A    between atoms: C_2  and  N_3
REMARK    3  A    between atoms: C_7  and  C_9
REMARK    4  A    between atoms: C_9  and  C_11
REMARK    5  A    between atoms: C_9  and  S_12
REMARK    6  A    between atoms: S_12  and  C_13
REMARK    7  A    between atoms: C_16  and  C_28
REMARK    8  A    between atoms: N_17  and  C_18
REMARK    9  A    between atoms: C_23  and  C_24
REMARK                            x       y       z     vdW  Elec       q    Type
REMARK                         _______ _______ _______ _____ _____    ______ ____
ROOT
ATOM      1  C   UNL     1       4.601   0.583  -0.200  0.00  0.00    +0.197 A 
ATOM      2  N   UNL     1       3.916  -0.486   0.140  0.00  0.00    -0.122 NA
ATOM      3  N   UNL     1       2.670  -0.195   0.253  0.00  0.00    -0.128 NA
ATOM      4  C   UNL     1       2.478   1.075  -0.016  0.00  0.00    +0.169 A 
ATOM      5  N   UNL     1       3.711   1.616  -0.312  0.00  0.00    -0.270 N 
ENDROOT
BRANCH   4   6
ATOM      6  C   UNL     1       1.185   1.792   0.000  0.00  0.00    +0.021 A 
ATOM      7  C   UNL     1       1.158   3.188   0.008  0.00  0.00    +0.012 A 
ATOM      8  C   UNL     1      -0.052   3.851   0.023  0.00  0.00    +0.002 A 
ATOM      9  C   UNL     1      -1.236   3.136   0.030  0.00  0.00    +0.020 A 
ATOM     10  C   UNL     1      -1.217   1.752   0.017  0.00  0.00    +0.042 A 
ATOM     11  C   UNL     1      -0.013   1.076   0.008  0.00  0.00    +0.031 A 
ATOM     12 CL   UNL     1      -2.709   0.864   0.019  0.00  0.00    -0.084 Cl
ENDBRANCH   4   6
BRANCH   5  13
ATOM     13  C   UNL     1       3.993   2.945  -0.656  0.00  0.00    +0.062 A 
ATOM     14  C   UNL     1       4.295   3.870   0.334  0.00  0.00    +0.027 A 
ATOM     15  C   UNL     1       4.573   5.179  -0.007  0.00  0.00    +0.002 A 
ATOM     16  C   UNL     1       4.551   5.568  -1.334  0.00  0.00    +0.001 A 
ATOM     17  C   UNL     1       4.251   4.649  -2.322  0.00  0.00    +0.014 A 
ATOM     18  C   UNL     1       3.976   3.337  -1.987  0.00  0.00    +0.079 A 
BRANCH  18  19
ATOM     19  C   UNL     1       3.655   2.335  -3.065  0.00  0.00    +0.419 C 
ATOM     20  F   UNL     1       3.700   2.963  -4.315  0.00  0.00    -0.166 F 
ATOM     21  F   UNL     1       4.591   1.296  -3.031  0.00  0.00    -0.166 F 
ATOM     22  F   UNL     1       2.374   1.815  -2.851  0.00  0.00    -0.166 F 
ENDBRANCH  18  19
ENDBRANCH   5  13
BRANCH   1  23
ATOM     23  S   UNL     1       6.341   0.670  -0.463  0.00  0.00    -0.073 S 
BRANCH  23  24
ATOM     24  C   UNL     1       6.795  -1.050  -0.134  0.00  0.00    +0.137 C 
ATOM     25  C   UNL     1       6.163  -1.957  -1.191  0.00  0.00    +0.029 C 
BRANCH  24  30
ATOM     26  N   UNL     1      10.830  -3.425   0.961  0.00  0.00    -0.299 N 
ATOM     27  C   UNL     1      10.233  -2.372   0.367  0.00  0.00    +0.306 C 
ATOM     28  O   UNL     1      10.904  -1.537  -0.207  0.00  0.00    -0.252 OA
ATOM     29  N   UNL     1       8.892  -2.245   0.411  0.00  0.00    -0.239 N 
ATOM     30  C   UNL     1       8.295  -1.192  -0.182  0.00  0.00    +0.233 C 
ATOM     31  O   UNL     1       8.964  -0.360  -0.755  0.00  0.00    -0.274 OA
ATOM     32  H   UNL     1      10.294  -4.091   1.419  0.00  0.00    +0.150 HD
ATOM     33  H   UNL     1       8.356  -2.911   0.869  0.00  0.00    +0.159 HD
BRANCH  26  35
ATOM     34  C   UNL     1      12.704  -4.833   1.657  0.00  0.00    +0.024 C 
ATOM     35  C   UNL     1      12.288  -3.562   0.913  0.00  0.00    +0.102 C 
ENDBRANCH  26  35
ENDBRANCH  24  30
ENDBRANCH  23  24
ENDBRANCH   1  23
TORSDOF 7
