REMARK  Name = ZINC08821952
REMARK  7 active torsions:
REMARK  status: ('A' for Active; 'I' for Inactive)
REMARK    1  A    between atoms: C_4  and  N_30
REMARK    2  A    between atoms: C_5  and  C_7
REMARK    3  A    between atoms: C_13  and  S_15
REMARK    4  A    between atoms: S_15  and  C_16
REMARK    5  A    between atoms: C_16  and  C_17
REMARK    6  A    between atoms: N_19  and  C_20
REMARK    7  A    between atoms: C_23  and  C_26
REMARK                            x       y       z     vdW  Elec       q    Type
REMARK                         _______ _______ _______ _____ _____    ______ ____
ROOT
ATOM      1  C   UNL     1       2.836   0.177  -6.525  0.00  0.00    +0.252 C 
ATOM      2  O   UNL     1       3.284  -0.199  -5.459  0.00  0.00    -0.270 OA
ATOM      3  N   UNL     1       1.907   1.153  -6.558  0.00  0.00    -0.259 N 
ATOM      4  C   UNL     1       1.462   1.731  -5.373  0.00  0.00    +0.189 A 
ATOM      5  N   UNL     1       1.808   1.479  -4.121  0.00  0.00    -0.125 NA
ATOM      6  N   UNL     1       1.302   2.102  -3.149  0.00  0.00    -0.133 NA
ATOM      7  C   UNL     1       0.390   3.048  -3.321  0.00  0.00    +0.160 A 
ATOM      8  S   UNL     1       0.251   3.023  -5.106  0.00  0.00    -0.024 S 
ATOM      9  H   UNL     1       1.550   1.454  -7.408  0.00  0.00    +0.157 HD
ENDROOT
BRANCH   1  14
ATOM     10  C   UNL     1       4.270  -0.214  -9.973  0.00  0.00    +0.001 A 
ATOM     11  C   UNL     1       4.195  -1.586 -10.142  0.00  0.00    +0.002 A 
ATOM     12  C   UNL     1       3.679  -2.385  -9.138  0.00  0.00    +0.033 A 
ATOM     13  C   UNL     1       3.236  -1.819  -7.960  0.00  0.00    +0.138 A 
ATOM     14  C   UNL     1       3.309  -0.436  -7.783  0.00  0.00    +0.067 A 
ATOM     15  C   UNL     1       3.825   0.365  -8.803  0.00  0.00    +0.015 A 
BRANCH  13  16
ATOM     16  N   UNL     1       2.683  -2.676  -6.887  0.00  0.00    +0.057 N 
ATOM     17  O   UNL     1       2.731  -3.888  -6.991  0.00  0.00    -0.126 OA
ATOM     18  O   UNL     1       2.182  -2.168  -5.900  0.00  0.00    -0.126 OA
ENDBRANCH  13  16
ENDBRANCH   1  14
BRANCH   7  19
ATOM     19  S   UNL     1      -0.450   4.042  -2.134  0.00  0.00    -0.088 S 
BRANCH  19  20
ATOM     20  C   UNL     1       0.217   3.482  -0.542  0.00  0.00    +0.172 C 
BRANCH  20  21
ATOM     21  C   UNL     1      -0.427   4.262   0.575  0.00  0.00    +0.227 C 
ATOM     22  O   UNL     1      -1.254   5.112   0.322  0.00  0.00    -0.275 OA
ATOM     23  N   UNL     1      -0.083   4.015   1.854  0.00  0.00    -0.285 N 
ATOM     24  H   UNL     1       0.632   3.390   2.053  0.00  0.00    +0.155 HD
BRANCH  23  25
ATOM     25  C   UNL     1      -0.757   4.661   2.897  0.00  0.00    +0.033 A 
ATOM     26  C   UNL     1      -0.081   4.990   4.064  0.00  0.00    +0.024 A 
ATOM     27  C   UNL     1      -0.747   5.632   5.089  0.00  0.00    +0.014 A 
ATOM     28  C   UNL     1      -2.090   5.938   4.958  0.00  0.00    +0.055 A 
ATOM     29  C   UNL     1      -2.767   5.607   3.799  0.00  0.00    +0.014 A 
ATOM     30  C   UNL     1      -2.105   4.969   2.768  0.00  0.00    +0.024 A 
BRANCH  28  31
ATOM     31  C   UNL     1      -2.816   6.633   6.081  0.00  0.00    +0.417 C 
ATOM     32  F   UNL     1      -3.357   5.677   6.948  0.00  0.00    -0.166 F 
ATOM     33  F   UNL     1      -1.919   7.445   6.784  0.00  0.00    -0.166 F 
ATOM     34  F   UNL     1      -3.844   7.421   5.554  0.00  0.00    -0.166 F 
ENDBRANCH  28  31
ENDBRANCH  23  25
ENDBRANCH  20  21
ENDBRANCH  19  20
ENDBRANCH   7  19
TORSDOF 7
