REMARK  Name = ZINC39631492
REMARK  11 active torsions:
REMARK  status: ('A' for Active; 'I' for Inactive)
REMARK    1  A    between atoms: C_1  and  C_2
REMARK    2  A    between atoms: C_2  and  C_4
REMARK    3  A    between atoms: C_2  and  N_11
REMARK    4  A    between atoms: C_4  and  C_5
REMARK    5  A    between atoms: C_5  and  C_6
REMARK    6  A    between atoms: C_6  and  C_7
REMARK    7  A    between atoms: C_7  and  C_8
REMARK    8  A    between atoms: C_7  and  C_9
REMARK    9  A    between atoms: C_7  and  O_10
REMARK   10  A    between atoms: C_12  and  C_14
REMARK   11  A    between atoms: C_25  and  C_27
REMARK                            x       y       z     vdW  Elec       q    Type
REMARK                         _______ _______ _______ _____ _____    ______ ____
ROOT
ATOM      1  C   UNL     1      -2.980  -1.548  -1.335  0.00  0.00    +0.100 C 
ATOM      2  C   UNL     1      -3.287  -2.940  -0.738  0.00  0.00    +0.121 C 
ATOM      3  N   UNL     1      -4.375  -3.479  -1.587  0.00  0.00    -0.296 N 
ATOM      4  C   UNL     1      -4.014  -3.058  -2.961  0.00  0.00    +0.115 C 
ATOM      5  C   UNL     1      -3.458  -1.630  -2.795  0.00  0.00    -0.004 C 
ATOM      6  C   UNL     1      -2.287  -1.406  -3.747  0.00  0.00    -0.010 C 
ATOM      7  C   UNL     1      -2.797  -1.434  -5.191  0.00  0.00    -0.082 C 
ATOM      8  N   UNL     1      -3.811  -0.389  -5.374  0.00  0.00    +0.379 N 
ATOM      9  C   UNL     1      -4.974  -0.663  -4.521  0.00  0.00    -0.082 C 
ATOM     10  C   UNL     1      -4.556  -0.603  -3.050  0.00  0.00    -0.010 C 
ATOM     11  C   UNL     1      -5.451  -4.192  -1.196  0.00  0.00    +0.247 C 
ATOM     12  O   UNL     1      -5.669  -4.365  -0.013  0.00  0.00    -0.270 OA
ATOM     13  H   UNL     1      -3.418   0.507  -5.126  0.00  0.00    -0.086 HD
ATOM     14  H   UNL     1      -4.101  -0.369  -6.340  0.00  0.00    -0.086 HD
ENDROOT
BRANCH  11  15
ATOM     15  C   UNL     1      -6.366  -4.762  -2.208  0.00  0.00    +0.037 A 
ATOM     16  C   UNL     1      -5.923  -4.969  -3.515  0.00  0.00    +0.014 A 
ATOM     17  C   UNL     1      -6.782  -5.502  -4.454  0.00  0.00    +0.016 A 
ATOM     18  C   UNL     1      -8.080  -5.831  -4.102  0.00  0.00    +0.018 A 
ATOM     19  C   UNL     1      -8.524  -5.628  -2.807  0.00  0.00    +0.016 A 
ATOM     20  C   UNL     1      -7.674  -5.101  -1.857  0.00  0.00    +0.014 A 
ATOM     21 BR   UNL     1      -9.250  -6.561  -5.396  0.00  0.00    -0.050 Br
ENDBRANCH  11  15
BRANCH   1  23
ATOM     22  N   UNL     1      -1.056  -0.000  -1.189  0.00  0.00    -0.312 N 
ATOM     23  C   UNL     1      -1.500  -1.269  -1.282  0.00  0.00    +0.218 C 
ATOM     24  O   UNL     1      -0.708  -2.187  -1.324  0.00  0.00    -0.275 OA
ATOM     25  H   UNL     1      -1.689   0.734  -1.156  0.00  0.00    +0.149 HD
BRANCH  22  27
ATOM     26  C   UNL     1       0.941   0.336  -2.561  0.00  0.00    +0.028 C 
ATOM     27  C   UNL     1       0.383   0.271  -1.138  0.00  0.00    +0.070 C 
BRANCH  27  28
ATOM     28  C   UNL     1       0.625   1.607  -0.433  0.00  0.00    +0.022 C 
BRANCH  28  29
ATOM     29  C   UNL     1       0.181   1.502   1.027  0.00  0.00    +0.005 C 
BRANCH  29  30
ATOM     30  C   UNL     1       0.424   2.839   1.731  0.00  0.00    +0.034 C 
BRANCH  30  31
ATOM     31  C   UNL     1      -0.021   2.734   3.191  0.00  0.00    +0.061 C 
ATOM     32  C   UNL     1       0.105   4.103   3.862  0.00  0.00    +0.041 C 
ATOM     33  C   UNL     1      -1.477   2.269   3.249  0.00  0.00    +0.041 C 
BRANCH  31  34
ATOM     34  O   UNL     1       0.807   1.791   3.875  0.00  0.00    -0.389 OA
ATOM     35  H   UNL     1       1.746   2.022   3.878  0.00  0.00    +0.210 HD
ENDBRANCH  31  34
ENDBRANCH  30  31
ENDBRANCH  29  30
ENDBRANCH  28  29
ENDBRANCH  27  28
ENDBRANCH  22  27
ENDBRANCH   1  23
TORSDOF 8
