REMARK  Name = ZINC38959947
REMARK  5 active torsions:
REMARK  status: ('A' for Active; 'I' for Inactive)
REMARK    1  A    between atoms: C_1  and  C_2
REMARK    2  A    between atoms: C_7  and  N_8
REMARK    3  A    between atoms: C_9  and  S_34
REMARK    4  A    between atoms: C_12  and  O_33
REMARK    5  A    between atoms: C_14  and  C_18
REMARK                            x       y       z     vdW  Elec       q    Type
REMARK                         _______ _______ _______ _____ _____    ______ ____
ROOT
ATOM      1  N   UNL     1      -0.506   0.203   2.499  0.00  0.00    -0.246 N 
ATOM      2  C   UNL     1      -1.699   0.259   3.336  0.00  0.00    +0.208 C 
ATOM      3  N   UNL     1      -1.333   0.418   4.748  0.00  0.00    -0.264 NA
ATOM      4  C   UNL     1      -0.417   1.559   4.916  0.00  0.00    +0.198 C 
ATOM      5  C   UNL     1       0.927   1.200   4.276  0.00  0.00    +0.141 C 
ATOM      6  C   UNL     1       0.693   0.636   2.901  0.00  0.00    +0.230 C 
ATOM      7  O   UNL     1       1.626   0.576   2.128  0.00  0.00    -0.275 OA
ATOM      8  H   UNL     1      -2.153   0.525   5.325  0.00  0.00    +0.127 HD
ENDROOT
BRANCH   5   9
ATOM      9  C   UNL     1       1.795   2.456   4.175  0.00  0.00    +0.117 C 
ATOM     10  C   UNL     1       1.981   3.056   5.549  0.00  0.00    +0.038 A 
ATOM     11  H   UNL     1       2.372   1.431   6.793  0.00  0.00    +0.166 HD
ATOM     12  C   UNL     1       1.889   4.383   5.792  0.00  0.00    -0.016 A 
ATOM     13  C   UNL     1       2.122   4.576   7.206  0.00  0.00    +0.003 A 
ATOM     14  C   UNL     1       2.150   5.714   8.018  0.00  0.00    +0.010 A 
ATOM     15  C   UNL     1       2.409   5.518   9.352  0.00  0.00    +0.001 A 
ATOM     16  C   UNL     1       2.633   4.258   9.881  0.00  0.00    +0.002 A 
ATOM     17  C   UNL     1       2.611   3.115   9.101  0.00  0.00    +0.026 A 
ATOM     18  C   UNL     1       2.351   3.282   7.743  0.00  0.00    +0.047 A 
ATOM     19  N   UNL     1       2.258   2.391   6.712  0.00  0.00    -0.356 N 
ATOM     20  C   UNL     1       1.596   5.406   4.723  0.00  0.00    +0.052 C 
ATOM     21  C   UNL     1       1.826   4.744   3.358  0.00  0.00    +0.086 C 
ATOM     22  N   UNL     1       1.132   3.448   3.314  0.00  0.00    -0.307 NA
ATOM     23  H   UNL     1       1.052   3.109   2.367  0.00  0.00    +0.123 HD
ENDBRANCH   5   9
BRANCH   1  30
ATOM     24  C   UNL     1      -0.296  -2.620   2.202  0.00  0.00    +0.045 C 
ATOM     25  C   UNL     1      -0.524  -1.709   1.023  0.00  0.00    -0.029 A 
ATOM     26  C   UNL     1      -0.644  -2.239  -0.247  0.00  0.00    +0.005 A 
ATOM     27  C   UNL     1      -0.854  -1.404  -1.329  0.00  0.00    +0.000 A 
ATOM     28  C   UNL     1      -0.946  -0.037  -1.143  0.00  0.00    +0.002 A 
ATOM     29  C   UNL     1      -0.827   0.499   0.124  0.00  0.00    +0.024 A 
ATOM     30  C   UNL     1      -0.621  -0.337   1.213  0.00  0.00    +0.042 A 
ENDBRANCH   1  30
BRANCH   4  31
ATOM     31  O   UNL     1      -0.966   2.713   4.276  0.00  0.00    -0.376 OA
ATOM     32  H   UNL     1      -1.826   2.985   4.625  0.00  0.00    +0.211 HD
ENDBRANCH   4  31
BRANCH   2  33
ATOM     33  S   UNL     1      -2.724   1.665   2.823  0.00  0.00    -0.140 S 
ATOM     34  H   UNL     1      -3.781   1.617   3.653  0.00  0.00    +0.105 HD
ENDBRANCH   2  33
TORSDOF 4
