REMARK  Name = ZINC59474844
REMARK  8 active torsions:
REMARK  status: ('A' for Active; 'I' for Inactive)
REMARK    1  A    between atoms: C_3  and  N_30
REMARK    2  A    between atoms: C_6  and  C_7
REMARK    3  A    between atoms: N_8  and  C_9
REMARK    4  A    between atoms: C_16  and  S_18
REMARK    5  A    between atoms: S_18  and  C_19
REMARK    6  A    between atoms: C_19  and  C_20
REMARK    7  A    between atoms: N_22  and  C_23
REMARK    8  A    between atoms: C_23  and  C_24
REMARK                            x       y       z     vdW  Elec       q    Type
REMARK                         _______ _______ _______ _____ _____    ______ ____
ROOT
ATOM      1  C   UNL     1      -2.412  -2.767   0.010  0.00  0.00    +0.065 A 
ATOM      2  C   UNL     1      -3.455  -2.402   0.872  0.00  0.00    +0.030 A 
ATOM      3  C   UNL     1      -4.627  -3.086   0.895  0.00  0.00    +0.031 A 
ATOM      4  C   UNL     1      -4.840  -4.199   0.046  0.00  0.00    +0.080 A 
ATOM      5  C   UNL     1      -3.773  -4.548  -0.815  0.00  0.00    +0.042 A 
ATOM      6  C   UNL     1      -2.591  -3.858  -0.846  0.00  0.00    +0.045 A 
ATOM      7  S   UNL     1      -4.430  -5.952  -1.684  0.00  0.00    -0.061 S 
ATOM      8  C   UNL     1      -6.026  -5.987  -0.879  0.00  0.00    +0.136 A 
ATOM      9  N   UNL     1      -5.942  -4.973  -0.046  0.00  0.00    -0.233 NA
ENDROOT
BRANCH   1  11
ATOM     10  C   UNL     1      -1.261  -0.761   0.010  0.00  0.00    +0.119 C 
ATOM     11  N   UNL     1      -1.239  -2.064   0.003  0.00  0.00    -0.255 NA
BRANCH  10  17
ATOM     12  C   UNL     1      -0.017   1.394   0.010  0.00  0.00    +0.011 A 
ATOM     13  C   UNL     1       1.170   2.096   0.002  0.00  0.00    +0.033 A 
ATOM     14  C   UNL     1       2.378   1.420  -0.013  0.00  0.00    +0.126 A 
ATOM     15  C   UNL     1       2.405   0.037  -0.021  0.00  0.00    +0.033 A 
ATOM     16  C   UNL     1       1.226  -0.679  -0.014  0.00  0.00    +0.011 A 
ATOM     17  C   UNL     1       0.002  -0.004   0.002  0.00  0.00    -0.007 A 
BRANCH  14  18
ATOM     18  N   UNL     1       3.647   2.182  -0.021  0.00  0.00    +0.056 N 
ATOM     19  O   UNL     1       3.627   3.390  -0.015  0.00  0.00    -0.126 OA
ATOM     20  O   UNL     1       4.704   1.595  -0.035  0.00  0.00    -0.126 OA
ENDBRANCH  14  18
ENDBRANCH  10  17
ENDBRANCH   1  11
BRANCH   8  21
ATOM     21  S   UNL     1      -7.369  -7.098  -1.136  0.00  0.00    -0.089 S 
BRANCH  21  22
ATOM     22  C   UNL     1      -8.640  -6.527   0.025  0.00  0.00    +0.172 C 
BRANCH  22  23
ATOM     23  C   UNL     1      -9.860  -7.403  -0.095  0.00  0.00    +0.223 C 
ATOM     24  O   UNL     1      -9.871  -8.323  -0.885  0.00  0.00    -0.275 OA
ATOM     25  N   UNL     1     -10.939  -7.165   0.677  0.00  0.00    -0.312 N 
ATOM     26  H   UNL     1     -10.930  -6.429   1.309  0.00  0.00    +0.149 HD
BRANCH  25  27
ATOM     27  C   UNL     1     -12.125  -8.017   0.561  0.00  0.00    +0.135 C 
BRANCH  27  28
ATOM     28  C   UNL     1     -13.197  -7.535   1.540  0.00  0.00    +0.135 C 
ATOM     29  C   UNL     1     -14.449  -8.445   1.459  0.00  0.00    +0.035 C 
ATOM     30  C   UNL     1     -15.065  -8.226   2.867  0.00  0.00    +0.031 C 
ATOM     31  C   UNL     1     -13.810  -8.048   3.749  0.00  0.00    +0.160 C 
ATOM     32  O   UNL     1     -12.729  -7.657   2.893  0.00  0.00    -0.375 OA
ENDBRANCH  27  28
ENDBRANCH  25  27
ENDBRANCH  22  23
ENDBRANCH  21  22
ENDBRANCH   8  21
TORSDOF 8
