REMARK  Name = ZINC39538117
REMARK  13 active torsions:
REMARK  status: ('A' for Active; 'I' for Inactive)
REMARK    1  A    between atoms: C_1  and  C_2
REMARK    2  A    between atoms: C_2  and  C_3
REMARK    3  A    between atoms: C_2  and  C_4
REMARK    4  A    between atoms: C_4  and  C_5
REMARK    5  A    between atoms: C_10  and  N_30
REMARK    6  A    between atoms: C_12  and  C_16
REMARK    7  A    between atoms: N_14  and  C_15
REMARK    8  A    between atoms: N_18  and  C_19
REMARK    9  A    between atoms: C_19  and  C_20
REMARK   10  A    between atoms: N_30  and  S_31
REMARK   11  A    between atoms: S_31  and  N_34
REMARK   12  A    between atoms: N_34  and  C_35
REMARK   13  A    between atoms: N_34  and  C_36
REMARK                            x       y       z     vdW  Elec       q    Type
REMARK                         _______ _______ _______ _____ _____    ______ ____
ROOT
ATOM      1  C   UNL     1      -2.549  -2.640  -0.517  0.00  0.00    +0.158 C 
ATOM      2  N   UNL     1      -1.748  -2.916   0.682  0.00  0.00    -0.324 N 
ATOM      3  C   UNL     1      -2.616  -3.443   1.649  0.00  0.00    +0.052 A 
ATOM      4  C   UNL     1      -2.366  -3.866   2.947  0.00  0.00    +0.049 A 
ATOM      5  C   UNL     1      -3.396  -4.361   3.738  0.00  0.00    +0.052 A 
ATOM      6  C   UNL     1      -4.683  -4.437   3.236  0.00  0.00    +0.039 A 
ATOM      7  C   UNL     1      -4.948  -4.014   1.931  0.00  0.00    +0.061 A 
ATOM      8  C   UNL     1      -3.907  -3.514   1.133  0.00  0.00    +0.064 A 
ATOM      9  N   UNL     1      -3.921  -3.038  -0.181  0.00  0.00    -0.313 N 
ATOM     10  C   UNL     1      -5.088  -2.953  -1.062  0.00  0.00    +0.131 C 
ATOM     11  H   UNL     1      -0.796  -2.763   0.786  0.00  0.00    +0.148 HD
ENDROOT
BRANCH   7  12
ATOM     12  C   UNL     1      -6.319  -4.093   1.392  0.00  0.00    +0.246 C 
ATOM     13  O   UNL     1      -6.519  -4.623   0.317  0.00  0.00    -0.270 OA
ATOM     14  N   UNL     1      -7.348  -3.578   2.092  0.00  0.00    -0.306 N 
ATOM     15  H   UNL     1      -7.181  -3.092   2.915  0.00  0.00    +0.149 HD
BRANCH  14  16
ATOM     16  C   UNL     1      -8.721  -3.753   1.611  0.00  0.00    +0.157 C 
BRANCH  16  17
ATOM     17  C   UNL     1      -9.677  -3.088   2.568  0.00  0.00    +0.034 A 
ATOM     18  H   UNL     1      -9.987  -4.566   4.003  0.00  0.00    +0.166 HD
ATOM     19  C   UNL     1     -10.159  -1.842   2.435  0.00  0.00    +0.032 A 
ATOM     20  C   UNL     1     -11.046  -1.601   3.576  0.00  0.00    -0.000 A 
ATOM     21  C   UNL     1     -11.824  -0.519   3.988  0.00  0.00    +0.010 A 
ATOM     22  C   UNL     1     -12.562  -0.611   5.135  0.00  0.00    +0.001 A 
ATOM     23  C   UNL     1     -12.543  -1.773   5.894  0.00  0.00    +0.002 A 
ATOM     24  C   UNL     1     -11.781  -2.854   5.505  0.00  0.00    +0.026 A 
ATOM     25  C   UNL     1     -11.023  -2.782   4.341  0.00  0.00    +0.047 A 
ATOM     26  N   UNL     1     -10.187  -3.667   3.698  0.00  0.00    -0.357 N 
ENDBRANCH  16  17
ENDBRANCH  14  16
ENDBRANCH   7  12
BRANCH   5  27
ATOM     27  N   UNL     1      -3.131  -4.785   5.045  0.00  0.00    -0.206 N 
ATOM     28  H   UNL     1      -3.107  -5.733   5.252  0.00  0.00    +0.175 HD
BRANCH  27  29
ATOM     29  S   UNL     1      -2.857  -3.670   6.238  0.00  0.00    +0.111 S 
ATOM     30  O   UNL     1      -2.714  -4.398   7.450  0.00  0.00    -0.138 OA
ATOM     31  O   UNL     1      -1.848  -2.795   5.752  0.00  0.00    -0.138 OA
BRANCH  29  32
ATOM     32  N   UNL     1      -4.236  -2.766   6.389  0.00  0.00    -0.170 NA
ATOM     33  C   UNL     1      -5.243  -3.127   7.388  0.00  0.00    +0.132 C 
ATOM     34  C   UNL     1      -4.448  -1.603   5.522  0.00  0.00    +0.132 C 
ENDBRANCH  29  32
ENDBRANCH  27  29
ENDBRANCH   5  27
BRANCH   1  35
ATOM     35  C   UNL     1      -2.499  -1.148  -0.853  0.00  0.00    +0.045 C 
BRANCH  35  37
ATOM     36  C   UNL     1      -0.628  -1.472  -2.476  0.00  0.00    +0.007 C 
ATOM     37  C   UNL     1      -1.063  -0.750  -1.199  0.00  0.00    -0.014 C 
ATOM     38  C   UNL     1      -0.992   0.762  -1.419  0.00  0.00    +0.007 C 
ENDBRANCH  35  37
ENDBRANCH   1  35
TORSDOF 8
