REMARK  Name = ZINC16248443
REMARK  8 active torsions:
REMARK  status: ('A' for Active; 'I' for Inactive)
REMARK    1  A    between atoms: C_1  and  S_2
REMARK    2  A    between atoms: S_2  and  N_5
REMARK    3  A    between atoms: N_5  and  C_6
REMARK    4  A    between atoms: N_5  and  C_13
REMARK    5  A    between atoms: C_6  and  C_7
REMARK    6  A    between atoms: C_18  and  C_19
REMARK    7  A    between atoms: N_21  and  N_22
REMARK    8  A    between atoms: C_23  and  C_24
REMARK                            x       y       z     vdW  Elec       q    Type
REMARK                         _______ _______ _______ _____ _____    ______ ____
ROOT
ATOM      1  C   UNL     1       6.239  -3.035  -1.365  0.00  0.00    +0.265 C 
ATOM      2  O   UNL     1       6.273  -2.216  -0.466  0.00  0.00    -0.268 OA
ATOM      3  N   UNL     1       7.277  -3.875  -1.550  0.00  0.00    -0.203 N 
ATOM      4  H   UNL     1       7.284  -4.478  -2.310  0.00  0.00    +0.178 HD
ENDROOT
BRANCH   1  10
ATOM      5  C   UNL     1       4.243  -1.985  -2.431  0.00  0.00    +0.063 A 
ATOM      6  C   UNL     1       3.135  -2.070  -3.264  0.00  0.00    +0.025 A 
ATOM      7  C   UNL     1       2.851  -3.250  -3.919  0.00  0.00    +0.002 A 
ATOM      8  C   UNL     1       3.660  -4.362  -3.744  0.00  0.00    +0.001 A 
ATOM      9  C   UNL     1       4.760  -4.300  -2.917  0.00  0.00    +0.015 A 
ATOM     10  C   UNL     1       5.064  -3.109  -2.251  0.00  0.00    +0.061 A 
BRANCH   5  11
ATOM     11  N   UNL     1       4.534  -0.796  -1.775  0.00  0.00    -0.203 N 
BRANCH  11  13
ATOM     12  C   UNL     1       7.192  -0.085  -1.692  0.00  0.00    +0.218 C 
ATOM     13  S   UNL     1       5.588   0.287  -2.452  0.00  0.00    +0.043 S 
ATOM     14  O   UNL     1       5.612  -0.046  -3.834  0.00  0.00    -0.155 OA
ATOM     15  O   UNL     1       5.126   1.560  -2.022  0.00  0.00    -0.155 OA
ENDBRANCH  11  13
BRANCH  11  16
ATOM     16  C   UNL     1       3.909  -0.500  -0.483  0.00  0.00    +0.166 C 
BRANCH  16  17
ATOM     17  C   UNL     1       2.557   0.125  -0.712  0.00  0.00    -0.028 A 
ATOM     18  C   UNL     1       1.434  -0.675  -0.811  0.00  0.00    +0.005 A 
ATOM     19  C   UNL     1       0.193  -0.102  -1.020  0.00  0.00    +0.000 A 
ATOM     20  C   UNL     1       0.076   1.271  -1.130  0.00  0.00    +0.000 A 
ATOM     21  C   UNL     1       1.199   2.071  -1.030  0.00  0.00    +0.000 A 
ATOM     22  C   UNL     1       2.439   1.498  -0.821  0.00  0.00    +0.005 A 
ENDBRANCH  16  17
ENDBRANCH  11  16
ENDBRANCH   5  11
ENDBRANCH   1  10
BRANCH   3  23
ATOM     23  N   UNL     1       8.347  -3.877  -0.645  0.00  0.00    -0.187 NA
ATOM     24  C   UNL     1       9.395  -4.614  -0.877  0.00  0.00    +0.139 C 
BRANCH  24  25
ATOM     25  C   UNL     1       9.513  -5.341  -2.144  0.00  0.00    +0.010 A 
ATOM     26  C   UNL     1       9.707  -6.738  -2.150  0.00  0.00    -0.009 A 
ATOM     27  C   UNL     1       9.792  -7.463  -0.949  0.00  0.00    +0.009 A 
ATOM     28  C   UNL     1       9.980  -8.810  -0.989  0.00  0.00    +0.001 A 
ATOM     29  C   UNL     1      10.092  -9.497  -2.196  0.00  0.00    +0.001 A 
ATOM     30  C   UNL     1      10.008  -8.857  -3.392  0.00  0.00    +0.008 A 
ATOM     31  C   UNL     1       9.820  -7.458  -3.420  0.00  0.00    -0.017 A 
ATOM     32  C   UNL     1       9.746  -6.767  -4.630  0.00  0.00    +0.017 A 
ATOM     33  C   UNL     1       9.559  -5.385  -4.634  0.00  0.00    -0.017 A 
ATOM     34  C   UNL     1       9.440  -4.651  -3.372  0.00  0.00    -0.009 A 
ATOM     35  C   UNL     1       9.252  -3.259  -3.411  0.00  0.00    +0.009 A 
ATOM     36  C   UNL     1       9.186  -2.623  -4.612  0.00  0.00    +0.001 A 
ATOM     37  C   UNL     1       9.300  -3.319  -5.815  0.00  0.00    +0.001 A 
ATOM     38  C   UNL     1       9.482  -4.665  -5.845  0.00  0.00    +0.008 A 
ENDBRANCH  24  25
ENDBRANCH   3  23
TORSDOF 7
