REMARK  Name = ZINC40531171
REMARK  3 active torsions:
REMARK  status: ('A' for Active; 'I' for Inactive)
REMARK    1  A    between atoms: C_10  and  C_20
REMARK    2  A    between atoms: N_15  and  C_16
REMARK    3  A    between atoms: C_16  and  C_17
REMARK                            x       y       z     vdW  Elec       q    Type
REMARK                         _______ _______ _______ _____ _____    ______ ____
ROOT
ATOM      1  C   UNL     1      -0.053   1.499   0.001  0.00  0.00    +0.000 C 
ATOM      2  C   UNL     1       1.386   2.024  -0.011  0.00  0.00    +0.002 C 
ATOM      3  C   UNL     1       2.053   1.579  -1.312  0.00  0.00    +0.023 C 
ATOM      4  C   UNL     1       2.057   0.072  -1.438  0.00  0.00    +0.082 C 
ATOM      5  C   UNL     1       0.657  -0.548  -1.275  0.00  0.00    +0.012 C 
ATOM      6  C   UNL     1      -0.017  -0.027  -0.004  0.00  0.00    +0.005 C 
ATOM      7  C   UNL     1       1.036  -2.036  -1.000  0.00  0.00    +0.039 C 
ATOM      8  C   UNL     1       2.317  -1.907  -0.147  0.00  0.00    +0.191 C 
ATOM      9  N   UNL     1       2.887  -0.585  -0.425  0.00  0.00    -0.269 N 
ATOM     10  C   UNL     1       3.992  -0.070   0.150  0.00  0.00    +0.304 C 
ATOM     11  O   UNL     1       4.381   1.038  -0.166  0.00  0.00    -0.253 OA
ATOM     12  N   UNL     1       4.666  -0.784   1.073  0.00  0.00    -0.291 N 
ATOM     13  H   UNL     1       4.356  -1.667   1.325  0.00  0.00    +0.151 HD
ENDROOT
BRANCH   8  14
ATOM     14  C   UNL     1       1.973  -2.014   1.316  0.00  0.00    +0.376 C 
ATOM     15  O   UNL     1       1.515  -3.053   1.760  0.00  0.00    -0.244 OA
ATOM     16  O   UNL     1       2.152  -1.061   2.055  0.00  0.00    -0.244 OA
ENDBRANCH   8  14
BRANCH  12  17
ATOM     17  C   UNL     1       5.868  -0.224   1.698  0.00  0.00    +0.201 C 
BRANCH  17  18
ATOM     18  C   UNL     1       6.427  -1.214   2.686  0.00  0.00    +0.228 C 
ATOM     19  O   UNL     1       5.877  -2.282   2.853  0.00  0.00    -0.274 OA
ATOM     20  N   UNL     1       7.540  -0.913   3.385  0.00  0.00    -0.328 N 
ATOM     21  H   UNL     1       7.980  -0.059   3.252  0.00  0.00    +0.145 HD
ATOM     22  H   UNL     1       7.900  -1.551   4.022  0.00  0.00    +0.145 HD
ENDBRANCH  17  18
ENDBRANCH  12  17
TORSDOF 3
