REMARK  Name = ZINC23410673
REMARK  10 active torsions:
REMARK  status: ('A' for Active; 'I' for Inactive)
REMARK    1  A    between atoms: C_1  and  C_2
REMARK    2  A    between atoms: C_5  and  S_8
REMARK    3  A    between atoms: S_8  and  N_11
REMARK    4  A    between atoms: N_11  and  C_12
REMARK    5  A    between atoms: N_11  and  C_20
REMARK    6  A    between atoms: C_12  and  C_13
REMARK    7  A    between atoms: C_20  and  C_21
REMARK    8  A    between atoms: N_23  and  N_24
REMARK    9  A    between atoms: C_25  and  C_26
REMARK   10  A    between atoms: C_29  and  N_32
REMARK                            x       y       z     vdW  Elec       q    Type
REMARK                         _______ _______ _______ _____ _____    ______ ____
ROOT
ATOM      1  N   UNL     1       1.156   4.074   1.393  0.00  0.00    -0.163 NA
ENDROOT
BRANCH   1   2
ATOM      2  S   UNL     1       2.586   4.484   2.121  0.00  0.00    +0.062 S 
ATOM      3  O   UNL     1       2.378   4.361   3.522  0.00  0.00    -0.153 OA
ATOM      4  O   UNL     1       3.608   3.773   1.437  0.00  0.00    -0.153 OA
BRANCH   2   9
ATOM      5  C   UNL     1       3.530  10.341   1.024  0.00  0.00    +0.044 C 
ATOM      6  C   UNL     1       3.295   8.878   1.298  0.00  0.00    -0.050 A 
ATOM      7  C   UNL     1       2.595   8.491   2.425  0.00  0.00    +0.005 A 
ATOM      8  C   UNL     1       2.378   7.149   2.677  0.00  0.00    +0.029 A 
ATOM      9  C   UNL     1       2.861   6.194   1.801  0.00  0.00    +0.106 A 
ATOM     10  C   UNL     1       3.566   6.582   0.676  0.00  0.00    +0.029 A 
ATOM     11  C   UNL     1       3.778   7.925   0.422  0.00  0.00    +0.005 A 
ENDBRANCH   2   9
ENDBRANCH   1   2
BRANCH   1  12
ATOM     12  C   UNL     1       1.150   3.592   0.010  0.00  0.00    +0.145 C 
BRANCH  12  13
ATOM     13  C   UNL     1       1.171   2.086   0.002  0.00  0.00    -0.032 A 
ATOM     14  C   UNL     1      -0.017   1.378   0.010  0.00  0.00    +0.006 A 
ATOM     15  C   UNL     1       0.002  -0.004   0.002  0.00  0.00    +0.020 A 
ATOM     16  C   UNL     1       1.210  -0.679  -0.013  0.00  0.00    +0.041 A 
ATOM     17  C   UNL     1       2.398   0.030  -0.021  0.00  0.00    +0.020 A 
ATOM     18  C   UNL     1       2.378   1.412  -0.013  0.00  0.00    +0.006 A 
ATOM     19 CL   UNL     1       1.234  -2.415  -0.022  0.00  0.00    -0.084 Cl
ENDBRANCH  12  13
ENDBRANCH   1  12
BRANCH   1  20
ATOM     20  C   UNL     1      -0.103   4.192   2.133  0.00  0.00    +0.207 C 
BRANCH  20  21
ATOM     21  C   UNL     1      -0.450   2.862   2.750  0.00  0.00    +0.248 C 
ATOM     22  O   UNL     1       0.282   1.908   2.588  0.00  0.00    -0.273 OA
ATOM     23  N   UNL     1      -1.575   2.731   3.482  0.00  0.00    -0.206 N 
ATOM     24  H   UNL     1      -2.239   3.596   3.630  0.00  0.00    +0.177 HD
BRANCH  23  25
ATOM     25  N   UNL     1      -1.897   1.494   4.056  0.00  0.00    -0.188 NA
ATOM     26  C   UNL     1      -2.979   1.369   4.760  0.00  0.00    +0.138 C 
BRANCH  26  27
ATOM     27  C   UNL     1      -3.319   0.067   5.364  0.00  0.00    -0.005 A 
ATOM     28  C   UNL     1      -2.482  -1.035   5.174  0.00  0.00    +0.012 A 
ATOM     29  C   UNL     1      -2.803  -2.248   5.747  0.00  0.00    +0.033 A 
ATOM     30  C   UNL     1      -3.958  -2.378   6.497  0.00  0.00    +0.126 A 
ATOM     31  C   UNL     1      -4.795  -1.293   6.685  0.00  0.00    +0.033 A 
ATOM     32  C   UNL     1      -4.484  -0.072   6.123  0.00  0.00    +0.012 A 
BRANCH  30  33
ATOM     33  N   UNL     1      -4.299  -3.685   7.103  0.00  0.00    +0.056 N 
ATOM     34  O   UNL     1      -5.315  -3.803   7.764  0.00  0.00    -0.126 OA
ATOM     35  O   UNL     1      -3.564  -4.643   6.940  0.00  0.00    -0.126 OA
ENDBRANCH  30  33
ENDBRANCH  26  27
ENDBRANCH  23  25
ENDBRANCH  20  21
ENDBRANCH   1  20
TORSDOF 9
