REMARK  Name = ZINC29491037
REMARK  9 active torsions:
REMARK  status: ('A' for Active; 'I' for Inactive)
REMARK    1  A    between atoms: C_1  and  C_2
REMARK    2  A    between atoms: C_2  and  C_3
REMARK    3  A    between atoms: C_2  and  C_4
REMARK    4  A    between atoms: C_4  and  C_5
REMARK    5  A    between atoms: C_5  and  C_7
REMARK    6  A    between atoms: C_5  and  N_22
REMARK    7  A    between atoms: N_9  and  C_10
REMARK    8  A    between atoms: C_10  and  C_11
REMARK    9  A    between atoms: C_11  and  C_12
REMARK                            x       y       z     vdW  Elec       q    Type
REMARK                         _______ _______ _______ _____ _____    ______ ____
ROOT
ATOM      1  C   UNL     1      -2.819  -2.590   0.013  0.00  0.00    +0.233 C 
ATOM      2  O   UNL     1      -3.453  -2.886  -0.979  0.00  0.00    -0.274 OA
ATOM      3  N   UNL     1      -3.370  -2.737   1.234  0.00  0.00    -0.314 N 
ATOM      4  H   UNL     1      -2.864  -2.501   2.026  0.00  0.00    +0.149 HD
ENDROOT
BRANCH   1   5
ATOM      5  C   UNL     1      -1.416  -2.058  -0.121  0.00  0.00    +0.161 C 
BRANCH   5   6
ATOM      6  N   UNL     1      -0.876  -2.426  -1.433  0.00  0.00    -0.288 N 
ATOM      7  C   UNL     1      -1.492  -2.008  -2.556  0.00  0.00    +0.298 C 
ATOM      8  O   UNL     1      -2.495  -1.324  -2.481  0.00  0.00    -0.253 OA
ATOM      9  N   UNL     1      -0.996  -2.347  -3.763  0.00  0.00    -0.313 N 
ATOM     10  H   UNL     1      -0.076  -2.972  -1.492  0.00  0.00    +0.151 HD
ATOM     11  H   UNL     1      -0.196  -2.892  -3.822  0.00  0.00    +0.146 HD
ATOM     12  H   UNL     1      -1.439  -2.046  -4.571  0.00  0.00    +0.146 HD
ENDBRANCH   5   6
BRANCH   5  13
ATOM     13  C   UNL     1      -1.433  -0.534   0.013  0.00  0.00    +0.034 C 
BRANCH  13  15
ATOM     14  C   UNL     1      -0.019   1.526   0.010  0.00  0.00    +0.007 C 
ATOM     15  C   UNL     1       0.002  -0.004   0.002  0.00  0.00    -0.015 C 
ATOM     16  C   UNL     1       0.742  -0.511   1.242  0.00  0.00    +0.007 C 
ENDBRANCH  13  15
ENDBRANCH   5  13
ENDBRANCH   1   5
BRANCH   3  17
ATOM     17  C   UNL     1      -4.735  -3.255   1.364  0.00  0.00    +0.105 C 
BRANCH  17  18
ATOM     18  C   UNL     1      -5.115  -3.323   2.844  0.00  0.00    +0.025 C 
BRANCH  18  19
ATOM     19  C   UNL     1      -6.540  -3.864   2.980  0.00  0.00    -0.027 C 
ATOM     20  C   UNL     1      -7.510  -2.935   2.246  0.00  0.00    +0.010 C 
ATOM     21  C   UNL     1      -8.935  -3.475   2.382  0.00  0.00    -0.010 C 
ATOM     22  C   UNL     1      -9.316  -3.544   3.862  0.00  0.00    +0.007 C 
ATOM     23  C   UNL     1      -8.346  -4.472   4.596  0.00  0.00    -0.010 C 
ATOM     24  C   UNL     1      -6.921  -3.932   4.460  0.00  0.00    +0.010 C 
ATOM     25  C   UNL     1      -8.421  -5.873   3.985  0.00  0.00    +0.007 C 
ATOM     26  C   UNL     1      -8.040  -5.805   2.505  0.00  0.00    -0.010 C 
ATOM     27  C   UNL     1      -9.009  -4.876   1.771  0.00  0.00    +0.007 C 
ATOM     28  C   UNL     1      -6.615  -5.264   2.369  0.00  0.00    +0.010 C 
ENDBRANCH  18  19
ENDBRANCH  17  18
ENDBRANCH   3  17
TORSDOF 7
