REMARK  Name = ZINC37657289
REMARK  6 active torsions:
REMARK  status: ('A' for Active; 'I' for Inactive)
REMARK    1  A    between atoms: C_1  and  C_2
REMARK    2  A    between atoms: C_2  and  C_3
REMARK    3  A    between atoms: C_2  and  S_4
REMARK    4  A    between atoms: S_4  and  N_7
REMARK    5  A    between atoms: N_7  and  C_8
REMARK    6  A    between atoms: C_9  and  N_16
REMARK                            x       y       z     vdW  Elec       q    Type
REMARK                         _______ _______ _______ _____ _____    ______ ____
ROOT
ATOM      1  C   UNL     1      -1.347  -3.021   1.308  0.00  0.00    +0.082 A 
ATOM      2  C   UNL     1      -0.054  -2.893   1.815  0.00  0.00    +0.049 A 
ATOM      3  C   UNL     1       0.295  -3.548   2.986  0.00  0.00    +0.040 A 
ATOM      4  C   UNL     1      -0.637  -4.327   3.648  0.00  0.00    +0.021 A 
ATOM      5  C   UNL     1      -1.919  -4.454   3.145  0.00  0.00    +0.032 A 
ATOM      6  C   UNL     1      -2.278  -3.798   1.981  0.00  0.00    +0.043 A 
ATOM      7 BR   UNL     1      -4.035  -3.969   1.302  0.00  0.00    -0.048 Br
ATOM      8 BR   UNL     1      -0.158  -5.219   5.244  0.00  0.00    -0.050 Br
ENDROOT
BRANCH   2   9
ATOM      9  N   UNL     1       0.888  -2.105   1.143  0.00  0.00    -0.356 N 
ATOM     10  H   UNL     1       0.642  -1.647   0.324  0.00  0.00    +0.142 HD
ATOM     11  H   UNL     1       1.787  -2.017   1.497  0.00  0.00    +0.142 HD
ENDBRANCH   2   9
BRANCH   1  12
ATOM     12  N   UNL     1      -1.706  -2.361   0.125  0.00  0.00    -0.218 N 
ATOM     13  H   UNL     1      -1.860  -2.869  -0.687  0.00  0.00    +0.173 HD
BRANCH  12  14
ATOM     14  S   UNL     1      -1.869  -0.713   0.113  0.00  0.00    +0.046 S 
ATOM     15  O   UNL     1      -2.110  -0.383  -1.248  0.00  0.00    -0.155 OA
ATOM     16  O   UNL     1      -0.713  -0.229   0.782  0.00  0.00    -0.155 OA
BRANCH  14  18
ATOM     17  C   UNL     1      -3.529   1.127   1.271  0.00  0.00    +0.033 C 
ATOM     18  C   UNL     1      -3.350  -0.383   1.107  0.00  0.00    +0.145 C 
ATOM     19  C   UNL     1      -4.577  -0.969   0.405  0.00  0.00    +0.033 C 
ENDBRANCH  14  18
ENDBRANCH  12  14
ENDBRANCH   1  12
TORSDOF 4
