REMARK  Name = ZINC67474435
REMARK  7 active torsions:
REMARK  status: ('A' for Active; 'I' for Inactive)
REMARK    1  A    between atoms: C_3  and  C_20
REMARK    2  A    between atoms: C_6  and  C_7
REMARK    3  A    between atoms: C_7  and  N_8
REMARK    4  A    between atoms: C_9  and  C_11
REMARK    5  A    between atoms: C_14  and  C_17
REMARK    6  A    between atoms: C_17  and  N_19
REMARK    7  A    between atoms: N_22  and  C_23
REMARK                            x       y       z     vdW  Elec       q    Type
REMARK                         _______ _______ _______ _____ _____    ______ ____
ROOT
ATOM      1  N   UNL     1      -1.728  -1.013  -1.368  0.00  0.00    -0.307 N 
ATOM      2  C   UNL     1      -2.870  -1.687  -1.607  0.00  0.00    +0.244 C 
ATOM      3  O   UNL     1      -3.541  -2.095  -0.679  0.00  0.00    -0.270 OA
ATOM      4  H   UNL     1      -1.193  -0.688  -2.109  0.00  0.00    +0.149 HD
ENDROOT
BRANCH   2   5
ATOM      5  C   UNL     1      -3.308  -1.931  -2.999  0.00  0.00    +0.037 A 
ATOM      6  C   UNL     1      -2.535  -1.468  -4.065  0.00  0.00    +0.014 A 
ATOM      7  C   UNL     1      -2.942  -1.694  -5.361  0.00  0.00    +0.011 A 
ATOM      8  C   UNL     1      -4.129  -2.388  -5.609  0.00  0.00    +0.003 A 
ATOM      9  C   UNL     1      -4.902  -2.851  -4.543  0.00  0.00    +0.011 A 
ATOM     10  C   UNL     1      -4.492  -2.629  -3.247  0.00  0.00    +0.014 A 
BRANCH   8  11
ATOM     11  C   UNL     1      -4.566  -2.630  -6.999  0.00  0.00    +0.077 C 
ATOM     12  S   UNL     1      -3.406  -2.923  -8.223  0.00  0.00    -0.035 S 
BRANCH  11  13
ATOM     13  N   UNL     1      -5.879  -2.621  -7.304  0.00  0.00    -0.352 N 
ATOM     14  H   UNL     1      -6.537  -2.455  -6.611  0.00  0.00    +0.143 HD
ATOM     15  H   UNL     1      -6.167  -2.780  -8.217  0.00  0.00    +0.143 HD
ENDBRANCH  11  13
ENDBRANCH   8  11
ENDBRANCH   2   5
BRANCH   1  16
ATOM     16  C   UNL     1      -1.295  -0.772   0.010  0.00  0.00    +0.139 C 
BRANCH  16  22
ATOM     17  C   UNL     1      -0.017   1.379   0.010  0.00  0.00    +0.006 A 
ATOM     18  C   UNL     1       1.167   2.088   0.002  0.00  0.00    +0.013 A 
ATOM     19  C   UNL     1       2.385   1.407  -0.013  0.00  0.00    +0.037 A 
ATOM     20  C   UNL     1       2.397   0.011  -0.021  0.00  0.00    +0.013 A 
ATOM     21  C   UNL     1       1.206  -0.686  -0.013  0.00  0.00    +0.006 A 
ATOM     22  C   UNL     1       0.002  -0.004   0.002  0.00  0.00    -0.030 A 
BRANCH  19  23
ATOM     23  C   UNL     1       3.657   2.160  -0.022  0.00  0.00    +0.244 C 
ATOM     24  O   UNL     1       3.643   3.376  -0.015  0.00  0.00    -0.270 OA
ATOM     25  N   UNL     1       4.831   1.499  -0.037  0.00  0.00    -0.308 N 
ATOM     26  H   UNL     1       4.842   0.529  -0.042  0.00  0.00    +0.149 HD
BRANCH  25  27
ATOM     27  C   UNL     1       6.092   2.246  -0.045  0.00  0.00    +0.073 C 
ATOM     28  C   UNL     1       7.191   1.765  -0.995  0.00  0.00    +0.024 C 
ATOM     29  C   UNL     1       7.332   1.545   0.513  0.00  0.00    +0.024 C 
ENDBRANCH  25  27
ENDBRANCH  19  23
ENDBRANCH  16  22
ENDBRANCH   1  16
TORSDOF 7
