REMARK  Name = ZINC63708299
REMARK  11 active torsions:
REMARK  status: ('A' for Active; 'I' for Inactive)
REMARK    1  A    between atoms: C_1  and  C_2
REMARK    2  A    between atoms: C_5  and  N_9
REMARK    3  A    between atoms: C_6  and  C_8
REMARK    4  A    between atoms: C_10  and  C_12
REMARK    5  A    between atoms: C_12  and  S_13
REMARK    6  A    between atoms: S_13  and  C_14
REMARK    7  A    between atoms: C_26  and  C_28
REMARK    8  A    between atoms: C_28  and  C_29
REMARK    9  A    between atoms: C_29  and  C_30
REMARK   10  A    between atoms: C_31  and  C_37
REMARK   11  A    between atoms: C_34  and  C_36
REMARK                            x       y       z     vdW  Elec       q    Type
REMARK                         _______ _______ _______ _____ _____    ______ ____
ROOT
ATOM      1  C   UNL     1      -0.359  -8.743  -2.723  0.00  0.00    +0.248 C 
ATOM      2  N   UNL     1       0.911  -9.206  -2.148  0.00  0.00    -0.356 N 
ATOM      3  C   UNL     1       0.905  -9.889  -1.011  0.00  0.00    +0.048 A 
ATOM      4  C   UNL     1       2.114 -10.343  -0.440  0.00  0.00    +0.026 A 
ATOM      5  C   UNL     1       2.085 -11.041   0.727  0.00  0.00    +0.002 A 
ATOM      6  C   UNL     1       0.887 -11.323   1.379  0.00  0.00    +0.001 A 
ATOM      7  C   UNL     1      -0.311 -10.914   0.880  0.00  0.00    +0.013 A 
ATOM      8  C   UNL     1      -0.355 -10.187  -0.322  0.00  0.00    +0.038 A 
ATOM      9  C   UNL     1      -1.586  -9.754  -0.854  0.00  0.00    +0.128 C 
ATOM     10  N   UNL     1      -1.609  -9.047  -2.026  0.00  0.00    -0.204 N 
ATOM     11  N   UNL     1      -2.954  -8.764  -2.291  0.00  0.00    -0.249 N 
ATOM     12  C   UNL     1      -3.667  -9.307  -1.279  0.00  0.00    +0.090 C 
ATOM     13  N   UNL     1      -2.851  -9.888  -0.437  0.00  0.00    -0.332 N 
ATOM     14  H   UNL     1      -3.306  -8.275  -3.050  0.00  0.00    +0.171 HD
ATOM     15  H   UNL     1       1.749  -9.013  -2.597  0.00  0.00    +0.162 HD
ATOM     16  H   UNL     1      -3.123 -10.349   0.371  0.00  0.00    +0.168 HD
ENDROOT
BRANCH   1  17
ATOM     17  S   UNL     1      -0.255  -6.941  -2.895  0.00  0.00    -0.106 S 
BRANCH  17  18
ATOM     18  C   UNL     1      -0.134  -6.343  -1.187  0.00  0.00    +0.168 C 
BRANCH  18  20
ATOM     19  N   UNL     1       0.059  -4.170  -0.021  0.00  0.00    -0.285 N 
ATOM     20  C   UNL     1      -0.040  -4.839  -1.187  0.00  0.00    +0.227 C 
ATOM     21  O   UNL     1      -0.054  -4.230  -2.236  0.00  0.00    -0.275 OA
ATOM     22  H   UNL     1       0.135  -4.658   0.814  0.00  0.00    +0.155 HD
BRANCH  19  27
ATOM     23  C   UNL     1       0.025   1.503   0.005  0.00  0.00    +0.044 C 
ATOM     24  C   UNL     1       0.034  -0.004  -0.002  0.00  0.00    -0.050 A 
ATOM     25  C   UNL     1       0.632  -0.685  -1.046  0.00  0.00    +0.005 A 
ATOM     26  C   UNL     1       0.641  -2.066  -1.055  0.00  0.00    +0.024 A 
ATOM     27  C   UNL     1       0.051  -2.771  -0.014  0.00  0.00    +0.036 A 
ATOM     28  C   UNL     1      -0.548  -2.083   1.033  0.00  0.00    -0.029 A 
ATOM     29  C   UNL     1      -0.550  -0.702   1.039  0.00  0.00    +0.008 A 
ATOM     30  C   UNL     1      -1.190  -2.843   2.165  0.00  0.00    +0.045 C 
ENDBRANCH  19  27
ENDBRANCH  18  20
ENDBRANCH  17  18
ENDBRANCH   1  17
BRANCH  12  31
ATOM     31  C   UNL     1      -5.167  -9.252  -1.141  0.00  0.00    +0.075 C 
BRANCH  31  32
ATOM     32  C   UNL     1      -5.788 -10.465  -1.835  0.00  0.00    +0.042 C 
BRANCH  32  33
ATOM     33  C   UNL     1      -7.288 -10.409  -1.697  0.00  0.00    -0.021 C 
ATOM     34  C   UNL     1      -8.176  -9.919  -2.565  0.00  0.00    +0.061 C 
ATOM     35  N   UNL     1      -9.434 -10.046  -2.087  0.00  0.00    -0.159 NA
ATOM     36  N   UNL     1      -9.509 -10.575  -0.976  0.00  0.00    -0.180 NA
ATOM     37  C   UNL     1      -8.140 -10.903  -0.542  0.00  0.00    +0.153 C 
ATOM     38  C   UNL     1      -7.790 -10.156   0.747  0.00  0.00    +0.039 C 
ATOM     39  C   UNL     1      -7.824  -9.306  -3.896  0.00  0.00    +0.067 C 
ENDBRANCH  32  33
ENDBRANCH  31  32
ENDBRANCH  12  31
TORSDOF 7
