REMARK  Name = ZINC44876341
REMARK  9 active torsions:
REMARK  status: ('A' for Active; 'I' for Inactive)
REMARK    1  A    between atoms: C_1  and  C_2
REMARK    2  A    between atoms: C_2  and  C_4
REMARK    3  A    between atoms: C_2  and  N_11
REMARK    4  A    between atoms: C_12  and  C_14
REMARK    5  A    between atoms: C_14  and  C_16
REMARK    6  A    between atoms: C_14  and  C_19
REMARK    7  A    between atoms: C_16  and  C_17
REMARK    8  A    between atoms: C_16  and  C_18
REMARK    9  A    between atoms: N_20  and  O_21
REMARK                            x       y       z     vdW  Elec       q    Type
REMARK                         _______ _______ _______ _____ _____    ______ ____
ROOT
ATOM      1  N   UNL     1       0.767  -0.404  -1.242  0.00  0.00    -0.308 N 
ATOM      2  C   UNL     1       0.073  -0.565  -2.387  0.00  0.00    +0.224 C 
ATOM      3  O   UNL     1      -1.124  -0.372  -2.403  0.00  0.00    -0.275 OA
ATOM      4  H   UNL     1       1.709  -0.632  -1.210  0.00  0.00    +0.149 HD
ENDROOT
BRANCH   1   6
ATOM      5  C   UNL     1       0.095   1.646  -0.090  0.00  0.00    +0.033 C 
ATOM      6  C   UNL     1       0.098   0.117  -0.048  0.00  0.00    +0.100 C 
BRANCH   6   7
ATOM      7  C   UNL     1       0.832  -0.350   1.183  0.00  0.00    -0.027 A 
ATOM      8  C   UNL     1       2.214  -0.377   1.195  0.00  0.00    +0.006 A 
ATOM      9  C   UNL     1       2.887  -0.805   2.323  0.00  0.00    +0.015 A 
ATOM     10  C   UNL     1       2.178  -1.207   3.441  0.00  0.00    +0.018 A 
ATOM     11  C   UNL     1       0.795  -1.180   3.429  0.00  0.00    +0.015 A 
ATOM     12  C   UNL     1       0.122  -0.747   2.301  0.00  0.00    +0.006 A 
ATOM     13 BR   UNL     1       3.099  -1.793   4.985  0.00  0.00    -0.050 Br
ENDBRANCH   6   7
ENDBRANCH   1   6
BRANCH   2  14
ATOM     14  C   UNL     1       0.785  -0.986  -3.646  0.00  0.00    +0.144 C 
BRANCH  14  15
ATOM     15  C   UNL     1       0.172  -0.282  -4.829  0.00  0.00    +0.144 C 
ATOM     16  N   UNL     1      -0.749  -0.867  -5.522  0.00  0.00    -0.076 NA
ATOM     17  N   UNL     1       0.592   0.983  -5.172  0.00  0.00    -0.343 N 
ATOM     18  H   UNL     1       1.284   1.422  -4.652  0.00  0.00    +0.144 HD
ATOM     19  H   UNL     1       0.197   1.436  -5.933  0.00  0.00    +0.144 HD
BRANCH  16  20
ATOM     20  O   UNL     1      -1.325  -0.206  -6.634  0.00  0.00    -0.408 OA
ATOM     21  H   UNL     1      -2.005  -0.722  -7.089  0.00  0.00    +0.328 HD
ENDBRANCH  16  20
ENDBRANCH  14  15
BRANCH  14  22
ATOM     22  C   UNL     1       0.651  -2.499  -3.827  0.00  0.00    +0.002 C 
ATOM     23  C   UNL     1       1.456  -2.941  -5.051  0.00  0.00    +0.008 C 
ATOM     24  C   UNL     1       1.184  -3.211  -2.582  0.00  0.00    +0.008 C 
ENDBRANCH  14  22
ENDBRANCH   2  14
TORSDOF 6
