REMARK  Name = ZINC13031263
REMARK  14 active torsions:
REMARK  status: ('A' for Active; 'I' for Inactive)
REMARK    1  A    between atoms: C_1  and  C_2
REMARK    2  A    between atoms: C_7  and  C_8
REMARK    3  A    between atoms: C_8  and  C_10
REMARK    4  A    between atoms: C_8  and  N_18
REMARK    5  A    between atoms: N_12  and  C_13
REMARK    6  A    between atoms: C_13  and  C_14
REMARK    7  A    between atoms: C_14  and  C_15
REMARK    8  A    between atoms: C_15  and  C_16
REMARK    9  A    between atoms: C_15  and  C_17
REMARK   10  A    between atoms: N_18  and  C_19
REMARK   11  A    between atoms: C_24  and  C_25
REMARK   12  A    between atoms: C_25  and  C_27
REMARK   13  A    between atoms: C_28  and  C_30
REMARK   14  A    between atoms: C_30  and  N_31
REMARK                            x       y       z     vdW  Elec       q    Type
REMARK                         _______ _______ _______ _____ _____    ______ ____
ROOT
ATOM      1  N   UNL     1      -4.871   2.896  -1.513  0.00  0.00    -0.253 N 
ATOM      2  C   UNL     1      -3.533   2.772  -1.418  0.00  0.00    +0.242 C 
ATOM      3  O   UNL     1      -2.851   2.765  -2.421  0.00  0.00    -0.273 OA
ENDROOT
BRANCH   1   4
ATOM      4  C   UNL     1      -5.653   2.903  -0.362  0.00  0.00    +0.048 A 
ATOM      5  C   UNL     1      -5.984   4.105   0.249  0.00  0.00    +0.024 A 
ATOM      6  C   UNL     1      -6.760   4.110   1.390  0.00  0.00    +0.002 A 
ATOM      7  C   UNL     1      -7.216   2.920   1.936  0.00  0.00    +0.001 A 
ATOM      8  C   UNL     1      -6.900   1.717   1.345  0.00  0.00    +0.013 A 
ATOM      9  C   UNL     1      -6.117   1.694   0.185  0.00  0.00    +0.039 A 
BRANCH   9  10
ATOM     10  C   UNL     1      -5.780   0.416  -0.454  0.00  0.00    +0.162 C 
ATOM     11  O   UNL     1      -5.020   0.393  -1.399  0.00  0.00    -0.292 OA
ATOM     12  C   UNL     1      -6.378  -0.866   0.064  0.00  0.00    +0.091 C 
ENDBRANCH   9  10
ENDBRANCH   1   4
BRANCH   1  13
ATOM     13  C   UNL     1      -5.503   3.022  -2.829  0.00  0.00    +0.197 C 
BRANCH  13  20
ATOM     14  C   UNL     1      -5.315   0.983  -4.867  0.00  0.00    +0.044 C 
ATOM     15  C   UNL     1      -6.502   1.014  -3.940  0.00  0.00    -0.045 A 
ATOM     16  C   UNL     1      -7.499   0.064  -4.061  0.00  0.00    +0.004 A 
ATOM     17  C   UNL     1      -8.591   0.095  -3.214  0.00  0.00    +0.000 A 
ATOM     18  C   UNL     1      -8.683   1.074  -2.242  0.00  0.00    +0.000 A 
ATOM     19  C   UNL     1      -7.684   2.021  -2.117  0.00  0.00    +0.006 A 
ATOM     20  C   UNL     1      -6.592   1.989  -2.965  0.00  0.00    -0.015 A 
ENDBRANCH  13  20
BRANCH  13  21
ATOM     21  C   UNL     1      -6.097   4.400  -2.970  0.00  0.00    +0.238 C 
ATOM     22  O   UNL     1      -6.027   5.188  -2.051  0.00  0.00    -0.273 OA
ATOM     23  N   UNL     1      -6.705   4.757  -4.119  0.00  0.00    -0.313 N 
ATOM     24  H   UNL     1      -6.825   4.105  -4.827  0.00  0.00    +0.149 HD
BRANCH  23  25
ATOM     25  C   UNL     1      -7.185   6.129  -4.298  0.00  0.00    +0.104 C 
BRANCH  25  26
ATOM     26  C   UNL     1      -7.831   6.268  -5.678  0.00  0.00    +0.022 C 
BRANCH  26  27
ATOM     27  C   UNL     1      -8.332   7.701  -5.865  0.00  0.00    -0.016 C 
ATOM     28  C   UNL     1      -7.141   8.661  -5.878  0.00  0.00    +0.007 C 
ATOM     29  C   UNL     1      -9.088   7.809  -7.191  0.00  0.00    +0.007 C 
ENDBRANCH  26  27
ENDBRANCH  25  26
ENDBRANCH  23  25
ENDBRANCH  13  21
ENDBRANCH   1  13
BRANCH   2  30
ATOM     30  C   UNL     1      -2.882   2.642  -0.064  0.00  0.00    +0.242 C 
BRANCH  30  31
ATOM     31  N   UNL     1      -1.432   2.522  -0.229  0.00  0.00    -0.235 N 
ATOM     32  C   UNL     1      -0.714   1.360  -0.381  0.00  0.00    +0.090 A 
ATOM     33  C   UNL     1      -1.056   0.013  -0.434  0.00  0.00    +0.029 A 
ATOM     34  C   UNL     1      -0.081  -0.930  -0.595  0.00  0.00    +0.002 A 
ATOM     35  C   UNL     1       1.252  -0.555  -0.715  0.00  0.00    +0.002 A 
ATOM     36  C   UNL     1       1.613   0.759  -0.670  0.00  0.00    +0.032 A 
ATOM     37  C   UNL     1       0.632   1.746  -0.501  0.00  0.00    +0.113 A 
ATOM     38  N   UNL     1       0.681   3.090  -0.421  0.00  0.00    -0.129 NA
ATOM     39  N   UNL     1      -0.501   3.572  -0.263  0.00  0.00    -0.064 NA
ENDBRANCH  30  31
ENDBRANCH   2  30
TORSDOF 10
