REMARK  Name = ZINC46714381
REMARK  11 active torsions:
REMARK  status: ('A' for Active; 'I' for Inactive)
REMARK    1  A    between atoms: C_1  and  C_2
REMARK    2  A    between atoms: C_2  and  C_3
REMARK    3  A    between atoms: C_3  and  C_5
REMARK    4  A    between atoms: C_3  and  C_6
REMARK    5  A    between atoms: C_6  and  C_8
REMARK    6  A    between atoms: C_6  and  N_27
REMARK    7  A    between atoms: N_10  and  C_11
REMARK    8  A    between atoms: C_11  and  C_12
REMARK    9  A    between atoms: C_17  and  C_18
REMARK   10  A    between atoms: C_18  and  N_19
REMARK   11  A    between atoms: C_23  and  C_26
REMARK                            x       y       z     vdW  Elec       q    Type
REMARK                         _______ _______ _______ _____ _____    ______ ____
ROOT
ATOM      1  C   UNL     1       2.233  -0.771  -1.883  0.00  0.00    +0.234 C 
ATOM      2  O   UNL     1       2.981   0.051  -2.368  0.00  0.00    -0.274 OA
ATOM      3  N   UNL     1       2.265  -2.048  -2.314  0.00  0.00    -0.310 N 
ATOM      4  H   UNL     1       1.622  -2.691  -1.976  0.00  0.00    +0.149 HD
ENDROOT
BRANCH   1   5
ATOM      5  C   UNL     1       1.267  -0.366  -0.800  0.00  0.00    +0.163 C 
BRANCH   5   6
ATOM      6  N   UNL     1       1.634   0.956  -0.288  0.00  0.00    -0.288 N 
ATOM      7  C   UNL     1       1.321   1.300   0.977  0.00  0.00    +0.298 C 
ATOM      8  O   UNL     1       0.817   0.482   1.722  0.00  0.00    -0.253 OA
ATOM      9  N   UNL     1       1.568   2.550   1.417  0.00  0.00    -0.313 N 
ATOM     10  H   UNL     1       2.102   1.585  -0.860  0.00  0.00    +0.151 HD
ATOM     11  H   UNL     1       1.970   3.203   0.822  0.00  0.00    +0.146 HD
ATOM     12  H   UNL     1       1.343   2.797   2.327  0.00  0.00    +0.146 HD
ENDBRANCH   5   6
BRANCH   5  13
ATOM     13  C   UNL     1      -0.151  -0.316  -1.373  0.00  0.00    +0.015 C 
ATOM     14  C   UNL     1      -0.171   0.590  -2.606  0.00  0.00    +0.010 C 
BRANCH  13  16
ATOM     15  C   UNL     1      -0.725  -2.591  -0.513  0.00  0.00    +0.004 C 
ATOM     16  C   UNL     1      -0.591  -1.726  -1.769  0.00  0.00    +0.002 C 
ENDBRANCH  13  16
ENDBRANCH   5  13
ENDBRANCH   1   5
BRANCH   3  17
ATOM     17  C   UNL     1       3.271  -2.465  -3.294  0.00  0.00    +0.139 C 
BRANCH  17  18
ATOM     18  C   UNL     1       3.092  -3.929  -3.606  0.00  0.00    -0.029 A 
ATOM     19  C   UNL     1       3.948  -4.863  -3.052  0.00  0.00    +0.005 A 
ATOM     20  C   UNL     1       3.784  -6.205  -3.338  0.00  0.00    +0.000 A 
ATOM     21  C   UNL     1       2.764  -6.614  -4.178  0.00  0.00    +0.000 A 
ATOM     22  C   UNL     1       1.908  -5.679  -4.730  0.00  0.00    +0.002 A 
ATOM     23  C   UNL     1       2.070  -4.337  -4.440  0.00  0.00    -0.059 A 
BRANCH  23  24
ATOM     24  C   UNL     1       1.133  -3.320  -5.038  0.00  0.00    -0.043 C 
BRANCH  24  25
ATOM     25  N   UNL     1       0.394  -3.929  -6.152  0.00  0.00    +0.383 N 
ATOM     26  C   UNL     1       1.331  -4.278  -7.227  0.00  0.00    -0.078 C 
ATOM     27  C   UNL     1       0.578  -4.986  -8.355  0.00  0.00    -0.018 C 
ATOM     28  C   UNL     1      -0.506  -4.053  -8.903  0.00  0.00    -0.001 C 
ATOM     29  C   UNL     1      -1.434  -3.637  -7.758  0.00  0.00    -0.031 C 
ATOM     30  C   UNL     1      -0.607  -2.978  -6.652  0.00  0.00    -0.075 C 
ATOM     31  C   UNL     1      -2.474  -2.644  -8.279  0.00  0.00    +0.005 C 
ATOM     32  H   UNL     1      -0.070  -4.765  -5.829  0.00  0.00    -0.081 HD
ENDBRANCH  24  25
ENDBRANCH  23  24
ENDBRANCH  17  18
ENDBRANCH   3  17
TORSDOF 8
