REMARK  Name = ZINC12981062
REMARK  5 active torsions:
REMARK  status: ('A' for Active; 'I' for Inactive)
REMARK    1  A    between atoms: C_1  and  C_2
REMARK    2  A    between atoms: C_7  and  C_11
REMARK    3  A    between atoms: N_20  and  C_23
REMARK    4  A    between atoms: C_23  and  C_24
REMARK    5  A    between atoms: C_23  and  C_30
REMARK                            x       y       z     vdW  Elec       q    Type
REMARK                         _______ _______ _______ _____ _____    ______ ____
ROOT
ATOM      1  C   UNL     1      -2.487  -0.962   1.271  0.00  0.00    +0.088 C 
ATOM      2  C   UNL     1      -1.155  -1.161   0.594  0.00  0.00    +0.129 A 
ATOM      3  N   UNL     1      -1.113  -1.760  -0.583  0.00  0.00    -0.217 NA
ATOM      4  C   UNL     1       0.023  -1.964  -1.229  0.00  0.00    +0.133 A 
ATOM      5  C   UNL     1       1.244  -1.525  -0.641  0.00  0.00    +0.048 A 
ATOM      6  C   UNL     1       2.600  -1.629  -1.141  0.00  0.00    +0.029 A 
ATOM      7  C   UNL     1       3.615  -1.131  -0.394  0.00  0.00    +0.022 A 
ATOM      8  S   UNL     1       2.788  -0.484   1.048  0.00  0.00    -0.069 S 
ATOM      9  C   UNL     1       1.118  -0.894   0.617  0.00  0.00    +0.114 A 
ATOM     10  N   UNL     1      -0.060  -0.728   1.187  0.00  0.00    -0.225 NA
ATOM     11  N   UNL     1       0.026  -2.596  -2.459  0.00  0.00    -0.312 N 
ATOM     12  C   UNL     1       0.149  -4.058  -2.556  0.00  0.00    +0.122 C 
ATOM     13  C   UNL     1      -0.980  -4.584  -3.448  0.00  0.00    +0.104 C 
ATOM     14  N   UNL     1      -0.958  -3.872  -4.733  0.00  0.00    -0.285 NA
ATOM     15  C   UNL     1      -1.216  -2.437  -4.551  0.00  0.00    +0.104 C 
ATOM     16  C   UNL     1      -0.102  -1.824  -3.704  0.00  0.00    +0.122 C 
ENDROOT
BRANCH   7  17
ATOM     17  C   UNL     1       5.061  -1.125  -0.700  0.00  0.00    -0.011 A 
ATOM     18  C   UNL     1       5.527  -1.679  -1.893  0.00  0.00    +0.009 A 
ATOM     19  C   UNL     1       6.878  -1.670  -2.173  0.00  0.00    +0.001 A 
ATOM     20  C   UNL     1       7.770  -1.114  -1.274  0.00  0.00    +0.000 A 
ATOM     21  C   UNL     1       7.315  -0.564  -0.089  0.00  0.00    +0.001 A 
ATOM     22  C   UNL     1       5.966  -0.561   0.201  0.00  0.00    +0.009 A 
ENDBRANCH   7  17
BRANCH  14  23
ATOM     23  C   UNL     1      -1.913  -4.463  -5.679  0.00  0.00    +0.174 C 
BRANCH  23  24
ATOM     24  C   UNL     1      -1.862  -3.707  -6.982  0.00  0.00    -0.021 A 
ATOM     25  C   UNL     1      -0.647  -3.289  -7.491  0.00  0.00    +0.005 A 
ATOM     26  C   UNL     1      -0.600  -2.596  -8.687  0.00  0.00    +0.000 A 
ATOM     27  C   UNL     1      -1.768  -2.322  -9.373  0.00  0.00    +0.000 A 
ATOM     28  C   UNL     1      -2.983  -2.741  -8.864  0.00  0.00    +0.000 A 
ATOM     29  C   UNL     1      -3.030  -3.438  -7.671  0.00  0.00    +0.005 A 
ENDBRANCH  23  24
BRANCH  23  30
ATOM     30  C   UNL     1      -1.554  -5.906  -5.921  0.00  0.00    +0.232 C 
ATOM     31  O   UNL     1      -0.596  -6.394  -5.359  0.00  0.00    -0.274 OA
ATOM     32  N   UNL     1      -2.297  -6.654  -6.760  0.00  0.00    -0.328 N 
ATOM     33  H   UNL     1      -3.063  -6.264  -7.209  0.00  0.00    +0.145 HD
ATOM     34  H   UNL     1      -2.065  -7.583  -6.915  0.00  0.00    +0.145 HD
ENDBRANCH  23  30
ENDBRANCH  14  23
TORSDOF 4
