REMARK  Name = ZINC59249227
REMARK  8 active torsions:
REMARK  status: ('A' for Active; 'I' for Inactive)
REMARK    1  A    between atoms: C_1  and  C_2
REMARK    2  A    between atoms: C_3  and  C_12
REMARK    3  A    between atoms: N_10  and  C_11
REMARK    4  A    between atoms: N_13  and  N_14
REMARK    5  A    between atoms: C_15  and  C_17
REMARK    6  A    between atoms: C_17  and  O_18
REMARK    7  A    between atoms: O_18  and  C_19
REMARK    8  A    between atoms: C_22  and  C_25
REMARK                            x       y       z     vdW  Elec       q    Type
REMARK                         _______ _______ _______ _____ _____    ______ ____
ROOT
ATOM      1  N   UNL     1      -0.009  -0.734  -4.812  0.00  0.00    -0.204 N 
ATOM      2  C   UNL     1      -0.001  -1.628  -5.821  0.00  0.00    +0.270 C 
ATOM      3  O   UNL     1       0.017  -2.816  -5.578  0.00  0.00    -0.270 OA
ATOM      4  H   UNL     1      -0.024   0.216  -5.006  0.00  0.00    +0.177 HD
ENDROOT
BRANCH   1   6
ATOM      5  C   UNL     1      -0.005  -0.316  -2.511  0.00  0.00    +0.140 C 
ATOM      6  N   UNL     1       0.003  -1.177  -3.483  0.00  0.00    -0.188 NA
BRANCH   5   9
ATOM      7  C   UNL     1      -0.018   1.503   0.010  0.00  0.00    +0.064 C 
ATOM      8  C   UNL     1       0.002  -0.004   0.002  0.00  0.00    +0.025 A 
ATOM      9  C   UNL     1       0.008  -0.781  -1.115  0.00  0.00    +0.023 A 
ATOM     10  C   UNL     1       0.030  -2.180  -0.653  0.00  0.00    +0.009 A 
ATOM     11  C   UNL     1       0.044  -3.413  -1.303  0.00  0.00    +0.010 A 
ATOM     12  C   UNL     1       0.063  -4.574  -0.563  0.00  0.00    +0.001 A 
ATOM     13  C   UNL     1       0.068  -4.521   0.824  0.00  0.00    +0.002 A 
ATOM     14  C   UNL     1       0.054  -3.310   1.480  0.00  0.00    +0.026 A 
ATOM     15  C   UNL     1       0.035  -2.125   0.750  0.00  0.00    +0.050 A 
ATOM     16  N   UNL     1       0.023  -0.795   1.112  0.00  0.00    -0.346 N 
ATOM     17  C   UNL     1       0.029  -0.301   2.491  0.00  0.00    +0.149 C 
ENDBRANCH   5   9
ENDBRANCH   1   6
BRANCH   2  18
ATOM     18  C   UNL     1      -0.015  -1.151  -7.250  0.00  0.00    +0.326 C 
BRANCH  18  19
ATOM     19  O   UNL     1      -0.003  -2.278  -8.128  0.00  0.00    -0.483 OA
BRANCH  19  20
ATOM     20  C   UNL     1      -0.012  -2.021  -9.462  0.00  0.00    +0.121 A 
ATOM     21  C   UNL     1      -0.027  -0.708  -9.915  0.00  0.00    +0.046 A 
ATOM     22  C   UNL     1      -0.037  -0.444 -11.268  0.00  0.00    +0.012 A 
ATOM     23  C   UNL     1      -0.031  -1.496 -12.182  0.00  0.00    -0.018 A 
ATOM     24  C   UNL     1      -0.016  -2.812 -11.725  0.00  0.00    +0.012 A 
ATOM     25  C   UNL     1      -0.002  -3.071 -10.370  0.00  0.00    +0.046 A 
BRANCH  23  26
ATOM     26  C   UNL     1      -0.042  -1.215 -13.639  0.00  0.00    -0.018 A 
ATOM     27  C   UNL     1      -0.052   0.101 -14.097  0.00  0.00    +0.008 A 
ATOM     28  C   UNL     1      -0.062   0.357 -15.454  0.00  0.00    +0.001 A 
ATOM     29  C   UNL     1      -0.062  -0.691 -16.357  0.00  0.00    +0.000 A 
ATOM     30  C   UNL     1      -0.053  -1.999 -15.908  0.00  0.00    +0.001 A 
ATOM     31  C   UNL     1      -0.037  -2.266 -14.554  0.00  0.00    +0.008 A 
ENDBRANCH  23  26
ENDBRANCH  19  20
ENDBRANCH  18  19
ENDBRANCH   2  18
TORSDOF 6
