REMARK  Name = ZINC35688687
REMARK  11 active torsions:
REMARK  status: ('A' for Active; 'I' for Inactive)
REMARK    1  A    between atoms: C_1  and  C_2
REMARK    2  A    between atoms: C_2  and  C_4
REMARK    3  A    between atoms: C_2  and  N_22
REMARK    4  A    between atoms: N_14  and  C_15
REMARK    5  A    between atoms: C_15  and  C_16
REMARK    6  A    between atoms: N_22  and  C_23
REMARK    7  A    between atoms: C_23  and  C_24
REMARK    8  A    between atoms: C_24  and  N_25
REMARK    9  A    between atoms: N_25  and  C_26
REMARK   10  A    between atoms: N_25  and  C_27
REMARK   11  A    between atoms: N_30  and  C_31
REMARK                            x       y       z     vdW  Elec       q    Type
REMARK                         _______ _______ _______ _____ _____    ______ ____
ROOT
ATOM      1  N   UNL     1       0.712  -0.317   1.018  0.00  0.00    -0.278 N 
ATOM      2  C   UNL     1       0.065  -1.010   1.977  0.00  0.00    +0.303 C 
ATOM      3  O   UNL     1      -1.125  -1.235   1.866  0.00  0.00    -0.253 OA
ATOM      4  N   UNL     1       0.737  -1.452   3.058  0.00  0.00    -0.294 N 
ATOM      5  H   UNL     1       1.686  -1.272   3.146  0.00  0.00    +0.151 HD
ENDROOT
BRANCH   4   6
ATOM      6  C   UNL     1       0.034  -2.205   4.100  0.00  0.00    +0.037 C 
ATOM      7  C   UNL     1      -1.084  -1.341   4.687  0.00  0.00    +0.029 C 
ATOM      8  C   UNL     1      -1.818  -2.127   5.775  0.00  0.00    -0.008 C 
ATOM      9  C   UNL     1      -0.833  -2.507   6.882  0.00  0.00    +0.007 C 
ATOM     10  C   UNL     1       0.285  -3.372   6.295  0.00  0.00    -0.008 C 
ATOM     11  C   UNL     1       1.019  -2.585   5.207  0.00  0.00    +0.029 C 
ATOM     12  C   UNL     1      -0.317  -4.641   5.689  0.00  0.00    +0.007 C 
ATOM     13  C   UNL     1      -1.302  -4.260   4.582  0.00  0.00    -0.008 C 
ATOM     14  C   UNL     1      -2.420  -3.396   5.169  0.00  0.00    +0.007 C 
ATOM     15  C   UNL     1      -0.568  -3.474   3.494  0.00  0.00    +0.029 C 
ENDBRANCH   4   6
BRANCH   1  17
ATOM     16  C   UNL     1       0.076   1.689  -0.228  0.00  0.00    +0.036 C 
ATOM     17  C   UNL     1      -0.019   0.164  -0.157  0.00  0.00    +0.141 C 
BRANCH  17  18
ATOM     18  C   UNL     1       0.583  -0.435  -1.402  0.00  0.00    +0.134 A 
ATOM     19  N   UNL     1       1.795  -0.098  -1.724  0.00  0.00    -0.232 NA
ATOM     20  C   UNL     1       2.402  -0.596  -2.830  0.00  0.00    +0.078 A 
ATOM     21  C   UNL     1       3.705  -0.235  -3.177  0.00  0.00    +0.028 A 
ATOM     22  C   UNL     1       4.282  -0.766  -4.308  0.00  0.00    +0.002 A 
ATOM     23  C   UNL     1       3.584  -1.658  -5.111  0.00  0.00    +0.001 A 
ATOM     24  C   UNL     1       2.297  -2.030  -4.790  0.00  0.00    +0.015 A 
ATOM     25  C   UNL     1       1.695  -1.504  -3.649  0.00  0.00    +0.065 A 
ATOM     26  C   UNL     1       0.324  -1.865  -3.256  0.00  0.00    +0.262 A 
ATOM     27  O   UNL     1      -0.339  -2.642  -3.918  0.00  0.00    -0.267 OA
ATOM     28  N   UNL     1      -0.168  -1.304  -2.127  0.00  0.00    -0.290 N 
BRANCH  28  29
ATOM     29  C   UNL     1      -1.526  -1.633  -1.686  0.00  0.00    +0.161 C 
BRANCH  29  30
ATOM     30  C   UNL     1      -2.503  -0.670  -2.309  0.00  0.00    -0.028 A 
ATOM     31  C   UNL     1      -2.926   0.440  -1.602  0.00  0.00    +0.005 A 
ATOM     32  C   UNL     1      -3.823   1.323  -2.173  0.00  0.00    +0.000 A 
ATOM     33  C   UNL     1      -4.297   1.096  -3.452  0.00  0.00    +0.000 A 
ATOM     34  C   UNL     1      -3.873  -0.013  -4.159  0.00  0.00    +0.000 A 
ATOM     35  C   UNL     1      -2.973  -0.894  -3.590  0.00  0.00    +0.005 A 
ENDBRANCH  29  30
ENDBRANCH  28  29
ENDBRANCH  17  18
ENDBRANCH   1  17
BRANCH   1  36
ATOM     36  C   UNL     1       2.145  -0.045   1.152  0.00  0.00    +0.091 C 
BRANCH  36  37
ATOM     37  C   UNL     1       2.346   1.281   1.887  0.00  0.00    -0.060 C 
BRANCH  37  38
ATOM     38  N   UNL     1       3.783   1.554   2.021  0.00  0.00    +0.377 N 
ATOM     39  C   UNL     1       4.370   1.755   0.690  0.00  0.00    -0.097 C 
ATOM     40  C   UNL     1       3.979   2.764   2.830  0.00  0.00    -0.097 C 
ATOM     41  H   UNL     1       4.233   0.772   2.472  0.00  0.00    -0.083 HD
ENDBRANCH  37  38
ENDBRANCH  36  37
ENDBRANCH   1  36
TORSDOF 8
