REMARK  Name = ZINC36312308
REMARK  11 active torsions:
REMARK  status: ('A' for Active; 'I' for Inactive)
REMARK    1  A    between atoms: C_1  and  C_2
REMARK    2  A    between atoms: C_2  and  C_3
REMARK    3  A    between atoms: C_2  and  C_4
REMARK    4  A    between atoms: C_4  and  C_5
REMARK    5  A    between atoms: C_5  and  N_6
REMARK    6  A    between atoms: N_6  and  C_7
REMARK    7  A    between atoms: C_7  and  C_8
REMARK    8  A    between atoms: C_9  and  C_20
REMARK    9  A    between atoms: C_12  and  N_13
REMARK   10  A    between atoms: N_16  and  C_19
REMARK   11  A    between atoms: C_27  and  C_29
REMARK                            x       y       z     vdW  Elec       q    Type
REMARK                         _______ _______ _______ _____ _____    ______ ____
ROOT
ATOM      1  C   UNL     1      -6.310   0.729  -1.920  0.00  0.00    +0.059 A 
ATOM      2  C   UNL     1      -6.182   2.029  -2.455  0.00  0.00    +0.120 A 
ATOM      3  N   UNL     1      -6.778   2.044  -3.625  0.00  0.00    -0.076 NA
ATOM      4  O   UNL     1      -7.303   0.751  -3.867  0.00  0.00    -0.339 OA
ATOM      5  C   UNL     1      -6.997  -0.026  -2.814  0.00  0.00    +0.225 A 
ENDROOT
BRANCH   5   6
ATOM      6  N   UNL     1      -7.326  -1.361  -2.667  0.00  0.00    -0.303 N 
ATOM      7  C   UNL     1      -8.105  -1.824  -1.508  0.00  0.00    +0.089 C 
ATOM      8  C   UNL     1      -9.275  -2.672  -2.016  0.00  0.00    -0.060 C 
ATOM      9  N   UNL     1      -8.762  -3.750  -2.871  0.00  0.00    +0.380 N 
ATOM     10  C   UNL     1      -8.136  -3.181  -4.071  0.00  0.00    -0.060 C 
ATOM     11  C   UNL     1      -6.914  -2.357  -3.667  0.00  0.00    +0.089 C 
ATOM     12  C   UNL     1      -9.871  -4.627  -3.269  0.00  0.00    -0.096 C 
ATOM     13  H   UNL     1      -8.078  -4.287  -2.359  0.00  0.00    -0.082 HD
ENDBRANCH   5   6
BRANCH   2  14
ATOM     14  C   UNL     1      -5.496   3.175  -1.809  0.00  0.00    +0.004 A 
ATOM     15  C   UNL     1      -5.701   3.440  -0.457  0.00  0.00    +0.013 A 
ATOM     16  C   UNL     1      -5.061   4.507   0.140  0.00  0.00    +0.039 A 
ATOM     17  C   UNL     1      -4.216   5.315  -0.604  0.00  0.00    +0.123 A 
ATOM     18  C   UNL     1      -4.011   5.055  -1.950  0.00  0.00    +0.039 A 
ATOM     19  C   UNL     1      -4.642   3.987  -2.553  0.00  0.00    +0.013 A 
ATOM     20  F   UNL     1      -3.592   6.359  -0.016  0.00  0.00    -0.205 F 
ENDBRANCH   2  14
BRANCH   1  21
ATOM     21  C   UNL     1      -5.772   0.261  -0.593  0.00  0.00    +0.150 C 
BRANCH  21  22
ATOM     22  N   UNL     1      -4.557  -0.529  -0.809  0.00  0.00    -0.293 N 
ATOM     23  C   UNL     1      -4.565  -1.855  -0.570  0.00  0.00    +0.247 C 
ATOM     24  O   UNL     1      -5.578  -2.396  -0.172  0.00  0.00    -0.270 OA
BRANCH  23  25
ATOM     25  C   UNL     1      -3.340  -2.653  -0.792  0.00  0.00    +0.037 A 
ATOM     26  C   UNL     1      -2.084  -2.060  -0.659  0.00  0.00    +0.014 A 
ATOM     27  C   UNL     1      -0.945  -2.809  -0.867  0.00  0.00    +0.021 A 
ATOM     28  C   UNL     1      -1.046  -4.148  -1.207  0.00  0.00    +0.041 A 
ATOM     29  C   UNL     1      -2.291  -4.742  -1.340  0.00  0.00    +0.021 A 
ATOM     30  C   UNL     1      -3.436  -4.004  -1.129  0.00  0.00    +0.014 A 
ATOM     31 CL   UNL     1       0.392  -5.085  -1.468  0.00  0.00    -0.084 Cl
ENDBRANCH  23  25
BRANCH  22  32
ATOM     32  C   UNL     1      -3.335   0.122  -1.286  0.00  0.00    +0.109 C 
BRANCH  32  33
ATOM     33  C   UNL     1      -2.742   0.978  -0.164  0.00  0.00    +0.022 C 
BRANCH  33  35
ATOM     34  C   UNL     1      -1.815   2.643  -1.781  0.00  0.00    +0.007 C 
ATOM     35  C   UNL     1      -1.466   1.659  -0.662  0.00  0.00    -0.016 C 
ATOM     36  C   UNL     1      -0.806   2.414   0.494  0.00  0.00    +0.007 C 
ENDBRANCH  33  35
ENDBRANCH  32  33
ENDBRANCH  22  32
ENDBRANCH  21  22
ENDBRANCH   1  21
TORSDOF 8
