REMARK  Name = ZINC58687406
REMARK  6 active torsions:
REMARK  status: ('A' for Active; 'I' for Inactive)
REMARK    1  A    between atoms: C_1  and  C_2
REMARK    2  A    between atoms: C_7  and  C_8
REMARK    3  A    between atoms: C_8  and  C_10
REMARK    4  A    between atoms: C_8  and  N_27
REMARK    5  A    between atoms: C_10  and  C_11
REMARK    6  A    between atoms: N_13  and  C_14
REMARK                            x       y       z     vdW  Elec       q    Type
REMARK                         _______ _______ _______ _____ _____    ______ ____
ROOT
ATOM      1  C   UNL     1       1.350   1.120   4.311  0.00  0.00    +0.219 C 
ATOM      2  O   UNL     1       0.265   1.440   4.750  0.00  0.00    -0.275 OA
ATOM      3  N   UNL     1       2.474   1.505   4.946  0.00  0.00    -0.285 N 
ATOM      4  H   UNL     1       3.342   1.310   4.558  0.00  0.00    +0.155 HD
ENDROOT
BRANCH   3   5
ATOM      5  C   UNL     1       2.391   2.185   6.165  0.00  0.00    +0.034 A 
ATOM      6  C   UNL     1       3.349   1.969   7.149  0.00  0.00    +0.024 A 
ATOM      7  C   UNL     1       3.270   2.637   8.351  0.00  0.00    +0.010 A 
ATOM      8  C   UNL     1       2.226   3.535   8.585  0.00  0.00    -0.014 A 
ATOM      9  C   UNL     1       1.269   3.747   7.595  0.00  0.00    -0.034 A 
ATOM     10  C   UNL     1       1.354   3.082   6.392  0.00  0.00    +0.027 A 
ATOM     11  C   UNL     1       0.280   4.755   8.127  0.00  0.00    +0.071 C 
ATOM     12  C   UNL     1       0.750   5.108   9.517  0.00  0.00    -0.035 A 
ATOM     13  C   UNL     1       1.906   4.372   9.768  0.00  0.00    -0.014 A 
ATOM     14  C   UNL     1       2.552   4.512  10.997  0.00  0.00    +0.009 A 
ATOM     15  C   UNL     1       2.044   5.372  11.949  0.00  0.00    +0.001 A 
ATOM     16  C   UNL     1       0.896   6.098  11.690  0.00  0.00    +0.000 A 
ATOM     17  C   UNL     1       0.250   5.965  10.474  0.00  0.00    +0.004 A 
ENDBRANCH   3   5
BRANCH   1  18
ATOM     18  C   UNL     1       1.440   0.292   3.055  0.00  0.00    +0.123 C 
BRANCH  18  19
ATOM     19  C   UNL     1       0.030  -0.006   2.539  0.00  0.00    +0.114 C 
BRANCH  19  26
ATOM     20  C   UNL     1      -2.284  -0.164   0.817  0.00  0.00    +0.044 C 
ATOM     21  C   UNL     1      -0.986  -0.804   0.396  0.00  0.00    -0.045 A 
ATOM     22  C   UNL     1      -0.901  -1.461  -0.818  0.00  0.00    +0.004 A 
ATOM     23  C   UNL     1       0.289  -2.047  -1.204  0.00  0.00    +0.000 A 
ATOM     24  C   UNL     1       1.395  -1.976  -0.378  0.00  0.00    +0.000 A 
ATOM     25  C   UNL     1       1.310  -1.318   0.835  0.00  0.00    +0.006 A 
ATOM     26  C   UNL     1       0.121  -0.728   1.219  0.00  0.00    -0.024 A 
ENDBRANCH  19  26
BRANCH  19  27
ATOM     27  N   UNL     1      -0.677  -0.847   3.508  0.00  0.00    -0.292 N 
ATOM     28  C   UNL     1      -0.175  -2.051   3.848  0.00  0.00    +0.298 C 
ATOM     29  O   UNL     1       0.910  -2.399   3.424  0.00  0.00    -0.253 OA
ATOM     30  N   UNL     1      -0.877  -2.869   4.657  0.00  0.00    -0.313 N 
ATOM     31  H   UNL     1      -1.506  -0.537   3.905  0.00  0.00    +0.151 HD
ATOM     32  H   UNL     1      -1.742  -2.591   4.996  0.00  0.00    +0.146 HD
ATOM     33  H   UNL     1      -0.516  -3.736   4.902  0.00  0.00    +0.146 HD
ENDBRANCH  19  27
ENDBRANCH  18  19
ENDBRANCH   1  18
TORSDOF 5
