REMARK  Name = ZINC44907648
REMARK  11 active torsions:
REMARK  status: ('A' for Active; 'I' for Inactive)
REMARK    1  A    between atoms: C_1  and  C_2
REMARK    2  A    between atoms: C_5  and  C_38
REMARK    3  A    between atoms: N_8  and  C_10
REMARK    4  A    between atoms: C_10  and  C_11
REMARK    5  A    between atoms: C_11  and  C_12
REMARK    6  A    between atoms: C_12  and  N_13
REMARK    7  A    between atoms: C_14  and  C_16
REMARK    8  A    between atoms: C_20  and  C_22
REMARK    9  A    between atoms: C_22  and  N_23
REMARK   10  A    between atoms: N_26  and  S_29
REMARK   11  A    between atoms: S_29  and  C_32
REMARK                            x       y       z     vdW  Elec       q    Type
REMARK                         _______ _______ _______ _____ _____    ______ ____
ROOT
ATOM      1  C   UNL     1       2.021   0.784   8.518  0.00  0.00    +0.037 A 
ATOM      2  C   UNL     1       0.925   1.630   8.340  0.00  0.00    +0.013 A 
ATOM      3  C   UNL     1       0.324   2.214   9.436  0.00  0.00    +0.001 A 
ATOM      4  C   UNL     1       0.805   1.962  10.709  0.00  0.00    +0.005 A 
ATOM      5  C   UNL     1       1.890   1.125  10.892  0.00  0.00    -0.033 A 
ATOM      6  C   UNL     1       2.497   0.530   9.805  0.00  0.00    +0.018 A 
ENDROOT
BRANCH   1   8
ATOM      7  N   UNL     1       2.207   0.402   6.106  0.00  0.00    -0.311 N 
ATOM      8  C   UNL     1       2.669   0.154   7.348  0.00  0.00    +0.244 C 
ATOM      9  O   UNL     1       3.620  -0.586   7.506  0.00  0.00    -0.270 OA
ATOM     10  H   UNL     1       1.448   0.993   5.981  0.00  0.00    +0.149 HD
BRANCH   7  11
ATOM     11  C   UNL     1       2.850  -0.222   4.947  0.00  0.00    +0.102 C 
BRANCH  11  12
ATOM     12  C   UNL     1       2.136   0.221   3.668  0.00  0.00    +0.000 C 
BRANCH  12  13
ATOM     13  C   UNL     1       2.808  -0.431   2.458  0.00  0.00    -0.077 C 
BRANCH  13  19
ATOM     14  C   UNL     1      -0.019   1.526   0.010  0.00  0.00    +0.005 C 
ATOM     15  C   UNL     1       0.002  -0.004   0.002  0.00  0.00    -0.031 C 
ATOM     16  C   UNL     1       0.721  -0.499  -1.257  0.00  0.00    +0.003 C 
ATOM     17  C   UNL     1       2.177  -0.027  -1.220  0.00  0.00    -0.031 C 
ATOM     18  C   UNL     1       2.839  -0.534   0.063  0.00  0.00    -0.076 C 
ATOM     19  N   UNL     1       2.123  -0.005   1.230  0.00  0.00    +0.380 N 
ATOM     20  C   UNL     1       0.744  -0.512   1.240  0.00  0.00    -0.076 C 
ATOM     21  C   UNL     1       2.924  -0.581  -2.434  0.00  0.00    +0.005 C 
ATOM     22  H   UNL     1       2.109   1.003   1.187  0.00  0.00    -0.082 HD
ENDBRANCH  13  19
ENDBRANCH  12  13
ENDBRANCH  11  12
ENDBRANCH   7  11
ENDBRANCH   1   8
BRANCH   5  23
ATOM     23  C   UNL     1       2.408   0.857  12.281  0.00  0.00    +0.119 C 
BRANCH  23  24
ATOM     24  N   UNL     1       1.721  -0.314  12.842  0.00  0.00    -0.296 NA
ATOM     25  C   UNL     1       2.061  -1.532  12.095  0.00  0.00    +0.102 C 
ATOM     26  C   UNL     1       1.191  -2.692  12.592  0.00  0.00    +0.125 C 
ATOM     27  N   UNL     1       1.341  -2.796  14.051  0.00  0.00    -0.174 NA
ATOM     28  C   UNL     1       1.150  -1.581  14.859  0.00  0.00    +0.125 C 
ATOM     29  C   UNL     1       2.022  -0.465  14.273  0.00  0.00    +0.102 C 
BRANCH  27  30
ATOM     30  S   UNL     1       1.713  -4.242  14.766  0.00  0.00    +0.061 S 
ATOM     31  O   UNL     1       1.248  -4.164  16.107  0.00  0.00    -0.153 OA
ATOM     32  O   UNL     1       1.288  -5.260  13.870  0.00  0.00    -0.153 OA
BRANCH  30  33
ATOM     33  C   UNL     1       3.470  -4.346  14.848  0.00  0.00    +0.105 A 
ATOM     34  C   UNL     1       4.179  -4.908  13.803  0.00  0.00    +0.028 A 
ATOM     35  C   UNL     1       5.558  -4.989  13.867  0.00  0.00    +0.002 A 
ATOM     36  C   UNL     1       6.227  -4.508  14.976  0.00  0.00    +0.000 A 
ATOM     37  C   UNL     1       5.519  -3.945  16.021  0.00  0.00    +0.002 A 
ATOM     38  C   UNL     1       4.141  -3.860  15.955  0.00  0.00    +0.028 A 
ENDBRANCH  30  33
ENDBRANCH  27  30
ENDBRANCH  23  24
ENDBRANCH   5  23
TORSDOF 9
