REMARK  Name = ZINC24579807
REMARK  7 active torsions:
REMARK  status: ('A' for Active; 'I' for Inactive)
REMARK    1  A    between atoms: C_1  and  C_2
REMARK    2  A    between atoms: C_8  and  N_10
REMARK    3  A    between atoms: C_11  and  C_13
REMARK    4  A    between atoms: C_15  and  C_25
REMARK    5  A    between atoms: N_21  and  C_22
REMARK    6  A    between atoms: C_22  and  C_23
REMARK    7  A    between atoms: C_22  and  C_24
REMARK                            x       y       z     vdW  Elec       q    Type
REMARK                         _______ _______ _______ _____ _____    ______ ____
ROOT
ATOM      1  C   UNL     1       2.382   1.397  -0.013  0.00  0.00    +0.051 A 
ATOM      2  C   UNL     1       1.154   2.055   0.002  0.00  0.00    +0.037 A 
ATOM      3  C   UNL     1      -0.016   1.311   0.009  0.00  0.00    +0.047 A 
ATOM      4  N   UNL     1       0.002  -0.004   0.002  0.00  0.00    -0.232 NA
ATOM      5  C   UNL     1       1.135  -0.690  -0.013  0.00  0.00    +0.159 A 
ATOM      6  C   UNL     1       2.373  -0.016  -0.021  0.00  0.00    +0.051 A 
ATOM      7  C   UNL     1       3.383  -1.001  -0.036  0.00  0.00    +0.145 A 
ATOM      8  N   UNL     1       2.819  -2.175  -0.037  0.00  0.00    -0.177 NA
ATOM      9  N   UNL     1       1.426  -2.030  -0.023  0.00  0.00    -0.244 N 
ENDROOT
BRANCH   1  11
ATOM     10  N   UNL     1       3.636   3.500  -0.014  0.00  0.00    -0.308 N 
ATOM     11  C   UNL     1       3.653   2.152  -0.022  0.00  0.00    +0.245 C 
ATOM     12  O   UNL     1       4.713   1.558  -0.035  0.00  0.00    -0.270 OA
ATOM     13  H   UNL     1       2.677   4.037  -0.002  0.00  0.00    +0.149 HD
BRANCH  10  20
ATOM     14  C   UNL     1       4.143   5.491  -2.055  0.00  0.00    +0.009 C 
ATOM     15  C   UNL     1       4.660   5.636  -0.623  0.00  0.00    +0.006 C 
ATOM     16  C   UNL     1       5.975   6.418  -0.632  0.00  0.00    +0.005 C 
ATOM     17  C   UNL     1       6.492   6.562   0.801  0.00  0.00    +0.000 C 
ATOM     18  C   UNL     1       6.728   5.175   1.401  0.00  0.00    +0.002 C 
ATOM     19  C   UNL     1       5.413   4.393   1.410  0.00  0.00    +0.022 C 
ATOM     20  C   UNL     1       4.896   4.248  -0.023  0.00  0.00    +0.076 C 
ENDBRANCH  10  20
ENDBRANCH   1  11
BRANCH   9  21
ATOM     21  C   UNL     1       0.449  -3.121  -0.019  0.00  0.00    +0.103 C 
ATOM     22  C   UNL     1       0.633  -3.975  -1.275  0.00  0.00    +0.032 C 
ATOM     23  C   UNL     1       0.659  -3.989   1.224  0.00  0.00    +0.032 C 
ENDBRANCH   9  21
BRANCH   3  24
ATOM     24  C   UNL     1      -1.341   2.027   0.019  0.00  0.00    +0.038 C 
ATOM     25  C   UNL     1      -1.342   3.506   0.410  0.00  0.00    +0.010 C 
ATOM     26  C   UNL     1      -1.901   2.459   1.376  0.00  0.00    +0.010 C 
ENDBRANCH   3  24
TORSDOF 4
