REMARK  Name = ZINC43262555
REMARK  8 active torsions:
REMARK  status: ('A' for Active; 'I' for Inactive)
REMARK    1  A    between atoms: C_1  and  C_2
REMARK    2  A    between atoms: C_2  and  C_3
REMARK    3  A    between atoms: C_3  and  C_5
REMARK    4  A    between atoms: C_3  and  N_25
REMARK    5  A    between atoms: C_5  and  C_7
REMARK    6  A    between atoms: C_5  and  N_13
REMARK    7  A    between atoms: C_15  and  C_22
REMARK    8  A    between atoms: C_19  and  C_21
REMARK                            x       y       z     vdW  Elec       q    Type
REMARK                         _______ _______ _______ _____ _____    ______ ____
ROOT
ATOM      1  C   UNL     1      -1.635  -1.746  -0.814  0.00  0.00    +0.079 C 
ENDROOT
BRANCH   1   2
ATOM      2  N   UNL     1      -0.766  -2.453  -1.764  0.00  0.00    -0.293 NA
ATOM      3  C   UNL     1       0.630  -2.020  -1.624  0.00  0.00    +0.098 C 
ATOM      4  C   UNL     1       1.478  -2.666  -2.722  0.00  0.00    +0.089 C 
ATOM      5  C   UNL     1       1.383  -4.189  -2.604  0.00  0.00    +0.015 C 
ATOM      6  C   UNL     1      -0.086  -4.610  -2.705  0.00  0.00    +0.019 C 
ATOM      7  C   UNL     1      -0.889  -3.908  -1.607  0.00  0.00    +0.054 C 
ATOM      8  C   UNL     1      -2.361  -4.310  -1.717  0.00  0.00    +0.024 C 
BRANCH   4   9
ATOM      9  C   UNL     1       0.969  -2.232  -4.072  0.00  0.00    +0.215 C 
ATOM     10  O   UNL     1       0.021  -1.480  -4.149  0.00  0.00    -0.276 OA
ATOM     11  N   UNL     1       1.568  -2.679  -5.194  0.00  0.00    -0.329 N 
ATOM     12  H   UNL     1       2.326  -3.281  -5.131  0.00  0.00    +0.145 HD
ATOM     13  H   UNL     1       1.240  -2.400  -6.063  0.00  0.00    +0.145 HD
ENDBRANCH   4   9
ENDBRANCH   1   2
BRANCH   1  14
ATOM     14  C   UNL     1      -1.069  -0.376  -0.539  0.00  0.00    +0.006 A 
ATOM     15  C   UNL     1      -0.801   0.213   0.652  0.00  0.00    +0.014 A 
ATOM     16  C   UNL     1      -0.277   1.493   0.664  0.00  0.00    +0.023 A 
ATOM     17  C   UNL     1      -0.047   2.120  -0.516  0.00  0.00    +0.055 A 
ATOM     18  S   UNL     1      -0.569   0.887  -1.697  0.00  0.00    -0.085 S 
ATOM     19 BR   UNL     1       0.652   3.848  -0.830  0.00  0.00    -0.043 Br
ENDBRANCH   1  14
BRANCH   1  20
ATOM     20  C   UNL     1      -3.037  -1.608  -1.409  0.00  0.00    -0.053 C 
BRANCH  20  21
ATOM     21  N   UNL     1      -3.868  -0.785  -0.520  0.00  0.00    +0.381 N 
ATOM     22  H   UNL     1      -4.793  -0.694  -0.913  0.00  0.00    -0.090 HD
ATOM     23  H   UNL     1      -3.929  -1.226   0.386  0.00  0.00    -0.090 HD
ATOM     24  H   UNL     1      -3.453   0.129  -0.422  0.00  0.00    -0.090 HD
ENDBRANCH  20  21
BRANCH  20  26
ATOM     25  C   UNL     1      -4.325  -0.934  -3.442  0.00  0.00    +0.002 C 
ATOM     26  C   UNL     1      -2.944  -0.940  -2.783  0.00  0.00    -0.018 C 
ENDBRANCH  20  26
ENDBRANCH   1  20
TORSDOF 6
