REMARK  Name = ZINC06346347
REMARK  7 active torsions:
REMARK  status: ('A' for Active; 'I' for Inactive)
REMARK    1  A    between atoms: C_1  and  C_2
REMARK    2  A    between atoms: C_2  and  C_3
REMARK    3  A    between atoms: C_2  and  C_4
REMARK    4  A    between atoms: C_7  and  C_10
REMARK    5  A    between atoms: C_11  and  C_12
REMARK    6  A    between atoms: N_14  and  C_15
REMARK    7  A    between atoms: C_18  and  N_21
REMARK                            x       y       z     vdW  Elec       q    Type
REMARK                         _______ _______ _______ _____ _____    ______ ____
ROOT
ATOM      1  C   UNL     1       2.927  -4.529   8.695  0.00  0.00    +0.034 A 
ATOM      2  C   UNL     1       2.614  -5.803   9.153  0.00  0.00    +0.025 A 
ATOM      3  C   UNL     1       3.309  -6.344  10.216  0.00  0.00    +0.026 A 
ATOM      4  C   UNL     1       4.321  -5.616  10.827  0.00  0.00    +0.045 A 
ATOM      5  C   UNL     1       4.634  -4.343  10.370  0.00  0.00    +0.026 A 
ATOM      6  C   UNL     1       3.943  -3.804   9.303  0.00  0.00    +0.025 A 
ENDROOT
BRANCH   4   7
ATOM      7  N   UNL     1       5.027  -6.166  11.907  0.00  0.00    -0.202 N 
ATOM      8  C   UNL     1       4.803  -7.390  12.419  0.00  0.00    +0.258 C 
ATOM      9  O   UNL     1       3.970  -8.181  12.025  0.00  0.00    -0.269 OA
ATOM     10  C   UNL     1       5.740  -7.610  13.540  0.00  0.00    +0.050 A 
ATOM     11  C   UNL     1       5.968  -8.656  14.420  0.00  0.00    +0.014 A 
ATOM     12  C   UNL     1       6.954  -8.539  15.387  0.00  0.00    +0.001 A 
ATOM     13  C   UNL     1       7.711  -7.386  15.480  0.00  0.00    +0.001 A 
ATOM     14  C   UNL     1       7.494  -6.331  14.607  0.00  0.00    +0.014 A 
ATOM     15  C   UNL     1       6.512  -6.434  13.635  0.00  0.00    +0.050 A 
ATOM     16  C   UNL     1       6.021  -5.541  12.564  0.00  0.00    +0.258 C 
ATOM     17  O   UNL     1       6.443  -4.429  12.320  0.00  0.00    -0.269 OA
ENDBRANCH   4   7
BRANCH   1  20
ATOM     18  C   UNL     1       2.857  -3.189   6.731  0.00  0.00    +0.241 C 
ATOM     19  O   UNL     1       4.021  -2.884   6.911  0.00  0.00    -0.270 OA
ATOM     20  N   UNL     1       2.222  -3.980   7.618  0.00  0.00    -0.282 N 
ATOM     21  H   UNL     1       1.277  -4.169   7.510  0.00  0.00    +0.155 HD
BRANCH  18  23
ATOM     22  C   UNL     1       2.781  -1.905   4.661  0.00  0.00    +0.013 C 
ATOM     23  C   UNL     1       2.146  -2.697   5.549  0.00  0.00    +0.068 C 
BRANCH  22  27
ATOM     24  C   UNL     1       0.721  -0.480   1.238  0.00  0.00    -0.045 A 
ATOM     25  C   UNL     1       2.045  -0.130   1.440  0.00  0.00    +0.004 A 
ATOM     26  C   UNL     1       2.721  -0.590   2.550  0.00  0.00    +0.008 A 
ATOM     27  C   UNL     1       2.066  -1.411   3.474  0.00  0.00    -0.025 A 
ATOM     28  C   UNL     1       0.729  -1.760   3.262  0.00  0.00    +0.008 A 
ATOM     29  C   UNL     1       0.064  -1.288   2.150  0.00  0.00    +0.004 A 
BRANCH  24  31
ATOM     30  C   UNL     1      -0.022   1.556   0.034  0.00  0.00    +0.012 C 
ATOM     31  C   UNL     1      -0.010   0.026   0.022  0.00  0.00    +0.013 C 
ATOM     32  C   UNL     1       0.697  -0.469  -1.242  0.00  0.00    +0.012 C 
ENDBRANCH  24  31
ENDBRANCH  22  27
ENDBRANCH  18  23
ENDBRANCH   1  20
TORSDOF 5
