REMARK  Name = ZINC09358452
REMARK  5 active torsions:
REMARK  status: ('A' for Active; 'I' for Inactive)
REMARK    1  A    between atoms: C_1  and  C_2
REMARK    2  A    between atoms: C_5  and  C_29
REMARK    3  A    between atoms: C_9  and  C_10
REMARK    4  A    between atoms: C_9  and  N_53
REMARK    5  A    between atoms: N_14  and  C_15
REMARK                            x       y       z     vdW  Elec       q    Type
REMARK                         _______ _______ _______ _____ _____    ______ ____
ROOT
ATOM      1  C   UNL     1      -2.251   1.134  -3.442  0.00  0.00    +0.097 A 
ATOM      2  N   UNL     1      -2.707  -0.089  -3.797  0.00  0.00    -0.314 N 
ATOM      3  H   UNL     1      -2.102  -0.750  -4.170  0.00  0.00    +0.170 HD
ATOM      4  C   UNL     1      -4.041  -0.387  -3.616  0.00  0.00    +0.233 A 
ATOM      5  N   UNL     1      -4.514  -1.578  -3.949  0.00  0.00    -0.213 NA
ATOM      6  N   UNL     1      -4.855   0.548  -3.104  0.00  0.00    -0.179 NA
ATOM      7  C   UNL     1      -4.373   1.735  -2.774  0.00  0.00    +0.217 A 
ATOM      8  N   UNL     1      -3.074   2.021  -2.945  0.00  0.00    -0.204 NA
ATOM      9  N   UNL     1      -5.214   2.687  -2.250  0.00  0.00    -0.327 N 
ATOM     10  H   UNL     1      -4.867   3.559  -2.006  0.00  0.00    +0.145 HD
ATOM     11  H   UNL     1      -6.154   2.486  -2.124  0.00  0.00    +0.145 HD
ENDROOT
BRANCH   5  12
ATOM     12  C   UNL     1      -3.703  -2.485  -4.570  0.00  0.00    +0.068 A 
ATOM     13  C   UNL     1      -3.556  -2.447  -5.970  0.00  0.00    +0.028 A 
ATOM     14  C   UNL     1      -2.751  -3.334  -6.608  0.00  0.00    +0.010 A 
ATOM     15  C   UNL     1      -2.061  -4.315  -5.873  0.00  0.00    -0.018 A 
ATOM     16  C   UNL     1      -1.228  -5.247  -6.514  0.00  0.00    +0.008 A 
ATOM     17  C   UNL     1      -0.572  -6.185  -5.777  0.00  0.00    +0.001 A 
ATOM     18  C   UNL     1      -0.714  -6.238  -4.391  0.00  0.00    +0.001 A 
ATOM     19  C   UNL     1      -1.511  -5.352  -3.735  0.00  0.00    +0.008 A 
ATOM     20  C   UNL     1      -2.205  -4.368  -4.463  0.00  0.00    -0.016 A 
ATOM     21  C   UNL     1      -3.035  -3.440  -3.818  0.00  0.00    +0.036 A 
ENDBRANCH   5  12
BRANCH   1  22
ATOM     22  C   UNL     1      -0.795   1.477  -3.626  0.00  0.00    -0.003 C 
BRANCH  22  30
ATOM     23  C   UNL     1      -0.760   1.572   1.292  0.00  0.00    +0.005 C 
ATOM     24  C   UNL     1      -0.035   1.075   0.040  0.00  0.00    -0.031 C 
ATOM     25  C   UNL     1       1.403   1.601   0.040  0.00  0.00    +0.003 C 
ATOM     26  C   UNL     1       2.104   1.149  -1.245  0.00  0.00    -0.031 C 
ATOM     27  C   UNL     1       1.317   1.656  -2.455  0.00  0.00    -0.075 C 
ATOM     28  C   UNL     1      -0.760   1.584  -1.208  0.00  0.00    -0.075 C 
ATOM     29  C   UNL     1       3.522   1.721  -1.282  0.00  0.00    +0.005 C 
ATOM     30  N   UNL     1      -0.050   1.094  -2.409  0.00  0.00    +0.385 N 
ATOM     31  H   UNL     1       0.013   0.070  -2.364  0.00  0.00    -0.081 HD
ENDBRANCH  22  30
ENDBRANCH   1  22
TORSDOF 3
