REMARK  Name = ZINC38903525
REMARK  14 active torsions:
REMARK  status: ('A' for Active; 'I' for Inactive)
REMARK    1  A    between atoms: C_1  and  C_2
REMARK    2  A    between atoms: C_2  and  C_3
REMARK    3  A    between atoms: C_3  and  C_5
REMARK    4  A    between atoms: C_3  and  N_13
REMARK    5  A    between atoms: C_8  and  O_11
REMARK    6  A    between atoms: O_11  and  C_12
REMARK    7  A    between atoms: C_14  and  C_16
REMARK    8  A    between atoms: N_21  and  C_23
REMARK    9  A    between atoms: C_23  and  C_24
REMARK   10  A    between atoms: C_26  and  C_29
REMARK   11  A    between atoms: C_32  and  C_35
REMARK   12  A    between atoms: C_35  and  C_36
REMARK   13  A    between atoms: C_35  and  C_37
REMARK   14  A    between atoms: C_35  and  C_38
REMARK                            x       y       z     vdW  Elec       q    Type
REMARK                         _______ _______ _______ _____ _____    ______ ____
ROOT
ATOM      1  C   UNL     1      -0.688   1.503  -4.202  0.00  0.00    +0.058 C 
ATOM      2  C   UNL     1      -2.184   1.440  -3.878  0.00  0.00    +0.009 C 
ATOM      3  C   UNL     1      -2.980   1.917  -5.096  0.00  0.00    -0.018 C 
ATOM      4  C   UNL     1      -2.528   3.330  -5.473  0.00  0.00    -0.078 C 
ATOM      5  N   UNL     1      -1.096   3.319  -5.796  0.00  0.00    +0.386 N 
ATOM      6  C   UNL     1      -0.320   2.931  -4.612  0.00  0.00    -0.065 C 
ATOM      7  H   UNL     1      -0.925   2.659  -6.540  0.00  0.00    -0.081 HD
ENDROOT
BRANCH   1   9
ATOM      8  N   UNL     1      -0.055  -0.114  -2.441  0.00  0.00    -0.308 N 
ATOM      9  C   UNL     1       0.107   1.109  -2.984  0.00  0.00    +0.215 C 
ATOM     10  O   UNL     1       0.893   1.891  -2.493  0.00  0.00    -0.276 OA
ATOM     11  H   UNL     1      -0.683  -0.740  -2.833  0.00  0.00    +0.149 HD
BRANCH   8  12
ATOM     12  C   UNL     1       0.718  -0.497  -1.257  0.00  0.00    +0.103 C 
BRANCH  12  13
ATOM     13  C   UNL     1       0.847  -1.998  -1.206  0.00  0.00    -0.027 A 
ATOM     14  C   UNL     1      -0.228  -2.795  -1.552  0.00  0.00    +0.009 A 
ATOM     15  C   UNL     1      -0.112  -4.171  -1.506  0.00  0.00    +0.046 A 
ATOM     16  C   UNL     1       1.084  -4.753  -1.111  0.00  0.00    +0.120 A 
ATOM     17  C   UNL     1       2.161  -3.950  -0.765  0.00  0.00    +0.046 A 
ATOM     18  C   UNL     1       2.042  -2.575  -0.818  0.00  0.00    +0.009 A 
BRANCH  16  19
ATOM     19  O   UNL     1       1.200  -6.106  -1.065  0.00  0.00    -0.495 OA
ATOM     20  C   UNL     1       2.461  -6.635  -0.649  0.00  0.00    +0.277 C 
ENDBRANCH  16  19
ENDBRANCH  12  13
BRANCH  12  22
ATOM     21  C   UNL     1      -0.019   1.526   0.010  0.00  0.00    +0.006 C 
ATOM     22  C   UNL     1       0.002  -0.004   0.002  0.00  0.00    +0.024 C 
ENDBRANCH  12  22
ENDBRANCH   8  12
ENDBRANCH   1   9
BRANCH   5  23
ATOM     23  C   UNL     1      -0.684   4.660  -6.232  0.00  0.00    +0.022 C 
BRANCH  23  24
ATOM     24  C   UNL     1      -1.382   5.006  -7.522  0.00  0.00    +0.211 A 
ATOM     25  N   UNL     1      -2.531   5.609  -7.627  0.00  0.00    -0.193 NA
ATOM     26  C   UNL     1      -2.856   5.758  -8.924  0.00  0.00    +0.202 A 
ATOM     27  N   UNL     1      -1.899   5.244  -9.657  0.00  0.00    -0.056 NA
ATOM     28  O   UNL     1      -0.922   4.750  -8.753  0.00  0.00    -0.340 OA
BRANCH  26  29
ATOM     29  C   UNL     1      -4.092   6.399  -9.439  0.00  0.00    +0.022 A 
ATOM     30  C   UNL     1      -5.034   6.914  -8.551  0.00  0.00    +0.012 A 
ATOM     31  C   UNL     1      -6.182   7.508  -9.035  0.00  0.00    +0.005 A 
ATOM     32  C   UNL     1      -6.397   7.593 -10.399  0.00  0.00    -0.042 A 
ATOM     33  C   UNL     1      -5.465   7.083 -11.285  0.00  0.00    +0.005 A 
ATOM     34  C   UNL     1      -4.311   6.492 -10.811  0.00  0.00    +0.012 A 
BRANCH  32  35
ATOM     35  C   UNL     1      -7.653   8.243 -10.922  0.00  0.00    -0.013 C 
ATOM     36  C   UNL     1      -7.712   9.695 -10.445  0.00  0.00    +0.015 C 
ATOM     37  C   UNL     1      -7.646   8.207 -12.451  0.00  0.00    +0.015 C 
ATOM     38  C   UNL     1      -8.875   7.485 -10.399  0.00  0.00    +0.015 C 
ENDBRANCH  32  35
ENDBRANCH  26  29
ENDBRANCH  23  24
ENDBRANCH   5  23
TORSDOF 9
