REMARK  Name = ZINC33468036
REMARK  11 active torsions:
REMARK  status: ('A' for Active; 'I' for Inactive)
REMARK    1  A    between atoms: C_1  and  C_2
REMARK    2  A    between atoms: C_2  and  N_3
REMARK    3  A    between atoms: C_4  and  N_30
REMARK    4  A    between atoms: C_5  and  C_13
REMARK    5  A    between atoms: C_6  and  C_12
REMARK    6  A    between atoms: C_7  and  C_10
REMARK    7  A    between atoms: N_17  and  C_21
REMARK    8  A    between atoms: C_21  and  C_22
REMARK    9  A    between atoms: C_22  and  C_23
REMARK   10  A    between atoms: C_23  and  C_24
REMARK   11  A    between atoms: N_33  and  C_36
REMARK                            x       y       z     vdW  Elec       q    Type
REMARK                         _______ _______ _______ _____ _____    ______ ____
ROOT
ATOM      1  N   UNL     1      -0.646   1.511   1.282  0.00  0.00    -0.295 N 
ATOM      2  C   UNL     1      -1.600   0.759   1.888  0.00  0.00    +0.112 A 
ATOM      3  C   UNL     1      -2.343   1.278   2.961  0.00  0.00    +0.019 A 
ATOM      4  C   UNL     1      -2.093   2.587   3.405  0.00  0.00    -0.017 A 
ATOM      5  C   UNL     1      -1.110   3.338   2.766  0.00  0.00    +0.120 A 
ATOM      6  C   UNL     1      -0.384   2.765   1.692  0.00  0.00    +0.270 A 
ATOM      7  O   UNL     1       0.481   3.416   1.132  0.00  0.00    -0.266 OA
ATOM      8  C   UNL     1      -2.875   3.169   4.554  0.00  0.00    +0.046 C 
ENDROOT
BRANCH   3   9
ATOM      9  C   UNL     1      -3.370   0.462   3.611  0.00  0.00    +0.032 C 
ATOM     10  C   UNL     1      -3.202   0.054   4.898  0.00  0.00    +0.077 C 
ATOM     11  C   UNL     1      -4.024  -0.798   5.696  0.00  0.00    +0.258 C 
ATOM     12  O   UNL     1      -5.048  -1.282   5.248  0.00  0.00    -0.269 OA
ATOM     13  N   UNL     1      -3.637  -1.051   6.935  0.00  0.00    -0.255 N 
ATOM     14  C   UNL     1      -2.505  -0.509   7.434  0.00  0.00    +0.121 C 
ATOM     15  S   UNL     1      -1.826  -0.691   8.996  0.00  0.00    -0.027 S 
ATOM     16  S   UNL     1      -1.895   0.447   6.054  0.00  0.00    -0.061 S 
BRANCH  13  17
ATOM     17  C   UNL     1      -4.452  -1.927   7.780  0.00  0.00    +0.115 C 
BRANCH  17  18
ATOM     18  C   UNL     1      -5.487  -1.089   8.535  0.00  0.00    +0.024 C 
BRANCH  18  19
ATOM     19  C   UNL     1      -6.338  -2.004   9.418  0.00  0.00    +0.036 C 
BRANCH  19  20
ATOM     20  C   UNL     1      -7.357  -1.178  10.161  0.00  0.00    -0.047 A 
ATOM     21  C   UNL     1      -7.050  -0.657  11.404  0.00  0.00    +0.003 A 
ATOM     22  C   UNL     1      -7.983   0.103  12.084  0.00  0.00    +0.000 A 
ATOM     23  C   UNL     1      -9.226   0.335  11.524  0.00  0.00    +0.000 A 
ATOM     24  C   UNL     1      -9.534  -0.190  10.283  0.00  0.00    +0.000 A 
ATOM     25  C   UNL     1      -8.600  -0.947   9.602  0.00  0.00    +0.003 A 
ENDBRANCH  19  20
ENDBRANCH  18  19
ENDBRANCH  17  18
ENDBRANCH  13  17
ENDBRANCH   3   9
BRANCH   2  26
ATOM     26  N   UNL     1      -1.838  -0.512   1.452  0.00  0.00    -0.320 N 
ATOM     27  C   UNL     1      -3.188  -0.629   0.883  0.00  0.00    +0.088 C 
ATOM     28  C   UNL     1      -3.386  -2.044   0.335  0.00  0.00    -0.060 C 
ATOM     29  N   UNL     1      -3.188  -3.018   1.417  0.00  0.00    +0.380 N 
ATOM     30  C   UNL     1      -1.838  -2.901   1.987  0.00  0.00    -0.060 C 
ATOM     31  C   UNL     1      -1.640  -1.486   2.535  0.00  0.00    +0.088 C 
ATOM     32  C   UNL     1      -3.445  -4.386   0.948  0.00  0.00    -0.096 C 
ATOM     33  H   UNL     1      -3.913  -2.794   2.214  0.00  0.00    -0.082 HD
ENDBRANCH   2  26
BRANCH   1  35
ATOM     34  C   UNL     1      -0.538   1.355  -1.157  0.00  0.00    +0.027 C 
ATOM     35  C   UNL     1       0.115   0.945   0.165  0.00  0.00    +0.123 C 
ENDBRANCH   1  35
BRANCH   5  36
ATOM     36  C   UNL     1      -0.831   4.676   3.195  0.00  0.00    +0.105 C 
ATOM     37  N   UNL     1      -0.609   5.737   3.534  0.00  0.00    -0.191 NA
ENDBRANCH   5  36
TORSDOF 8
