REMARK  Name = ZINC64623036
REMARK  8 active torsions:
REMARK  status: ('A' for Active; 'I' for Inactive)
REMARK    1  A    between atoms: C_1  and  O_2
REMARK    2  A    between atoms: O_2  and  C_3
REMARK    3  A    between atoms: C_6  and  C_9
REMARK    4  A    between atoms: N_26  and  C_27
REMARK    5  A    between atoms: C_30  and  O_35
REMARK    6  A    between atoms: C_32  and  O_33
REMARK    7  A    between atoms: O_33  and  C_34
REMARK    8  A    between atoms: O_35  and  C_36
REMARK                            x       y       z     vdW  Elec       q    Type
REMARK                         _______ _______ _______ _____ _____    ______ ____
ROOT
ATOM      1  C   UNL     1       2.012  -3.247  -4.566  0.00  0.00    +0.134 C 
ATOM      2  C   UNL     1       1.285  -4.147  -5.571  0.00  0.00    +0.131 C 
ATOM      3  C   UNL     1       2.356  -4.738  -6.479  0.00  0.00    -0.035 C 
ATOM      4  C   UNL     1       2.013  -4.418  -7.721  0.00  0.00    -0.001 A 
ATOM      5  C   UNL     1       2.611  -4.760  -9.022  0.00  0.00    +0.010 A 
ATOM      6  C   UNL     1       1.997  -4.244 -10.119  0.00  0.00    +0.001 A 
ATOM      7  C   UNL     1       0.861  -3.430 -10.053  0.00  0.00    +0.002 A 
ATOM      8  C   UNL     1       0.242  -3.068  -8.901  0.00  0.00    +0.026 A 
ATOM      9  C   UNL     1       0.793  -3.555  -7.680  0.00  0.00    +0.043 A 
ATOM     10  N   UNL     1       0.384  -3.381  -6.435  0.00  0.00    -0.375 N 
ATOM     11  C   UNL     1       3.569  -5.457  -5.941  0.00  0.00    +0.052 C 
ATOM     12  C   UNL     1       4.193  -4.536  -4.877  0.00  0.00    +0.114 C 
ATOM     13  N   UNL     1       3.136  -4.012  -4.005  0.00  0.00    -0.276 N 
ATOM     14  C   UNL     1       3.195  -4.234  -2.677  0.00  0.00    +0.307 C 
ATOM     15  O   UNL     1       2.262  -3.917  -1.965  0.00  0.00    -0.252 OA
ATOM     16  N   UNL     1       4.289  -4.808  -2.138  0.00  0.00    -0.266 N 
ATOM     17  H   UNL     1       5.066  -4.986  -2.691  0.00  0.00    +0.156 HD
ATOM     18  H   UNL     1      -0.368  -2.846  -6.138  0.00  0.00    +0.160 HD
ENDROOT
BRANCH  16  19
ATOM     19  C   UNL     1       4.304  -5.149  -0.776  0.00  0.00    +0.078 A 
ATOM     20  C   UNL     1       3.515  -4.447   0.124  0.00  0.00    +0.050 A 
ATOM     21  C   UNL     1       3.531  -4.782   1.465  0.00  0.00    +0.084 A 
ATOM     22  C   UNL     1       4.335  -5.821   1.914  0.00  0.00    +0.142 A 
ATOM     23  C   UNL     1       5.125  -6.524   1.017  0.00  0.00    +0.094 A 
ATOM     24  C   UNL     1       5.107  -6.195  -0.328  0.00  0.00    +0.145 A 
ATOM     25 CL   UNL     1       2.543  -3.902   2.589  0.00  0.00    -0.080 Cl
BRANCH  24  26
ATOM     26  O   UNL     1       5.877  -6.888  -1.209  0.00  0.00    -0.493 OA
ATOM     27  C   UNL     1       6.675  -7.948  -0.679  0.00  0.00    +0.277 C 
ENDBRANCH  24  26
BRANCH  22  28
ATOM     28  O   UNL     1       4.349  -6.147   3.234  0.00  0.00    -0.494 OA
ATOM     29  C   UNL     1       5.200  -7.226   3.626  0.00  0.00    +0.277 C 
ENDBRANCH  22  28
ENDBRANCH  16  19
BRANCH   1  33
ATOM     30  C   UNL     1      -0.670  -2.113  -1.438  0.00  0.00    +0.120 A 
ATOM     31  C   UNL     1      -0.750  -3.380  -1.996  0.00  0.00    +0.046 A 
ATOM     32  C   UNL     1       0.118  -3.744  -3.007  0.00  0.00    +0.009 A 
ATOM     33  C   UNL     1       1.066  -2.847  -3.463  0.00  0.00    -0.024 A 
ATOM     34  C   UNL     1       1.148  -1.583  -2.908  0.00  0.00    +0.009 A 
ATOM     35  C   UNL     1       0.279  -1.212  -1.900  0.00  0.00    +0.046 A 
BRANCH  30  37
ATOM     36  C   UNL     1      -2.473  -2.730  -0.017  0.00  0.00    +0.277 C 
ATOM     37  O   UNL     1      -1.523  -1.752  -0.443  0.00  0.00    -0.495 OA
ENDBRANCH  30  37
ENDBRANCH   1  33
TORSDOF 5
