REMARK  Name = ZINC02531062
REMARK  9 active torsions:
REMARK  status: ('A' for Active; 'I' for Inactive)
REMARK    1  A    between atoms: C_1  and  C_2
REMARK    2  A    between atoms: C_6  and  O_8
REMARK    3  A    between atoms: O_8  and  C_9
REMARK    4  A    between atoms: C_9  and  C_10
REMARK    5  A    between atoms: N_12  and  N_13
REMARK    6  A    between atoms: C_14  and  C_15
REMARK    7  A    between atoms: C_20  and  O_21
REMARK    8  A    between atoms: O_21  and  C_22
REMARK    9  A    between atoms: C_22  and  C_24
REMARK                            x       y       z     vdW  Elec       q    Type
REMARK                         _______ _______ _______ _____ _____    ______ ____
ROOT
ATOM      1  C   UNL     1      -6.941  -4.874  -0.036  0.00  0.00    +0.038 A 
ATOM      2  C   UNL     1      -7.336  -6.213  -0.017  0.00  0.00    +0.028 A 
ATOM      3  C   UNL     1      -8.646  -6.540   0.268  0.00  0.00    +0.019 A 
ATOM      4  C   UNL     1      -9.571  -5.544   0.535  0.00  0.00    +0.019 A 
ATOM      5  C   UNL     1      -9.192  -4.215   0.520  0.00  0.00    +0.048 A 
ATOM      6  C   UNL     1      -7.880  -3.870   0.240  0.00  0.00    +0.141 A 
ATOM      7 BR   UNL     1      -9.181  -8.354   0.293  0.00  0.00    -0.050 Br
ENDROOT
BRANCH   1   9
ATOM      8  N   UNL     1      -5.193  -3.271  -0.415  0.00  0.00    -0.188 NA
ATOM      9  C   UNL     1      -5.543  -4.518  -0.340  0.00  0.00    +0.142 C 
BRANCH   8  12
ATOM     10  C   UNL     1      -3.502  -1.641  -0.806  0.00  0.00    +0.270 C 
ATOM     11  O   UNL     1      -4.301  -0.766  -0.543  0.00  0.00    -0.270 OA
ATOM     12  N   UNL     1      -3.893  -2.930  -0.811  0.00  0.00    -0.204 N 
ATOM     13  H   UNL     1      -3.274  -3.624  -1.089  0.00  0.00    +0.177 HD
BRANCH  10  14
ATOM     14  C   UNL     1      -2.074  -1.284  -1.128  0.00  0.00    +0.326 C 
BRANCH  14  15
ATOM     15  O   UNL     1      -1.909   0.133  -1.057  0.00  0.00    -0.483 OA
BRANCH  15  21
ATOM     16  C   UNL     1       1.073   3.973  -1.490  0.00  0.00    +0.044 C 
ATOM     17  C   UNL     1       0.822   2.488  -1.543  0.00  0.00    -0.047 A 
ATOM     18  C   UNL     1       1.852   1.624  -1.867  0.00  0.00    +0.003 A 
ATOM     19  C   UNL     1       1.624   0.261  -1.917  0.00  0.00    +0.004 A 
ATOM     20  C   UNL     1       0.366  -0.241  -1.643  0.00  0.00    +0.045 A 
ATOM     21  C   UNL     1      -0.670   0.624  -1.322  0.00  0.00    +0.121 A 
ATOM     22  C   UNL     1      -0.437   1.991  -1.268  0.00  0.00    +0.049 A 
ENDBRANCH  15  21
ENDBRANCH  14  15
ENDBRANCH  10  14
ENDBRANCH   8  12
ENDBRANCH   1   9
BRANCH   6  23
ATOM     23  O   UNL     1      -7.505  -2.565   0.230  0.00  0.00    -0.422 OA
BRANCH  23  24
ATOM     24  C   UNL     1      -7.549  -1.926  -0.955  0.00  0.00    +0.344 C 
ATOM     25  O   UNL     1      -7.809  -2.543  -1.969  0.00  0.00    -0.245 OA
BRANCH  24  26
ATOM     26  C   UNL     1      -7.281  -0.475  -1.022  0.00  0.00    +0.059 A 
ATOM     27  C   UNL     1      -6.994   0.239   0.143  0.00  0.00    +0.016 A 
ATOM     28  C   UNL     1      -6.740   1.593   0.073  0.00  0.00    +0.021 A 
ATOM     29  C   UNL     1      -6.779   2.246  -1.147  0.00  0.00    +0.041 A 
ATOM     30  C   UNL     1      -7.068   1.544  -2.306  0.00  0.00    +0.021 A 
ATOM     31  C   UNL     1      -7.319   0.189  -2.250  0.00  0.00    +0.016 A 
ATOM     32 CL   UNL     1      -6.464   3.951  -1.226  0.00  0.00    -0.084 Cl
ENDBRANCH  24  26
ENDBRANCH  23  24
ENDBRANCH   6  23
TORSDOF 8
