REMARK  Name = ZINC66791270
REMARK  8 active torsions:
REMARK  status: ('A' for Active; 'I' for Inactive)
REMARK    1  A    between atoms: C_1  and  C_2
REMARK    2  A    between atoms: C_3  and  C_13
REMARK    3  A    between atoms: C_5  and  C_7
REMARK    4  A    between atoms: C_13  and  N_14
REMARK    5  A    between atoms: C_15  and  C_17
REMARK    6  A    between atoms: C_17  and  C_19
REMARK    7  A    between atoms: C_17  and  N_26
REMARK    8  A    between atoms: C_19  and  C_20
REMARK                            x       y       z     vdW  Elec       q    Type
REMARK                         _______ _______ _______ _____ _____    ______ ____
ROOT
ATOM      1  N   UNL     1       1.367   0.042  -3.054  0.00  0.00    -0.309 N 
ATOM      2  C   UNL     1       1.600   0.510  -4.296  0.00  0.00    +0.234 C 
ATOM      3  O   UNL     1       0.670   0.775  -5.029  0.00  0.00    -0.274 OA
ATOM      4  H   UNL     1       2.110  -0.170  -2.468  0.00  0.00    +0.149 HD
ENDROOT
BRANCH   1   5
ATOM      5  C   UNL     1      -0.010  -0.149  -2.589  0.00  0.00    +0.148 C 
BRANCH   5   8
ATOM      6  C   UNL     1      -0.018   1.503   0.010  0.00  0.00    +0.066 C 
ATOM      7  C   UNL     1       0.002  -0.004   0.002  0.00  0.00    +0.051 A 
ATOM      8  C   UNL     1       0.005  -0.679  -1.179  0.00  0.00    +0.030 A 
ATOM      9  S   UNL     1       0.031  -2.368  -0.593  0.00  0.00    -0.070 S 
ATOM     10  C   UNL     1       0.035  -1.993   1.155  0.00  0.00    +0.109 A 
ATOM     11  N   UNL     1       0.022  -0.667   1.134  0.00  0.00    -0.244 NA
BRANCH  10  12
ATOM     12  C   UNL     1       0.053  -2.913   2.313  0.00  0.00    +0.007 A 
ATOM     13  C   UNL     1       0.076  -4.293   2.110  0.00  0.00    +0.010 A 
ATOM     14  C   UNL     1       0.092  -5.146   3.194  0.00  0.00    +0.001 A 
ATOM     15  C   UNL     1       0.086  -4.636   4.480  0.00  0.00    +0.000 A 
ATOM     16  C   UNL     1       0.063  -3.268   4.688  0.00  0.00    +0.001 A 
ATOM     17  C   UNL     1       0.053  -2.404   3.612  0.00  0.00    +0.010 A 
ENDBRANCH  10  12
ENDBRANCH   5   8
ENDBRANCH   1   5
BRANCH   2  18
ATOM     18  C   UNL     1       3.016   0.707  -4.774  0.00  0.00    +0.165 C 
BRANCH  18  19
ATOM     19  N   UNL     1       3.025   1.636  -5.906  0.00  0.00    -0.288 N 
ATOM     20  C   UNL     1       2.340   1.338  -7.028  0.00  0.00    +0.298 C 
ATOM     21  O   UNL     1       1.716   0.297  -7.101  0.00  0.00    -0.253 OA
ATOM     22  N   UNL     1       2.349   2.193  -8.069  0.00  0.00    -0.313 N 
ATOM     23  H   UNL     1       3.523   2.467  -5.848  0.00  0.00    +0.151 HD
ATOM     24  H   UNL     1       2.847   3.024  -8.011  0.00  0.00    +0.146 HD
ATOM     25  H   UNL     1       1.856   1.979  -8.877  0.00  0.00    +0.146 HD
ENDBRANCH  18  19
BRANCH  18  26
ATOM     26  C   UNL     1       3.596  -0.639  -5.214  0.00  0.00    +0.067 C 
BRANCH  26  27
ATOM     27  C   UNL     1       5.049  -0.465  -5.575  0.00  0.00    -0.045 A 
ATOM     28  C   UNL     1       5.405  -0.143  -6.872  0.00  0.00    +0.004 A 
ATOM     29  C   UNL     1       6.737   0.017  -7.203  0.00  0.00    +0.000 A 
ATOM     30  C   UNL     1       7.714  -0.145  -6.239  0.00  0.00    +0.000 A 
ATOM     31  C   UNL     1       7.358  -0.466  -4.942  0.00  0.00    +0.000 A 
ATOM     32  C   UNL     1       6.025  -0.621  -4.609  0.00  0.00    +0.004 A 
ENDBRANCH  26  27
ENDBRANCH  18  26
ENDBRANCH   2  18
TORSDOF 7
