REMARK  Name = ZINC56325864
REMARK  5 active torsions:
REMARK  status: ('A' for Active; 'I' for Inactive)
REMARK    1  A    between atoms: C_3  and  N_23
REMARK    2  A    between atoms: C_6  and  C_7
REMARK    3  A    between atoms: C_7  and  N_8
REMARK    4  A    between atoms: C_9  and  C_11
REMARK    5  A    between atoms: C_17  and  C_19
REMARK                            x       y       z     vdW  Elec       q    Type
REMARK                         _______ _______ _______ _____ _____    ______ ____
ROOT
ATOM      1  C   UNL     1      -1.429  -0.641  -0.068  0.00  0.00    +0.139 C 
ENDROOT
BRANCH   1   7
ATOM      2  C   UNL     1      -0.217   1.536  -0.303  0.00  0.00    +0.007 A 
ATOM      3  C   UNL     1       0.942   2.286  -0.305  0.00  0.00    +0.023 A 
ATOM      4  C   UNL     1       2.165   1.672  -0.070  0.00  0.00    +0.035 A 
ATOM      5  C   UNL     1       2.218   0.304   0.164  0.00  0.00    +0.023 A 
ATOM      6  C   UNL     1       1.055  -0.441   0.164  0.00  0.00    +0.007 A 
ATOM      7  C   UNL     1      -0.162   0.175  -0.069  0.00  0.00    -0.030 A 
BRANCH   4   8
ATOM      8  N   UNL     1       3.342   2.429  -0.071  0.00  0.00    -0.270 N 
ATOM      9  C   UNL     1       3.335   3.687   0.412  0.00  0.00    +0.301 C 
ATOM     10  O   UNL     1       2.290   4.193   0.774  0.00  0.00    -0.253 OA
ATOM     11  N   UNL     1       4.486   4.383   0.496  0.00  0.00    -0.313 N 
ATOM     12  H   UNL     1       4.163   2.048  -0.421  0.00  0.00    +0.156 HD
ATOM     13  H   UNL     1       5.319   3.979   0.208  0.00  0.00    +0.146 HD
ATOM     14  H   UNL     1       4.480   5.288   0.844  0.00  0.00    +0.146 HD
ENDBRANCH   4   8
ENDBRANCH   1   7
BRANCH   1  15
ATOM     15  N   UNL     1      -1.695  -1.132  -1.422  0.00  0.00    -0.311 N 
ATOM     16  C   UNL     1      -2.784  -1.889  -1.663  0.00  0.00    +0.217 C 
ATOM     17  O   UNL     1      -3.543  -2.164  -0.758  0.00  0.00    -0.275 OA
ATOM     18  H   UNL     1      -1.088  -0.912  -2.146  0.00  0.00    +0.149 HD
BRANCH  16  19
ATOM     19  C   UNL     1      -3.057  -2.394  -3.056  0.00  0.00    +0.086 C 
ATOM     20  C   UNL     1      -4.356  -1.776  -3.577  0.00  0.00    +0.013 C 
ATOM     21  C   UNL     1      -4.634  -2.289  -4.991  0.00  0.00    +0.001 C 
ATOM     22  C   UNL     1      -4.769  -3.813  -4.964  0.00  0.00    +0.001 C 
ATOM     23  C   UNL     1      -3.470  -4.431  -4.443  0.00  0.00    +0.013 C 
ATOM     24  C   UNL     1      -3.192  -3.918  -3.029  0.00  0.00    +0.105 C 
BRANCH  24  25
ATOM     25  C   UNL     1      -1.893  -4.536  -2.508  0.00  0.00    +0.394 C 
ATOM     26  F   UNL     1      -1.706  -4.171  -1.171  0.00  0.00    -0.170 F 
ATOM     27  F   UNL     1      -1.968  -5.930  -2.605  0.00  0.00    -0.170 F 
ATOM     28  F   UNL     1      -0.817  -4.073  -3.273  0.00  0.00    -0.170 F 
ENDBRANCH  24  25
ENDBRANCH  16  19
ENDBRANCH   1  15
TORSDOF 5
