REMARK  Name = ZINC28826205
REMARK  5 active torsions:
REMARK  status: ('A' for Active; 'I' for Inactive)
REMARK    1  A    between atoms: N_4  and  C_8
REMARK    2  A    between atoms: C_11  and  C_14
REMARK    3  A    between atoms: N_16  and  C_17
REMARK    4  A    between atoms: C_22  and  N_24
REMARK    5  A    between atoms: C_25  and  C_27
REMARK                            x       y       z     vdW  Elec       q    Type
REMARK                         _______ _______ _______ _____ _____    ______ ____
ROOT
ATOM      1  C   UNL     1       1.147   1.655   0.000  0.00  0.00    +0.244 C 
ATOM      2  O   UNL     1       1.087   2.784   0.449  0.00  0.00    -0.270 OA
ATOM      3  N   UNL     1       0.037   1.062  -0.483  0.00  0.00    -0.309 N 
ATOM      4  H   UNL     1       0.090   0.040  -0.885  0.00  0.00    +0.149 HD
ENDROOT
BRANCH   3   5
ATOM      5  C   UNL     1      -1.240   1.780  -0.472  0.00  0.00    +0.075 C 
ATOM      6  C   UNL     1      -1.444   2.556  -1.798  0.00  0.00    -0.058 C 
ATOM      7  N   UNL     1      -2.921   2.692  -1.888  0.00  0.00    +0.381 N 
ATOM      8  C   UNL     1      -3.474   1.408  -1.408  0.00  0.00    -0.058 C 
ATOM      9  C   UNL     1      -2.425   0.786  -0.468  0.00  0.00    +0.075 C 
ATOM     10  H   UNL     1      -3.251   3.530  -1.256  0.00  0.00    -0.086 HD
ATOM     11  H   UNL     1      -3.208   2.886  -2.932  0.00  0.00    -0.086 HD
BRANCH   9  12
ATOM     12  N   UNL     1      -1.997  -0.519  -0.976  0.00  0.00    -0.308 N 
ATOM     13  C   UNL     1      -2.660  -1.635  -0.612  0.00  0.00    +0.251 C 
ATOM     14  O   UNL     1      -3.615  -1.557   0.139  0.00  0.00    -0.270 OA
ATOM     15  H   UNL     1      -1.134  -0.589  -1.654  0.00  0.00    +0.149 HD
BRANCH  13  16
ATOM     16  C   UNL     1      -2.232  -2.940  -1.120  0.00  0.00    +0.075 A 
ATOM     17  C   UNL     1      -2.770  -4.193  -0.872  0.00  0.00    +0.022 A 
ATOM     18  C   UNL     1      -2.167  -5.264  -1.483  0.00  0.00    +0.028 A 
ATOM     19  C   UNL     1      -1.091  -5.050  -2.288  0.00  0.00    +0.079 A 
ATOM     20  S   UNL     1      -0.886  -3.330  -2.225  0.00  0.00    -0.072 S 
ATOM     21 CL   UNL     1      -0.155  -6.216  -3.169  0.00  0.00    -0.076 Cl
ENDBRANCH  13  16
ENDBRANCH   9  12
ENDBRANCH   3   5
BRANCH   1  25
ATOM     22  C   UNL     1       4.854  -0.418  -0.046  0.00  0.00    +0.049 A 
ATOM     23  C   UNL     1       4.787   0.873   0.468  0.00  0.00    +0.027 A 
ATOM     24  C   UNL     1       3.587   1.548   0.484  0.00  0.00    +0.015 A 
ATOM     25  C   UNL     1       2.436   0.935  -0.016  0.00  0.00    +0.037 A 
ATOM     26  C   UNL     1       2.505  -0.364  -0.526  0.00  0.00    +0.015 A 
ATOM     27  C   UNL     1       3.709  -1.032  -0.544  0.00  0.00    +0.027 A 
BRANCH  22  31
ATOM     28  C   UNL     1       8.469  -2.443  -0.086  0.00  0.00    +0.007 A 
ATOM     29  C   UNL     1       7.601  -2.540   1.012  0.00  0.00    +0.018 A 
ATOM     30  C   UNL     1       6.426  -1.870   1.004  0.00  0.00    +0.095 A 
ATOM     31  N   UNL     1       6.073  -1.100  -0.060  0.00  0.00    -0.284 N 
ATOM     32  C   UNL     1       6.883  -0.992  -1.131  0.00  0.00    +0.256 A 
ATOM     33  O   UNL     1       6.550  -0.302  -2.080  0.00  0.00    -0.267 OA
ATOM     34  C   UNL     1       8.113  -1.671  -1.152  0.00  0.00    +0.071 A 
ENDBRANCH  22  31
ENDBRANCH   1  25
TORSDOF 5
