REMARK  Name = ZINC24950161
REMARK  5 active torsions:
REMARK  status: ('A' for Active; 'I' for Inactive)
REMARK    1  A    between atoms: C_4  and  N_7
REMARK    2  A    between atoms: C_8  and  C_10
REMARK    3  A    between atoms: C_10  and  N_11
REMARK    4  A    between atoms: C_14  and  N_17
REMARK    5  A    between atoms: C_20  and  C_27
REMARK                            x       y       z     vdW  Elec       q    Type
REMARK                         _______ _______ _______ _____ _____    ______ ____
ROOT
ATOM      1  N   UNL     1       3.897   4.060   4.655  0.00  0.00    +0.386 N 
ATOM      2  C   UNL     1       3.160   2.828   4.961  0.00  0.00    -0.076 C 
ATOM      3  C   UNL     1       2.305   2.431   3.755  0.00  0.00    +0.003 C 
ATOM      4  C   UNL     1       1.329   3.566   3.432  0.00  0.00    +0.068 C 
ATOM      5  C   UNL     1       2.119   4.850   3.166  0.00  0.00    +0.003 C 
ATOM      6  C   UNL     1       2.980   5.176   4.388  0.00  0.00    -0.076 C 
ATOM      7  H   UNL     1       4.484   3.882   3.741  0.00  0.00    -0.081 HD
ENDROOT
BRANCH   4   8
ATOM      8  N   UNL     1       0.547   3.216   2.243  0.00  0.00    -0.326 N 
ATOM      9  C   UNL     1      -0.700   3.781   2.044  0.00  0.00    +0.131 A 
ATOM     10  C   UNL     1      -1.518   3.354   0.964  0.00  0.00    +0.055 A 
ATOM     11  C   UNL     1      -1.260   2.343  -0.056  0.00  0.00    +0.002 A 
ATOM     12  C   UNL     1      -2.204   2.113  -0.999  0.00  0.00    +0.056 A 
ATOM     13  S   UNL     1      -3.513   3.243  -0.561  0.00  0.00    -0.076 S 
ATOM     14  C   UNL     1      -2.767   3.999   0.859  0.00  0.00    +0.114 A 
ATOM     15  N   UNL     1      -3.132   4.934   1.715  0.00  0.00    -0.228 NA
ATOM     16  C   UNL     1      -2.329   5.289   2.698  0.00  0.00    +0.224 A 
ATOM     17  N   UNL     1      -1.144   4.726   2.857  0.00  0.00    -0.220 NA
ATOM     18  H   UNL     1       0.953   2.504   1.509  0.00  0.00    +0.148 HD
BRANCH  11  19
ATOM     19  C   UNL     1       0.015   1.587  -0.065  0.00  0.00    -0.016 A 
ATOM     20  C   UNL     1       0.857   1.647  -1.174  0.00  0.00    +0.011 A 
ATOM     21  C   UNL     1       2.040   0.937  -1.180  0.00  0.00    +0.039 A 
ATOM     22  C   UNL     1       2.391   0.164  -0.085  0.00  0.00    +0.123 A 
ATOM     23  C   UNL     1       1.558   0.101   1.020  0.00  0.00    +0.039 A 
ATOM     24  C   UNL     1       0.373   0.808   1.035  0.00  0.00    +0.011 A 
ATOM     25  F   UNL     1       3.550  -0.529  -0.095  0.00  0.00    -0.205 F 
ENDBRANCH  11  19
ENDBRANCH   4   8
BRANCH   1  26
ATOM     26  C   UNL     1       4.833   4.396   5.737  0.00  0.00    +0.019 C 
BRANCH  26  28
ATOM     27  N   UNL     1       6.821   3.382   6.805  0.00  0.00    -0.287 N 
ATOM     28  C   UNL     1       5.915   3.349   5.807  0.00  0.00    +0.201 C 
ATOM     29  O   UNL     1       5.970   2.476   4.967  0.00  0.00    -0.278 OA
ATOM     30  H   UNL     1       6.728   4.128   7.607  0.00  0.00    +0.155 HD
BRANCH  27  34
ATOM     31  C   UNL     1       9.974   0.659   6.846  0.00  0.00    +0.000 A 
ATOM     32  C   UNL     1      10.175   1.954   7.288  0.00  0.00    +0.002 A 
ATOM     33  C   UNL     1       9.132   2.859   7.275  0.00  0.00    +0.023 A 
ATOM     34  C   UNL     1       7.880   2.468   6.819  0.00  0.00    +0.033 A 
ATOM     35  C   UNL     1       7.680   1.165   6.381  0.00  0.00    +0.023 A 
ATOM     36  C   UNL     1       8.729   0.266   6.392  0.00  0.00    +0.002 A 
ENDBRANCH  27  34
ENDBRANCH  26  28
ENDBRANCH   1  26
TORSDOF 5
