REMARK  Name = ZINC64790084
REMARK  10 active torsions:
REMARK  status: ('A' for Active; 'I' for Inactive)
REMARK    1  A    between atoms: C_1  and  C_2
REMARK    2  A    between atoms: C_4  and  C_15
REMARK    3  A    between atoms: C_5  and  N_7
REMARK    4  A    between atoms: C_8  and  C_10
REMARK    5  A    between atoms: C_15  and  C_17
REMARK    6  A    between atoms: C_15  and  N_27
REMARK    7  A    between atoms: C_21  and  O_25
REMARK    8  A    between atoms: C_22  and  O_23
REMARK    9  A    between atoms: O_23  and  C_24
REMARK   10  A    between atoms: O_25  and  C_26
REMARK                            x       y       z     vdW  Elec       q    Type
REMARK                         _______ _______ _______ _____ _____    ______ ____
ROOT
ATOM      1  C   UNL     1      -1.691  -3.182   0.234  0.00  0.00    +0.138 C 
ENDROOT
BRANCH   1   2
ATOM      2  N   UNL     1      -2.552  -2.032  -0.055  0.00  0.00    -0.319 N 
ATOM      3  C   UNL     1      -3.844  -2.233  -0.528  0.00  0.00    +0.097 A 
ATOM      4  C   UNL     1      -4.314  -3.529  -0.719  0.00  0.00    +0.041 A 
ATOM      5  C   UNL     1      -5.601  -3.714  -1.190  0.00  0.00    +0.005 A 
ATOM      6  C   UNL     1      -6.378  -2.593  -1.455  0.00  0.00    +0.018 A 
ATOM      7  C   UNL     1      -5.847  -1.337  -1.243  0.00  0.00    +0.084 A 
ATOM      8  N   UNL     1      -4.617  -1.190  -0.787  0.00  0.00    -0.350 N 
ATOM      9  H   UNL     1      -2.221  -1.131   0.084  0.00  0.00    +0.148 HD
ATOM     10  H   UNL     1      -4.270  -0.296  -0.643  0.00  0.00    +0.166 HD
ENDBRANCH   1   2
BRANCH   1  14
ATOM     11  C   UNL     1       2.034   0.291   0.317  0.00  0.00    +0.051 C 
ATOM     12  C   UNL     1       1.410  -1.077   0.216  0.00  0.00    -0.011 A 
ATOM     13  C   UNL     1       0.102  -1.425   0.283  0.00  0.00    +0.018 A 
ATOM     14  C   UNL     1      -0.247  -2.757   0.164  0.00  0.00    +0.006 A 
ATOM     15  C   UNL     1       0.740  -3.680  -0.017  0.00  0.00    +0.078 A 
ATOM     16  S   UNL     1       2.203  -2.658  -0.030  0.00  0.00    -0.078 S 
BRANCH  15  17
ATOM     17  N   UNL     1       0.633  -5.065  -0.161  0.00  0.00    -0.273 N 
ATOM     18  C   UNL     1       1.745  -5.824  -0.217  0.00  0.00    +0.284 C 
ATOM     19  O   UNL     1       2.837  -5.318  -0.039  0.00  0.00    -0.266 OA
ATOM     20  H   UNL     1      -0.242  -5.480  -0.221  0.00  0.00    +0.156 HD
BRANCH  18  21
ATOM     21  C   UNL     1       1.639  -7.261  -0.491  0.00  0.00    +0.189 A 
ATOM     22  C   UNL     1       2.679  -8.142  -0.570  0.00  0.00    +0.054 A 
ATOM     23  C   UNL     1       2.122  -9.400  -0.847  0.00  0.00    +0.042 A 
ATOM     24  C   UNL     1       0.783  -9.234  -0.925  0.00  0.00    +0.196 A 
ATOM     25  O   UNL     1       0.495  -7.945  -0.706  0.00  0.00    -0.458 OA
ENDBRANCH  18  21
ENDBRANCH  15  17
ENDBRANCH   1  14
BRANCH   1  26
ATOM     26  C   UNL     1      -1.995  -3.703   1.615  0.00  0.00    +0.022 A 
ATOM     27  C   UNL     1      -2.131  -5.063   1.826  0.00  0.00    +0.009 A 
ATOM     28  C   UNL     1      -2.410  -5.544   3.091  0.00  0.00    +0.004 A 
ATOM     29  C   UNL     1      -2.555  -4.668   4.152  0.00  0.00    +0.049 A 
ATOM     30  C   UNL     1      -2.420  -3.304   3.946  0.00  0.00    +0.162 A 
ATOM     31  C   UNL     1      -2.133  -2.820   2.673  0.00  0.00    +0.167 A 
BRANCH  31  32
ATOM     32  O   UNL     1      -1.994  -1.483   2.468  0.00  0.00    -0.491 OA
ATOM     33  C   UNL     1      -3.195  -0.716   2.357  0.00  0.00    +0.277 C 
ENDBRANCH  31  32
BRANCH  30  34
ATOM     34  O   UNL     1      -2.562  -2.441   4.988  0.00  0.00    -0.491 OA
ATOM     35  C   UNL     1      -2.851  -3.010   6.267  0.00  0.00    +0.277 C 
ENDBRANCH  30  34
ENDBRANCH   1  26
TORSDOF 7
