REMARK  Name = ZINC48302982
REMARK  5 active torsions:
REMARK  status: ('A' for Active; 'I' for Inactive)
REMARK    1  A    between atoms: C_1  and  C_2
REMARK    2  A    between atoms: C_12  and  C_14
REMARK    3  A    between atoms: C_17  and  O_20
REMARK    4  A    between atoms: O_20  and  C_21
REMARK    5  A    between atoms: C_21  and  C_22
REMARK                            x       y       z     vdW  Elec       q    Type
REMARK                         _______ _______ _______ _____ _____    ______ ____
ROOT
ATOM      1  C   UNL     1      -0.479   1.440   0.300  0.00  0.00    +0.044 C 
ATOM      2  C   UNL     1      -0.505  -0.065   0.217  0.00  0.00    -0.050 A 
ATOM      3  C   UNL     1       0.115  -0.709  -0.838  0.00  0.00    +0.005 A 
ATOM      4  C   UNL     1       0.089  -2.087  -0.914  0.00  0.00    +0.024 A 
ATOM      5  C   UNL     1      -0.559  -2.826   0.069  0.00  0.00    +0.040 A 
ATOM      6  C   UNL     1      -1.178  -2.180   1.128  0.00  0.00    -0.026 A 
ATOM      7  C   UNL     1      -1.144  -0.797   1.198  0.00  0.00    +0.008 A 
ATOM      8  C   UNL     1      -1.880  -2.949   2.216  0.00  0.00    +0.038 C 
ATOM      9  C   UNL     1      -2.242  -4.353   1.732  0.00  0.00    +0.024 C 
ATOM     10  C   UNL     1      -0.990  -5.012   1.140  0.00  0.00    +0.114 C 
ATOM     11  N   UNL     1      -0.577  -4.223  -0.029  0.00  0.00    -0.267 N 
ATOM     12  C   UNL     1      -0.224  -4.834  -1.177  0.00  0.00    +0.252 C 
ATOM     13  O   UNL     1      -0.006  -4.174  -2.175  0.00  0.00    -0.270 OA
ENDROOT
BRANCH  12  14
ATOM     14  C   UNL     1      -0.100  -6.304  -1.223  0.00  0.00    +0.056 A 
ATOM     15  C   UNL     1      -0.274  -6.996  -2.431  0.00  0.00    +0.020 A 
ATOM     16  C   UNL     1      -0.147  -8.370  -2.424  0.00  0.00    +0.068 A 
ATOM     17  C   UNL     1       0.146  -9.019  -1.228  0.00  0.00    +0.215 A 
ATOM     18  N   UNL     1       0.304  -8.338  -0.104  0.00  0.00    -0.221 NA
ATOM     19  C   UNL     1       0.198  -7.026  -0.067  0.00  0.00    +0.127 A 
BRANCH  17  20
ATOM     20  O   UNL     1       0.272 -10.368  -1.215  0.00  0.00    -0.467 OA
BRANCH  20  21
ATOM     21  C   UNL     1       0.574 -10.979   0.041  0.00  0.00    +0.343 C 
BRANCH  21  22
ATOM     22  C   UNL     1       0.676 -12.495  -0.141  0.00  0.00    +0.424 C 
ATOM     23  F   UNL     1       1.691 -12.788  -1.058  0.00  0.00    -0.167 F 
ATOM     24  F   UNL     1       0.971 -13.093   1.089  0.00  0.00    -0.167 F 
ATOM     25  F   UNL     1      -0.542 -12.991  -0.620  0.00  0.00    -0.167 F 
ENDBRANCH  21  22
ENDBRANCH  20  21
ENDBRANCH  17  20
ENDBRANCH  12  14
TORSDOF 4
