REMARK  Name = ZINC40341187
REMARK  13 active torsions:
REMARK  status: ('A' for Active; 'I' for Inactive)
REMARK    1  A    between atoms: C_1  and  C_2
REMARK    2  A    between atoms: C_2  and  O_3
REMARK    3  A    between atoms: O_3  and  C_4
REMARK    4  A    between atoms: C_7  and  C_13
REMARK    5  A    between atoms: C_9  and  O_10
REMARK    6  A    between atoms: O_10  and  C_11
REMARK    7  A    between atoms: C_11  and  C_12
REMARK    8  A    between atoms: C_16  and  C_33
REMARK    9  A    between atoms: N_23  and  C_24
REMARK   10  A    between atoms: C_24  and  C_25
REMARK   11  A    between atoms: C_28  and  O_31
REMARK   12  A    between atoms: O_31  and  C_32
REMARK   13  A    between atoms: C_36  and  C_39
REMARK                            x       y       z     vdW  Elec       q    Type
REMARK                         _______ _______ _______ _____ _____    ______ ____
ROOT
ATOM      1  C   UNL     1       1.107  -6.044  -1.844  0.00  0.00    +0.142 C 
ATOM      2  C   UNL     1      -0.189  -6.606  -2.361  0.00  0.00    +0.035 A 
ATOM      3  C   UNL     1      -1.143  -6.621  -3.385  0.00  0.00    +0.099 A 
ATOM      4  N   UNL     1      -2.082  -7.477  -3.036  0.00  0.00    -0.173 NA
ATOM      5  N   UNL     1      -1.816  -8.005  -1.894  0.00  0.00    -0.272 N 
ATOM      6  H   UNL     1      -2.369  -8.662  -1.442  0.00  0.00    +0.189 HD
ATOM      7  C   UNL     1      -0.641  -7.503  -1.413  0.00  0.00    +0.126 A 
ATOM      8  C   UNL     1       0.321  -7.535  -0.305  0.00  0.00    +0.266 C 
ATOM      9  O   UNL     1       0.212  -8.226   0.690  0.00  0.00    -0.268 OA
ATOM     10  N   UNL     1       1.342  -6.691  -0.546  0.00  0.00    -0.281 N 
ENDROOT
BRANCH   3  11
ATOM     11  C   UNL     1      -1.104  -5.819  -4.633  0.00  0.00    +0.002 A 
ATOM     12  C   UNL     1      -0.573  -4.531  -4.621  0.00  0.00    +0.010 A 
ATOM     13  C   UNL     1      -0.539  -3.790  -5.785  0.00  0.00    +0.004 A 
ATOM     14  C   UNL     1      -1.031  -4.324  -6.962  0.00  0.00    -0.050 A 
ATOM     15  C   UNL     1      -1.560  -5.602  -6.980  0.00  0.00    +0.004 A 
ATOM     16  C   UNL     1      -1.593  -6.354  -5.823  0.00  0.00    +0.010 A 
ATOM     17  C   UNL     1      -0.992  -3.510  -8.230  0.00  0.00    +0.044 C 
ENDBRANCH   3  11
BRANCH   1  21
ATOM     18  C   UNL     1       0.777  -1.811  -1.336  0.00  0.00    +0.162 A 
ATOM     19  C   UNL     1       0.243  -2.669  -0.388  0.00  0.00    +0.050 A 
ATOM     20  C   UNL     1       0.352  -4.037  -0.555  0.00  0.00    +0.009 A 
ATOM     21  C   UNL     1       0.992  -4.552  -1.667  0.00  0.00    -0.019 A 
ATOM     22  C   UNL     1       1.526  -3.702  -2.616  0.00  0.00    +0.055 A 
ATOM     23  C   UNL     1       1.416  -2.330  -2.458  0.00  0.00    +0.162 A 
BRANCH  18  24
ATOM     24  O   UNL     1       0.671  -0.465  -1.174  0.00  0.00    -0.489 OA
BRANCH  24  26
ATOM     25  C   UNL     1      -0.019   1.526   0.010  0.00  0.00    +0.048 C 
ATOM     26  C   UNL     1       0.002  -0.004   0.002  0.00  0.00    +0.226 C 
ENDBRANCH  24  26
ENDBRANCH  18  24
BRANCH  23  27
ATOM     27  O   UNL     1       1.936  -1.492  -3.394  0.00  0.00    -0.489 OA
BRANCH  27  28
ATOM     28  C   UNL     1       2.578  -2.095  -4.520  0.00  0.00    +0.226 C 
ATOM     29  C   UNL     1       3.096  -1.002  -5.457  0.00  0.00    +0.048 C 
ENDBRANCH  27  28
ENDBRANCH  23  27
ENDBRANCH   1  21
BRANCH  10  30
ATOM     30  C   UNL     1       2.490  -6.456   0.334  0.00  0.00    +0.144 C 
BRANCH  30  31
ATOM     31  C   UNL     1       2.172  -5.331   1.285  0.00  0.00    -0.030 A 
ATOM     32  C   UNL     1       2.463  -4.026   0.932  0.00  0.00    +0.009 A 
ATOM     33  C   UNL     1       2.173  -2.993   1.802  0.00  0.00    +0.046 A 
ATOM     34  C   UNL     1       1.589  -3.265   3.031  0.00  0.00    +0.120 A 
ATOM     35  C   UNL     1       1.298  -4.575   3.382  0.00  0.00    +0.046 A 
ATOM     36  C   UNL     1       1.585  -5.605   2.506  0.00  0.00    +0.009 A 
BRANCH  34  37
ATOM     37  O   UNL     1       1.303  -2.251   3.889  0.00  0.00    -0.495 OA
ATOM     38  C   UNL     1       0.703  -2.606   5.136  0.00  0.00    +0.277 C 
ENDBRANCH  34  37
ENDBRANCH  30  31
ENDBRANCH  10  30
TORSDOF 9
