REMARK  Name = ZINC18193448
REMARK  8 active torsions:
REMARK  status: ('A' for Active; 'I' for Inactive)
REMARK    1  A    between atoms: C_1  and  N_2
REMARK    2  A    between atoms: N_4  and  C_5
REMARK    3  A    between atoms: N_7  and  C_8
REMARK    4  A    between atoms: C_8  and  C_9
REMARK    5  A    between atoms: C_9  and  S_10
REMARK    6  A    between atoms: S_10  and  C_11
REMARK    7  A    between atoms: C_11  and  C_12
REMARK    8  A    between atoms: C_15  and  N_17
REMARK                            x       y       z     vdW  Elec       q    Type
REMARK                         _______ _______ _______ _____ _____    ______ ____
ROOT
ATOM      1  C   UNL     1       0.876   4.637   6.388  0.00  0.00    +0.125 C 
ENDROOT
BRANCH   1   2
ATOM      2  C   UNL     1       1.650   5.924   6.260  0.00  0.00    +0.061 A 
ATOM      3  C   UNL     1       2.869   5.926   5.667  0.00  0.00    +0.073 A 
ATOM      4  S   UNL     1       3.298   7.657   5.792  0.00  0.00    -0.056 S 
ATOM      5  C   UNL     1       1.807   8.193   6.621  0.00  0.00    +0.196 A 
ATOM      6  N   UNL     1       1.140   7.048   6.719  0.00  0.00    -0.225 NA
BRANCH   5   7
ATOM      7  N   UNL     1       1.450   9.438   7.035  0.00  0.00    -0.189 NA
ATOM      8  C   UNL     1       0.351   9.607   7.739  0.00  0.00    +0.195 C 
ATOM      9  N   UNL     1      -0.352   8.518   8.184  0.00  0.00    -0.370 N 
ATOM     10  N   UNL     1      -0.090  10.872   8.027  0.00  0.00    -0.370 N 
ATOM     11  H   UNL     1       0.007   7.625   8.062  0.00  0.00    +0.159 HD
ATOM     12  H   UNL     1       0.407  11.643   7.713  0.00  0.00    +0.159 HD
ATOM     13  H   UNL     1      -0.901  10.997   8.546  0.00  0.00    +0.159 HD
ATOM     14  H   UNL     1      -1.210   8.639   8.621  0.00  0.00    +0.159 HD
ENDBRANCH   5   7
ENDBRANCH   1   2
BRANCH   1  15
ATOM     15  S   UNL     1      -0.167   4.410   4.921  0.00  0.00    -0.153 S 
BRANCH  15  16
ATOM     16  C   UNL     1      -1.020   2.838   5.229  0.00  0.00    +0.090 C 
BRANCH  16  17
ATOM     17  C   UNL     1      -1.945   2.522   4.052  0.00  0.00    +0.126 C 
BRANCH  17  22
ATOM     18  C   UNL     1      -4.648   0.887   1.212  0.00  0.00    +0.142 C 
ATOM     19  N   UNL     1      -3.684   1.405   2.185  0.00  0.00    -0.358 N 
ATOM     20  C   UNL     1      -3.439   0.713   3.338  0.00  0.00    +0.208 C 
ATOM     21  N   UNL     1      -3.981  -0.478   3.521  0.00  0.00    -0.138 NA
ATOM     22  N   UNL     1      -2.634   1.253   4.300  0.00  0.00    -0.354 N 
ATOM     23  H   UNL     1      -3.219   2.238   2.012  0.00  0.00    +0.162 HD
ATOM     24  H   UNL     1      -2.519   0.796   5.148  0.00  0.00    +0.163 HD
BRANCH  21  25
ATOM     25  C   UNL     1      -4.661  -1.075   2.513  0.00  0.00    +0.208 C 
ATOM     26  N   UNL     1      -5.232  -1.576   1.668  0.00  0.00    -0.169 NA
ENDBRANCH  21  25
ENDBRANCH  17  22
ENDBRANCH  16  17
ENDBRANCH  15  16
ENDBRANCH   1  15
TORSDOF 7
