REMARK  Name = ZINC58203155
REMARK  6 active torsions:
REMARK  status: ('A' for Active; 'I' for Inactive)
REMARK    1  A    between atoms: C_1  and  C_2
REMARK    2  A    between atoms: C_5  and  N_9
REMARK    3  A    between atoms: C_13  and  S_15
REMARK    4  A    between atoms: S_15  and  C_16
REMARK    5  A    between atoms: C_16  and  C_17
REMARK    6  A    between atoms: C_17  and  C_19
REMARK                            x       y       z     vdW  Elec       q    Type
REMARK                         _______ _______ _______ _____ _____    ______ ____
ROOT
ATOM      1  N   UNL     1       0.057  -4.169  -0.022  0.00  0.00    -0.292 N 
ATOM      2  C   UNL     1       0.177  -4.870   1.173  0.00  0.00    +0.187 A 
ATOM      3  N   UNL     1       0.191  -4.415   2.410  0.00  0.00    -0.125 NA
ATOM      4  N   UNL     1       0.321  -5.294   3.461  0.00  0.00    -0.133 NA
ATOM      5  C   UNL     1       0.432  -6.587   3.225  0.00  0.00    +0.160 A 
ATOM      6  S   UNL     1       0.347  -6.628   1.441  0.00  0.00    -0.024 S 
ATOM      7  H   UNL     1      -0.021  -4.649  -0.861  0.00  0.00    +0.154 HD
ENDROOT
BRANCH   1  12
ATOM      8  C   UNL     1       0.030   1.503   0.010  0.00  0.00    +0.045 C 
ATOM      9  C   UNL     1       0.037  -0.004   0.001  0.00  0.00    -0.032 A 
ATOM     10  C   UNL     1       0.648  -0.697   1.030  0.00  0.00    +0.006 A 
ATOM     11  C   UNL     1       0.656  -2.078   1.026  0.00  0.00    +0.023 A 
ATOM     12  C   UNL     1       0.050  -2.772  -0.014  0.00  0.00    +0.034 A 
ATOM     13  C   UNL     1      -0.563  -2.073  -1.047  0.00  0.00    +0.043 A 
ATOM     14  C   UNL     1      -0.573  -0.691  -1.033  0.00  0.00    +0.046 A 
ATOM     15 CL   UNL     1      -1.345   0.183  -2.319  0.00  0.00    -0.083 Cl
ENDBRANCH   1  12
BRANCH   5  16
ATOM     16  S   UNL     1       0.610  -7.919   4.365  0.00  0.00    -0.089 S 
BRANCH  16  17
ATOM     17  C   UNL     1       0.607  -7.110   5.989  0.00  0.00    +0.156 C 
BRANCH  17  18
ATOM     18  C   UNL     1       0.755  -8.151   7.068  0.00  0.00    +0.173 C 
ATOM     19  O   UNL     1       0.852  -9.323   6.772  0.00  0.00    -0.291 OA
BRANCH  18  20
ATOM     20  C   UNL     1       0.781  -7.746   8.480  0.00  0.00    +0.022 A 
ATOM     21  C   UNL     1       0.663  -6.395   8.825  0.00  0.00    +0.015 A 
ATOM     22  C   UNL     1       0.688  -6.018  10.149  0.00  0.00    +0.050 A 
ATOM     23  C   UNL     1       0.830  -6.975  11.146  0.00  0.00    +0.166 A 
ATOM     24  C   UNL     1       0.948  -8.325  10.810  0.00  0.00    +0.167 A 
ATOM     25  C   UNL     1       0.918  -8.711   9.485  0.00  0.00    +0.061 A 
ATOM     26  O   UNL     1       1.074  -9.051  11.960  0.00  0.00    -0.453 OA
ATOM     27  C   UNL     1       1.443  -8.099  12.975  0.00  0.00    +0.466 C 
ATOM     28  O   UNL     1       0.882  -6.860  12.504  0.00  0.00    -0.453 OA
ENDBRANCH  18  20
ENDBRANCH  17  18
ENDBRANCH  16  17
ENDBRANCH   5  16
TORSDOF 5
