REMARK  Name = ZINC21143183
REMARK  5 active torsions:
REMARK  status: ('A' for Active; 'I' for Inactive)
REMARK    1  A    between atoms: C_1  and  O_2
REMARK    2  A    between atoms: O_2  and  C_3
REMARK    3  A    between atoms: C_13  and  C_15
REMARK    4  A    between atoms: C_15  and  S_16
REMARK    5  A    between atoms: S_16  and  C_17
REMARK                            x       y       z     vdW  Elec       q    Type
REMARK                         _______ _______ _______ _____ _____    ______ ____
ROOT
ATOM      1  C   UNL     1       0.002  -0.004   0.002  0.00  0.00    +0.121 A 
ATOM      2  C   UNL     1      -0.017   1.388   0.010  0.00  0.00    +0.048 A 
ATOM      3  C   UNL     1       1.142   2.118   0.003  0.00  0.00    +0.032 A 
ATOM      4  C   UNL     1       2.402   1.477  -0.013  0.00  0.00    +0.081 A 
ATOM      5  C   UNL     1       2.385   0.064  -0.020  0.00  0.00    +0.044 A 
ATOM      6  C   UNL     1       1.222  -0.664  -0.013  0.00  0.00    +0.063 A 
ATOM      7  S   UNL     1       4.117  -0.335  -0.039  0.00  0.00    -0.052 S 
ATOM      8  C   UNL     1       4.734   1.342  -0.036  0.00  0.00    +0.165 A 
ATOM      9  N   UNL     1       3.628   2.047  -0.021  0.00  0.00    -0.225 NA
ATOM     10  N   UNL     1       6.047   1.785  -0.045  0.00  0.00    -0.264 N 
ATOM     11  C   UNL     1       6.313   3.106  -0.041  0.00  0.00    +0.229 C 
ATOM     12  O   UNL     1       5.403   3.908  -0.028  0.00  0.00    -0.275 OA
ATOM     13  H   UNL     1       6.873   1.058  -0.057  0.00  0.00    +0.157 HD
ENDROOT
BRANCH   1  15
ATOM     14  C   UNL     1      -2.375   0.046   0.026  0.00  0.00    +0.277 C 
ATOM     15  O   UNL     1      -1.161  -0.708   0.010  0.00  0.00    -0.495 OA
ENDBRANCH   1  15
BRANCH  11  16
ATOM     16  C   UNL     1       7.741   3.588  -0.051  0.00  0.00    +0.173 C 
BRANCH  16  17
ATOM     17  S   UNL     1       7.767   5.401  -0.041  0.00  0.00    -0.076 S 
BRANCH  17  18
ATOM     18  C   UNL     1       9.483   5.803  -0.054  0.00  0.00    +0.196 A 
ATOM     19  N   UNL     1      10.482   4.949  -0.069  0.00  0.00    -0.122 NA
ATOM     20  N   UNL     1      11.605   5.577  -0.075  0.00  0.00    -0.127 NA
ATOM     21  C   UNL     1      11.387   6.879  -0.066  0.00  0.00    +0.180 A 
ATOM     22  N   UNL     1      10.020   7.056  -0.058  0.00  0.00    -0.275 N 
ATOM     23  C   UNL     1       9.484   8.315  -0.040  0.00  0.00    +0.115 A 
ATOM     24  C   UNL     1      10.286   9.399  -0.041  0.00  0.00    +0.059 A 
ATOM     25  C   UNL     1      11.686   9.251  -0.055  0.00  0.00    +0.045 A 
ATOM     26  C   UNL     1      12.235   8.006  -0.067  0.00  0.00    +0.087 A 
ATOM     27 CL   UNL     1      13.959   7.807  -0.085  0.00  0.00    -0.080 Cl
ATOM     28 CL   UNL     1       9.588  10.989  -0.026  0.00  0.00    -0.082 Cl
ENDBRANCH  17  18
ENDBRANCH  16  17
ENDBRANCH  11  16
TORSDOF 4
