REMARK  Name = ZINC36505843
REMARK  15 active torsions:
REMARK  status: ('A' for Active; 'I' for Inactive)
REMARK    1  A    between atoms: C_1  and  C_2
REMARK    2  A    between atoms: C_2  and  C_3
REMARK    3  A    between atoms: C_2  and  C_4
REMARK    4  A    between atoms: C_2  and  C_5
REMARK    5  A    between atoms: C_5  and  C_6
REMARK    6  A    between atoms: C_6  and  C_7
REMARK    7  A    between atoms: C_6  and  C_8
REMARK    8  A    between atoms: C_6  and  N_9
REMARK    9  A    between atoms: C_10  and  C_12
REMARK   10  A    between atoms: C_12  and  C_14
REMARK   11  A    between atoms: C_12  and  N_23
REMARK   12  A    between atoms: C_17  and  N_20
REMARK   13  A    between atoms: N_23  and  C_24
REMARK   14  A    between atoms: C_24  and  C_25
REMARK   15  A    between atoms: C_30  and  C_32
REMARK                            x       y       z     vdW  Elec       q    Type
REMARK                         _______ _______ _______ _____ _____    ______ ____
ROOT
ATOM      1  C   UNL     1       5.705  -1.308  -3.431  0.00  0.00    +0.193 C 
ENDROOT
BRANCH   1   2
ATOM      2  C   UNL     1       4.819  -0.782  -4.530  0.00  0.00    -0.018 A 
ATOM      3  C   UNL     1       4.648   0.581  -4.688  0.00  0.00    +0.008 A 
ATOM      4  C   UNL     1       3.836   1.064  -5.696  0.00  0.00    +0.033 A 
ATOM      5  C   UNL     1       3.195   0.184  -6.548  0.00  0.00    +0.126 A 
ATOM      6  C   UNL     1       3.366  -1.178  -6.392  0.00  0.00    +0.033 A 
ATOM      7  C   UNL     1       4.182  -1.661  -5.386  0.00  0.00    +0.008 A 
BRANCH   5   8
ATOM      8  N   UNL     1       2.324   0.702  -7.628  0.00  0.00    +0.056 N 
ATOM      9  O   UNL     1       2.174   1.893  -7.764  0.00  0.00    -0.126 OA
ATOM     10  O   UNL     1       1.763  -0.068  -8.373  0.00  0.00    -0.126 OA
ENDBRANCH   5   8
ENDBRANCH   1   2
BRANCH   1  12
ATOM     11  N   UNL     1       3.836  -2.312  -2.158  0.00  0.00    -0.308 N 
ATOM     12  C   UNL     1       4.895  -1.478  -2.171  0.00  0.00    +0.239 C 
ATOM     13  O   UNL     1       5.196  -0.864  -1.169  0.00  0.00    -0.273 OA
ATOM     14  H   UNL     1       3.595  -2.803  -2.960  0.00  0.00    +0.149 HD
BRANCH  11  15
ATOM     15  C   UNL     1       3.049  -2.477  -0.934  0.00  0.00    +0.030 C 
ATOM     16  C   UNL     1       2.639  -1.102  -0.402  0.00  0.00    +0.031 C 
ATOM     17  C   UNL     1       3.889  -3.202   0.119  0.00  0.00    +0.031 C 
BRANCH  15  18
ATOM     18  C   UNL     1       1.795  -3.299  -1.241  0.00  0.00    +0.031 C 
BRANCH  18  20
ATOM     19  C   UNL     1       1.794  -3.020  -3.724  0.00  0.00    +0.010 C 
ATOM     20  C   UNL     1       1.056  -2.678  -2.428  0.00  0.00    -0.036 C 
ATOM     21  C   UNL     1       1.002  -1.158  -2.257  0.00  0.00    +0.010 C 
ATOM     22  C   UNL     1      -0.368  -3.234  -2.490  0.00  0.00    +0.010 C 
ENDBRANCH  18  20
ENDBRANCH  15  18
ENDBRANCH  11  15
ENDBRANCH   1  12
BRANCH   1  23
ATOM     23  N   UNL     1       6.795  -0.361  -3.186  0.00  0.00    -0.275 N 
ATOM     24  C   UNL     1       7.748  -0.175  -4.121  0.00  0.00    +0.249 C 
ATOM     25  O   UNL     1       8.667   0.592  -3.907  0.00  0.00    -0.270 OA
BRANCH  24  26
ATOM     26  C   UNL     1       7.677  -0.904  -5.405  0.00  0.00    +0.055 A 
ATOM     27  C   UNL     1       8.659  -0.717  -6.385  0.00  0.00    +0.016 A 
ATOM     28  C   UNL     1       8.547  -1.423  -7.569  0.00  0.00    +0.020 A 
ATOM     29  C   UNL     1       7.477  -2.283  -7.746  0.00  0.00    +0.111 A 
ATOM     30  N   UNL     1       6.566  -2.439  -6.805  0.00  0.00    -0.263 NA
ATOM     31  C   UNL     1       6.632  -1.793  -5.659  0.00  0.00    +0.123 A 
ENDBRANCH  24  26
BRANCH  23  32
ATOM     32  C   UNL     1       6.849   0.384  -1.926  0.00  0.00    +0.183 C 
BRANCH  32  33
ATOM     33  C   UNL     1       7.418  -0.498  -0.845  0.00  0.00    +0.122 A 
ATOM     34  C   UNL     1       8.707  -0.540  -0.461  0.00  0.00    +0.046 A 
ATOM     35  C   UNL     1       8.794  -1.499   0.574  0.00  0.00    +0.041 A 
ATOM     36  C   UNL     1       7.554  -1.986   0.761  0.00  0.00    +0.195 A 
ATOM     37  O   UNL     1       6.724  -1.372  -0.098  0.00  0.00    -0.466 OA
ENDBRANCH  32  33
ENDBRANCH  23  32
ENDBRANCH   1  23
TORSDOF 10
