REMARK  Name = ZINC34762857
REMARK  11 active torsions:
REMARK  status: ('A' for Active; 'I' for Inactive)
REMARK    1  A    between atoms: C_1  and  C_2
REMARK    2  A    between atoms: C_2  and  C_3
REMARK    3  A    between atoms: C_4  and  C_37
REMARK    4  A    between atoms: C_8  and  N_24
REMARK    5  A    between atoms: C_10  and  S_12
REMARK    6  A    between atoms: S_12  and  C_13
REMARK    7  A    between atoms: C_13  and  C_14
REMARK    8  A    between atoms: N_16  and  C_17
REMARK    9  A    between atoms: C_22  and  C_23
REMARK   10  A    between atoms: N_27  and  C_30
REMARK   11  A    between atoms: C_30  and  C_31
REMARK                            x       y       z     vdW  Elec       q    Type
REMARK                         _______ _______ _______ _____ _____    ______ ____
ROOT
ATOM      1  C   UNL     1       1.084  -0.687   1.143  0.00  0.00    -0.025 A 
ATOM      2  C   UNL     1       2.407  -0.899   1.102  0.00  0.00    -0.007 A 
ATOM      3  S   UNL     1       2.785  -1.488   2.742  0.00  0.00    -0.073 S 
ATOM      4  C   UNL     1       1.155  -1.433   3.438  0.00  0.00    +0.115 A 
ATOM      5  C   UNL     1       0.360  -0.952   2.375  0.00  0.00    +0.051 A 
ATOM      6  C   UNL     1      -1.024  -0.803   2.665  0.00  0.00    +0.134 A 
ATOM      7  N   UNL     1      -1.470  -1.109   3.872  0.00  0.00    -0.206 NA
ATOM      8  C   UNL     1      -0.665  -1.553   4.829  0.00  0.00    +0.191 A 
ATOM      9  N   UNL     1       0.633  -1.721   4.614  0.00  0.00    -0.214 NA
ATOM     10  C   UNL     1       3.350  -0.689  -0.055  0.00  0.00    +0.052 C 
ENDROOT
BRANCH   6  11
ATOM     11  N   UNL     1      -1.896  -0.343   1.694  0.00  0.00    -0.318 N 
ATOM     12  C   UNL     1      -2.623  -1.280   0.825  0.00  0.00    +0.088 C 
ATOM     13  C   UNL     1      -4.110  -0.910   0.847  0.00  0.00    -0.059 C 
ATOM     14  N   UNL     1      -4.267   0.503   0.481  0.00  0.00    +0.384 N 
ATOM     15  C   UNL     1      -3.632   1.356   1.494  0.00  0.00    -0.059 C 
ATOM     16  C   UNL     1      -2.126   1.098   1.506  0.00  0.00    +0.088 C 
ATOM     17  H   UNL     1      -3.833   0.667  -0.415  0.00  0.00    -0.081 HD
BRANCH  14  18
ATOM     18  C   UNL     1      -5.697   0.828   0.396  0.00  0.00    -0.043 C 
BRANCH  18  19
ATOM     19  C   UNL     1      -5.862   2.242  -0.099  0.00  0.00    -0.064 A 
ATOM     20  C   UNL     1      -5.908   3.289   0.803  0.00  0.00    +0.002 A 
ATOM     21  C   UNL     1      -6.060   4.586   0.350  0.00  0.00    +0.000 A 
ATOM     22  C   UNL     1      -6.164   4.836  -1.006  0.00  0.00    +0.000 A 
ATOM     23  C   UNL     1      -6.116   3.790  -1.908  0.00  0.00    +0.000 A 
ATOM     24  C   UNL     1      -5.961   2.493  -1.454  0.00  0.00    +0.002 A 
ENDBRANCH  18  19
ENDBRANCH  14  18
ENDBRANCH   6  11
BRANCH   1  26
ATOM     25  C   UNL     1       0.489   1.349  -0.141  0.00  0.00    +0.009 C 
ATOM     26  C   UNL     1       0.356  -0.173  -0.073  0.00  0.00    +0.033 C 
ENDBRANCH   1  26
BRANCH   8  27
ATOM     27  S   UNL     1      -1.335  -1.939   6.412  0.00  0.00    -0.077 S 
BRANCH  27  28
ATOM     28  C   UNL     1       0.100  -2.494   7.373  0.00  0.00    +0.173 C 
BRANCH  28  29
ATOM     29  C   UNL     1      -0.341  -2.861   8.767  0.00  0.00    +0.227 C 
ATOM     30  O   UNL     1      -1.508  -2.757   9.082  0.00  0.00    -0.275 OA
ATOM     31  N   UNL     1       0.562  -3.303   9.665  0.00  0.00    -0.285 N 
ATOM     32  H   UNL     1       1.482  -3.451   9.394  0.00  0.00    +0.155 HD
BRANCH  31  33
ATOM     33  C   UNL     1       0.173  -3.547  10.986  0.00  0.00    +0.036 A 
ATOM     34  C   UNL     1      -0.938  -2.904  11.515  0.00  0.00    +0.023 A 
ATOM     35  C   UNL     1      -1.320  -3.147  12.820  0.00  0.00    +0.002 A 
ATOM     36  C   UNL     1      -0.595  -4.030  13.600  0.00  0.00    +0.000 A 
ATOM     37  C   UNL     1       0.512  -4.671  13.077  0.00  0.00    +0.005 A 
ATOM     38  C   UNL     1       0.895  -4.437  11.771  0.00  0.00    -0.029 A 
ATOM     39  C   UNL     1       2.098  -5.143  11.199  0.00  0.00    +0.045 C 
ENDBRANCH  31  33
ENDBRANCH  28  29
ENDBRANCH  27  28
ENDBRANCH   8  27
TORSDOF 8
