REMARK  Name = ZINC63514836
REMARK  12 active torsions:
REMARK  status: ('A' for Active; 'I' for Inactive)
REMARK    1  A    between atoms: C_1  and  C_2
REMARK    2  A    between atoms: C_4  and  C_35
REMARK    3  A    between atoms: C_9  and  C_14
REMARK    4  A    between atoms: C_11  and  N_13
REMARK    5  A    between atoms: N_16  and  C_17
REMARK    6  A    between atoms: C_17  and  C_18
REMARK    7  A    between atoms: C_18  and  C_19
REMARK    8  A    between atoms: C_22  and  O_30
REMARK    9  A    between atoms: C_27  and  C_29
REMARK   10  A    between atoms: O_30  and  C_31
REMARK   11  A    between atoms: C_35  and  O_36
REMARK   12  A    between atoms: O_36  and  C_37
REMARK                            x       y       z     vdW  Elec       q    Type
REMARK                         _______ _______ _______ _____ _____    ______ ____
ROOT
ATOM      1  C   UNL     1      -1.863  -4.953   1.616  0.00  0.00    +0.228 C 
ATOM      2  O   UNL     1      -2.573  -4.484   0.752  0.00  0.00    -0.275 OA
ATOM      3  N   UNL     1      -2.397  -5.726   2.582  0.00  0.00    -0.314 N 
ATOM      4  H   UNL     1      -1.829  -6.101   3.273  0.00  0.00    +0.149 HD
ENDROOT
BRANCH   1  13
ATOM      5  C   UNL     1      -0.018   1.503   0.010  0.00  0.00    +0.065 C 
ATOM      6  C   UNL     1       0.002  -0.004   0.002  0.00  0.00    +0.040 A 
ATOM      7  C   UNL     1       0.006  -0.688  -1.197  0.00  0.00    +0.029 A 
ATOM      8  C   UNL     1       0.034  -2.071  -1.202  0.00  0.00    -0.013 A 
ATOM      9  C   UNL     1       0.054  -2.762   0.013  0.00  0.00    +0.008 A 
ATOM     10  C   UNL     1       0.033  -1.989   1.173  0.00  0.00    +0.103 A 
ATOM     11  N   UNL     1       0.022  -0.671   1.141  0.00  0.00    -0.245 NA
ATOM     12  S   UNL     1       0.013  -3.133   2.537  0.00  0.00    -0.091 S 
ATOM     13  C   UNL     1      -0.382  -4.672   1.608  0.00  0.00    +0.160 C 
ATOM     14  C   UNL     1       0.107  -4.257   0.202  0.00  0.00    +0.106 C 
BRANCH  14  15
ATOM     15  N   UNL     1       1.491  -4.715   0.021  0.00  0.00    -0.322 NA
ATOM     16  H   UNL     1       1.820  -4.512  -0.911  0.00  0.00    +0.119 HD
ATOM     17  H   UNL     1       2.099  -4.310   0.716  0.00  0.00    +0.119 HD
ENDBRANCH  14  15
BRANCH   8  18
ATOM     18  C   UNL     1       0.042  -2.826  -2.506  0.00  0.00    +0.195 C 
BRANCH  18  19
ATOM     19  O   UNL     1       0.017  -1.899  -3.594  0.00  0.00    -0.378 OA
ATOM     20  C   UNL     1       0.022  -2.515  -4.883  0.00  0.00    +0.194 C 
ENDBRANCH  18  19
ENDBRANCH   8  18
ENDBRANCH   1  13
BRANCH   3  21
ATOM     21  C   UNL     1      -3.836  -5.999   2.589  0.00  0.00    +0.108 C 
BRANCH  21  22
ATOM     22  C   UNL     1      -4.180  -6.894   3.782  0.00  0.00    +0.052 C 
BRANCH  22  23
ATOM     23  C   UNL     1      -5.660  -7.174   3.790  0.00  0.00    -0.037 C 
ATOM     24  C   UNL     1      -6.576  -6.732   2.899  0.00  0.00    +0.003 A 
ATOM     25  C   UNL     1      -6.475  -5.889   1.703  0.00  0.00    +0.056 A 
ATOM     26  C   UNL     1      -7.591  -5.605   0.990  0.00  0.00    +0.131 A 
ATOM     27  C   UNL     1      -8.858  -6.092   1.354  0.00  0.00    +0.048 A 
ATOM     28  C   UNL     1      -9.053  -6.874   2.438  0.00  0.00    +0.029 A 
ATOM     29  C   UNL     1      -7.912  -7.244   3.282  0.00  0.00    +0.043 A 
ATOM     30  N   UNL     1      -7.825  -7.974   4.366  0.00  0.00    -0.378 N 
ATOM     31  C   UNL     1      -6.421  -8.014   4.791  0.00  0.00    +0.103 C 
ATOM     32  C   UNL     1      -6.282  -7.417   6.193  0.00  0.00    +0.035 C 
ATOM     33  H   UNL     1      -8.564  -8.418   4.811  0.00  0.00    +0.160 HD
BRANCH  26  34
ATOM     34  O   UNL     1      -7.482  -4.822  -0.116  0.00  0.00    -0.406 OA
BRANCH  34  35
ATOM     35  C   UNL     1      -8.685  -4.549  -0.838  0.00  0.00    +0.575 C 
ATOM     36  F   UNL     1      -9.592  -3.892  -0.000  0.00  0.00    -0.133 F 
ATOM     37  F   UNL     1      -8.393  -3.735  -1.939  0.00  0.00    -0.133 F 
ATOM     38  F   UNL     1      -9.246  -5.751  -1.282  0.00  0.00    -0.133 F 
ENDBRANCH  34  35
ENDBRANCH  26  34
ENDBRANCH  22  23
ENDBRANCH  21  22
ENDBRANCH   3  21
TORSDOF 9
