REMARK  Name = ZINC39355951
REMARK  11 active torsions:
REMARK  status: ('A' for Active; 'I' for Inactive)
REMARK    1  A    between atoms: C_1  and  C_2
REMARK    2  A    between atoms: C_2  and  O_3
REMARK    3  A    between atoms: O_3  and  C_4
REMARK    4  A    between atoms: C_6  and  C_11
REMARK    5  A    between atoms: C_9  and  O_10
REMARK    6  A    between atoms: C_11  and  C_13
REMARK    7  A    between atoms: C_11  and  C_21
REMARK    8  A    between atoms: C_15  and  C_20
REMARK    9  A    between atoms: C_18  and  O_19
REMARK   10  A    between atoms: C_22  and  C_28
REMARK   11  A    between atoms: C_25  and  O_27
REMARK                            x       y       z     vdW  Elec       q    Type
REMARK                         _______ _______ _______ _____ _____    ______ ____
ROOT
ATOM      1  C   UNL     1      -0.251  -5.002   0.465  0.00  0.00    +0.088 C 
ENDROOT
BRANCH   1   2
ATOM      2  C   UNL     1      -1.406  -5.707  -0.199  0.00  0.00    +0.047 A 
ATOM      3  C   UNL     1      -2.113  -5.251  -1.259  0.00  0.00    +0.041 A 
ATOM      4  N   UNL     1      -3.058  -6.170  -1.550  0.00  0.00    -0.278 N 
ATOM      5  N   UNL     1      -2.929  -7.228  -0.641  0.00  0.00    -0.136 NA
ATOM      6  C   UNL     1      -1.934  -6.954   0.167  0.00  0.00    +0.236 A 
ATOM      7  C   UNL     1      -1.888  -3.949  -1.983  0.00  0.00    +0.065 C 
ATOM      8  H   UNL     1      -3.711  -6.109  -2.265  0.00  0.00    +0.189 HD
BRANCH   6  10
ATOM      9  H   UNL     1      -1.871  -7.517   2.047  0.00  0.00    +0.294 HD
ATOM     10  O   UNL     1      -1.492  -7.739   1.186  0.00  0.00    -0.491 OA
ENDBRANCH   6  10
ENDBRANCH   1   2
BRANCH   1  13
ATOM     11  C   UNL     1       1.659  -2.300  -1.358  0.00  0.00    +0.162 A 
ATOM     12  C   UNL     1       0.906  -2.959  -0.400  0.00  0.00    +0.054 A 
ATOM     13  C   UNL     1       0.569  -4.287  -0.579  0.00  0.00    -0.032 A 
ATOM     14  C   UNL     1       0.982  -4.962  -1.712  0.00  0.00    +0.008 A 
ATOM     15  C   UNL     1       1.735  -4.311  -2.672  0.00  0.00    +0.049 A 
ATOM     16  C   UNL     1       2.071  -2.978  -2.502  0.00  0.00    +0.158 A 
BRANCH  16  17
ATOM     17  O   UNL     1       2.806  -2.334  -3.448  0.00  0.00    -0.503 OA
ATOM     18  H   UNL     1       3.761  -2.392  -3.310  0.00  0.00    +0.292 HD
ENDBRANCH  16  17
BRANCH  11  19
ATOM     19  O   UNL     1       1.991  -0.993  -1.184  0.00  0.00    -0.489 OA
BRANCH  19  21
ATOM     20  C   UNL     1       2.002   1.095   0.032  0.00  0.00    +0.048 C 
ATOM     21  C   UNL     1       1.534  -0.361   0.013  0.00  0.00    +0.226 C 
ENDBRANCH  19  21
ENDBRANCH  11  19
ENDBRANCH   1  13
BRANCH   1  22
ATOM     22  C   UNL     1       0.612  -6.012   1.176  0.00  0.00    +0.017 C 
ATOM     23  C   UNL     1       0.846  -6.116   2.486  0.00  0.00    +0.065 C 
ATOM     24  N   UNL     1       1.675  -7.152   2.745  0.00  0.00    -0.156 NA
ATOM     25  N   UNL     1       2.040  -7.777   1.746  0.00  0.00    -0.151 NA
ATOM     26  C   UNL     1       1.411  -7.152   0.570  0.00  0.00    +0.284 C 
ATOM     27  C   UNL     1       0.266  -5.202   3.535  0.00  0.00    +0.067 C 
BRANCH  26  28
ATOM     28  O   UNL     1       2.405  -6.652  -0.326  0.00  0.00    -0.366 OA
ATOM     29  H   UNL     1       2.943  -7.341  -0.740  0.00  0.00    +0.212 HD
ENDBRANCH  26  28
ENDBRANCH   1  22
TORSDOF 8
