REMARK  Name = ZINC20083927
REMARK  10 active torsions:
REMARK  status: ('A' for Active; 'I' for Inactive)
REMARK    1  A    between atoms: C_1  and  O_2
REMARK    2  A    between atoms: O_2  and  C_3
REMARK    3  A    between atoms: C_10  and  C_15
REMARK    4  A    between atoms: C_15  and  C_17
REMARK    5  A    between atoms: C_15  and  N_27
REMARK    6  A    between atoms: N_21  and  C_22
REMARK    7  A    between atoms: N_27  and  C_28
REMARK    8  A    between atoms: N_27  and  C_35
REMARK    9  A    between atoms: C_28  and  C_29
REMARK   10  A    between atoms: C_35  and  C_36
REMARK                            x       y       z     vdW  Elec       q    Type
REMARK                         _______ _______ _______ _____ _____    ______ ____
ROOT
ATOM      1  C   UNL     1       3.075  -0.531  -0.355  0.00  0.00    +0.163 C 
ENDROOT
BRANCH   1   9
ATOM      2  C   UNL     1       5.974   0.334  -5.766  0.00  0.00    +0.121 A 
ATOM      3  C   UNL     1       6.157  -1.016  -6.055  0.00  0.00    +0.047 A 
ATOM      4  C   UNL     1       5.709  -1.987  -5.187  0.00  0.00    +0.030 A 
ATOM      5  C   UNL     1       5.066  -1.623  -4.008  0.00  0.00    +0.049 A 
ATOM      6  C   UNL     1       4.879  -0.259  -3.713  0.00  0.00    +0.002 A 
ATOM      7  C   UNL     1       5.339   0.717  -4.602  0.00  0.00    +0.055 A 
ATOM      8  C   UNL     1       4.200   0.111  -2.469  0.00  0.00    +0.021 A 
ATOM      9  C   UNL     1       3.776  -0.878  -1.643  0.00  0.00    +0.042 A 
ATOM     10  C   UNL     1       3.994  -2.230  -1.983  0.00  0.00    +0.254 A 
ATOM     11  O   UNL     1       3.608  -3.103  -1.224  0.00  0.00    -0.268 OA
ATOM     12  N   UNL     1       4.610  -2.580  -3.126  0.00  0.00    -0.322 N 
ATOM     13  H   UNL     1       4.748  -3.648  -3.352  0.00  0.00    +0.169 HD
BRANCH   2  15
ATOM     14  C   UNL     1       7.072   0.814  -7.820  0.00  0.00    +0.277 C 
ATOM     15  O   UNL     1       6.423   1.279  -6.634  0.00  0.00    -0.495 OA
ENDBRANCH   2  15
ENDBRANCH   1   9
BRANCH   1  16
ATOM     16  C   UNL     1       3.073   0.965  -0.172  0.00  0.00    +0.173 A 
ATOM     17  N   UNL     1       4.089   1.711   0.187  0.00  0.00    -0.111 NA
ATOM     18  N   UNL     1       3.688   2.934   0.233  0.00  0.00    -0.023 NA
ATOM     19  N   UNL     1       2.444   2.989  -0.092  0.00  0.00    -0.044 NA
ATOM     20  N   UNL     1       2.026   1.794  -0.343  0.00  0.00    -0.224 N 
BRANCH  20  21
ATOM     21  C   UNL     1       0.670   1.413  -0.745  0.00  0.00    +0.111 C 
ATOM     22  C   UNL     1      -0.345   1.867   0.323  0.00  0.00    +0.027 C 
ATOM     23  C   UNL     1      -0.865   3.229  -0.203  0.00  0.00    +0.002 C 
ATOM     24  C   UNL     1      -0.950   2.996  -1.732  0.00  0.00    +0.002 C 
ATOM     25  C   UNL     1       0.287   2.130  -2.051  0.00  0.00    +0.027 C 
ENDBRANCH  20  21
ENDBRANCH   1  16
BRANCH   1  26
ATOM     26  N   UNL     1       3.777  -1.162   0.770  0.00  0.00    -0.280 NA
BRANCH  26  27
ATOM     27  C   UNL     1       3.027  -0.991   2.021  0.00  0.00    +0.121 C 
BRANCH  27  28
ATOM     28  C   UNL     1       1.840  -1.919   2.026  0.00  0.00    -0.033 A 
ATOM     29  C   UNL     1       0.600  -1.459   1.621  0.00  0.00    +0.005 A 
ATOM     30  C   UNL     1      -0.487  -2.312   1.621  0.00  0.00    +0.000 A 
ATOM     31  C   UNL     1      -0.338  -3.623   2.034  0.00  0.00    +0.000 A 
ATOM     32  C   UNL     1       0.900  -4.082   2.444  0.00  0.00    +0.000 A 
ATOM     33  C   UNL     1       1.989  -3.230   2.439  0.00  0.00    +0.005 A 
ENDBRANCH  27  28
ENDBRANCH  26  27
BRANCH  26  34
ATOM     34  C   UNL     1       5.143  -0.636   0.899  0.00  0.00    +0.128 C 
BRANCH  34  35
ATOM     35  C   UNL     1       5.951  -1.549   1.785  0.00  0.00    +0.004 A 
ATOM     36  C   UNL     1       6.713  -2.616   1.441  0.00  0.00    +0.012 A 
ATOM     37  C   UNL     1       7.374  -3.315   2.433  0.00  0.00    +0.008 A 
ATOM     38  C   UNL     1       7.240  -2.913   3.721  0.00  0.00    +0.045 A 
ATOM     39  S   UNL     1       6.158  -1.503   3.557  0.00  0.00    -0.100 S 
ENDBRANCH  34  35
ENDBRANCH  26  34
ENDBRANCH   1  26
TORSDOF 9
