REMARK  Name = ZINC40368223
REMARK  13 active torsions:
REMARK  status: ('A' for Active; 'I' for Inactive)
REMARK    1  A    between atoms: C_1  and  C_2
REMARK    2  A    between atoms: N_8  and  C_9
REMARK    3  A    between atoms: C_9  and  C_10
REMARK    4  A    between atoms: C_10  and  C_11
REMARK    5  A    between atoms: C_11  and  N_12
REMARK    6  A    between atoms: C_13  and  C_15
REMARK    7  A    between atoms: C_19  and  C_21
REMARK    8  A    between atoms: C_21  and  S_22
REMARK    9  A    between atoms: S_22  and  C_23
REMARK   10  A    between atoms: N_30  and  C_31
REMARK   11  A    between atoms: N_30  and  C_34
REMARK   12  A    between atoms: C_31  and  C_32
REMARK   13  A    between atoms: C_34  and  C_35
REMARK                            x       y       z     vdW  Elec       q    Type
REMARK                         _______ _______ _______ _____ _____    ______ ____
ROOT
ATOM      1  C   UNL     1       6.776  -0.089   5.292  0.00  0.00    +0.037 A 
ATOM      2  C   UNL     1       6.115  -0.891   6.223  0.00  0.00    +0.013 A 
ATOM      3  C   UNL     1       6.751  -1.253   7.393  0.00  0.00    +0.001 A 
ATOM      4  C   UNL     1       8.041  -0.821   7.644  0.00  0.00    +0.004 A 
ATOM      5  C   UNL     1       8.702  -0.026   6.726  0.00  0.00    -0.036 A 
ATOM      6  C   UNL     1       8.080   0.338   5.549  0.00  0.00    +0.017 A 
ENDROOT
BRANCH   1   8
ATOM      7  N   UNL     1       4.842  -0.112   3.791  0.00  0.00    -0.311 N 
ATOM      8  C   UNL     1       6.101   0.302   4.036  0.00  0.00    +0.244 C 
ATOM      9  O   UNL     1       6.681   0.997   3.225  0.00  0.00    -0.270 OA
ATOM     10  H   UNL     1       4.379  -0.666   4.439  0.00  0.00    +0.149 HD
BRANCH   7  11
ATOM     11  C   UNL     1       4.173   0.276   2.547  0.00  0.00    +0.102 C 
BRANCH  11  12
ATOM     12  C   UNL     1       2.764  -0.321   2.518  0.00  0.00    +0.000 C 
BRANCH  12  13
ATOM     13  C   UNL     1       2.066   0.083   1.218  0.00  0.00    -0.077 C 
BRANCH  13  20
ATOM     14  C   UNL     1      -0.019   1.526   0.010  0.00  0.00    -0.013 C 
ATOM     15  C   UNL     1       0.002  -0.004   0.002  0.00  0.00    -0.072 C 
ATOM     16  C   UNL     1      -1.434  -0.533   0.011  0.00  0.00    -0.016 C 
ATOM     17  C   UNL     1      -1.408  -2.064   0.003  0.00  0.00    -0.003 C 
ATOM     18  C   UNL     1      -0.600  -2.558   1.206  0.00  0.00    -0.019 C 
ATOM     19  C   UNL     1       0.805  -1.954   1.152  0.00  0.00    -0.078 C 
ATOM     20  N   UNL     1       0.713  -0.490   1.191  0.00  0.00    +0.381 N 
ATOM     21  H   UNL     1       0.213  -0.206   2.020  0.00  0.00    -0.081 HD
ENDBRANCH  13  20
ENDBRANCH  12  13
ENDBRANCH  11  12
ENDBRANCH   7  11
ENDBRANCH   1   8
BRANCH   5  22
ATOM     22  C   UNL     1      10.108   0.440   7.008  0.00  0.00    +0.112 C 
BRANCH  22  23
ATOM     23  S   UNL     1      11.289  -0.772   6.354  0.00  0.00    -0.081 S 
BRANCH  23  24
ATOM     24  C   UNL     1      12.864  -0.093   6.758  0.00  0.00    +0.192 A 
ATOM     25  N   UNL     1      13.960  -0.750   6.406  0.00  0.00    -0.207 NA
ATOM     26  C   UNL     1      15.163  -0.264   6.695  0.00  0.00    +0.128 A 
ATOM     27  C   UNL     1      15.257   0.951   7.378  0.00  0.00    +0.084 A 
ATOM     28  C   UNL     1      14.089   1.604   7.727  0.00  0.00    +0.135 A 
ATOM     29  N   UNL     1      12.923   1.064   7.402  0.00  0.00    -0.210 NA
ATOM     30 CL   UNL     1      14.150   3.117   8.576  0.00  0.00    -0.062 Cl
ATOM     31  N   UNL     1      16.306  -0.953   6.326  0.00  0.00    -0.308 N 
BRANCH  31  32
ATOM     32  C   UNL     1      17.623  -0.465   6.745  0.00  0.00    +0.133 C 
BRANCH  32  33
ATOM     33  C   UNL     1      17.987  -1.079   8.072  0.00  0.00    -0.016 C 
ATOM     34  C   UNL     1      19.113  -1.734   8.204  0.00  0.00    +0.005 C 
ENDBRANCH  32  33
ENDBRANCH  31  32
BRANCH  31  35
ATOM     35  C   UNL     1      16.199  -2.169   5.516  0.00  0.00    +0.133 C 
BRANCH  35  36
ATOM     36  C   UNL     1      16.250  -1.806   4.055  0.00  0.00    -0.016 C 
ATOM     37  C   UNL     1      17.139  -2.365   3.271  0.00  0.00    +0.005 C 
ENDBRANCH  35  36
ENDBRANCH  31  35
ENDBRANCH  23  24
ENDBRANCH  22  23
ENDBRANCH   5  22
TORSDOF 12
