REMARK  Name = ZINC59170409
REMARK  7 active torsions:
REMARK  status: ('A' for Active; 'I' for Inactive)
REMARK    1  A    between atoms: C_1  and  C_2
REMARK    2  A    between atoms: C_5  and  N_8
REMARK    3  A    between atoms: C_9  and  C_11
REMARK    4  A    between atoms: C_15  and  N_32
REMARK    5  A    between atoms: N_21  and  C_22
REMARK    6  A    between atoms: C_25  and  S_28
REMARK    7  A    between atoms: S_28  and  N_31
REMARK                            x       y       z     vdW  Elec       q    Type
REMARK                         _______ _______ _______ _____ _____    ______ ____
ROOT
ATOM      1  C   UNL     1       0.352  -6.290   1.110  0.00  0.00    +0.098 A 
ATOM      2  C   UNL     1       0.356  -7.010   2.298  0.00  0.00    +0.030 A 
ATOM      3  C   UNL     1       0.433  -8.469   2.200  0.00  0.00    +0.020 A 
ATOM      4  C   UNL     1       0.177  -9.277   3.315  0.00  0.00    +0.044 A 
ATOM      5  C   UNL     1       0.253 -10.636   3.198  0.00  0.00    +0.127 A 
ATOM      6  C   UNL     1       0.581 -11.222   1.984  0.00  0.00    +0.036 A 
ATOM      7  C   UNL     1       0.838 -10.444   0.873  0.00  0.00    +0.049 A 
ATOM      8  C   UNL     1       0.769  -9.062   0.969  0.00  0.00    +0.138 A 
ATOM      9  O   UNL     1       1.026  -8.281  -0.109  0.00  0.00    -0.439 OA
ATOM     10  C   UNL     1       0.419  -7.064  -0.145  0.00  0.00    +0.212 A 
ATOM     11  N   UNL     1      -0.087  -6.589  -1.262  0.00  0.00    -0.325 N 
ATOM     12  H   UNL     1      -0.608  -5.771  -1.249  0.00  0.00    +0.169 HD
ENDROOT
BRANCH  11  13
ATOM     13  C   UNL     1       0.120  -7.249  -2.442  0.00  0.00    +0.042 A 
ATOM     14  C   UNL     1       1.391  -7.733  -2.762  0.00  0.00    +0.027 A 
ATOM     15  C   UNL     1       1.592  -8.398  -3.953  0.00  0.00    +0.030 A 
ATOM     16  C   UNL     1       0.539  -8.586  -4.831  0.00  0.00    +0.105 A 
ATOM     17  C   UNL     1      -0.723  -8.110  -4.520  0.00  0.00    +0.030 A 
ATOM     18  C   UNL     1      -0.940  -7.448  -3.330  0.00  0.00    +0.027 A 
BRANCH  16  19
ATOM     19  S   UNL     1       0.806  -9.437  -6.351  0.00  0.00    +0.056 S 
ATOM     20  O   UNL     1      -0.214  -9.005  -7.242  0.00  0.00    -0.153 OA
ATOM     21  O   UNL     1       2.188  -9.303  -6.653  0.00  0.00    -0.153 OA
BRANCH  19  22
ATOM     22  N   UNL     1       0.536 -11.045  -6.066  0.00  0.00    -0.204 NA
ATOM     23  H   UNL     1       0.282 -11.345  -5.179  0.00  0.00    +0.144 HD
ATOM     24  H   UNL     1       0.633 -11.688  -6.786  0.00  0.00    +0.144 HD
ENDBRANCH  19  22
ENDBRANCH  16  19
ENDBRANCH  11  13
BRANCH   1  26
ATOM     25  N   UNL     1       0.411  -4.143  -0.055  0.00  0.00    -0.281 N 
ATOM     26  C   UNL     1       0.276  -4.819   1.103  0.00  0.00    +0.253 C 
ATOM     27  O   UNL     1       0.092  -4.215   2.142  0.00  0.00    -0.270 OA
ATOM     28  H   UNL     1       0.505  -4.627  -0.891  0.00  0.00    +0.155 HD
BRANCH  25  33
ATOM     29  C   UNL     1       0.431   1.529  -0.043  0.00  0.00    +0.044 C 
ATOM     30  C   UNL     1       0.426   0.022  -0.046  0.00  0.00    -0.050 A 
ATOM     31  C   UNL     1       1.219  -0.669  -0.944  0.00  0.00    +0.005 A 
ATOM     32  C   UNL     1       1.216  -2.050  -0.950  0.00  0.00    +0.023 A 
ATOM     33  C   UNL     1       0.417  -2.745  -0.052  0.00  0.00    +0.034 A 
ATOM     34  C   UNL     1      -0.378  -2.048   0.849  0.00  0.00    +0.023 A 
ATOM     35  C   UNL     1      -0.367  -0.667   0.853  0.00  0.00    +0.005 A 
ENDBRANCH  25  33
ENDBRANCH   1  26
BRANCH   5  36
ATOM     36  N   UNL     1      -0.017 -11.491   4.376  0.00  0.00    +0.056 N 
ATOM     37  O   UNL     1      -0.303 -10.985   5.436  0.00  0.00    -0.126 OA
ATOM     38  O   UNL     1       0.049 -12.694   4.278  0.00  0.00    -0.126 OA
ENDBRANCH   5  36
TORSDOF 6
