REMARK  Name = ZINC39950405
REMARK  7 active torsions:
REMARK  status: ('A' for Active; 'I' for Inactive)
REMARK    1  A    between atoms: C_1  and  O_2
REMARK    2  A    between atoms: O_2  and  C_3
REMARK    3  A    between atoms: C_6  and  C_9
REMARK    4  A    between atoms: C_13  and  C_16
REMARK    5  A    between atoms: C_17  and  N_33
REMARK    6  A    between atoms: N_18  and  N_22
REMARK    7  A    between atoms: C_23  and  C_24
REMARK                            x       y       z     vdW  Elec       q    Type
REMARK                         _______ _______ _______ _____ _____    ______ ____
ROOT
ATOM      1  C   UNL     1       1.968  -5.917  -5.825  0.00  0.00    +0.060 C 
ATOM      2  C   UNL     1       1.607  -6.572  -6.977  0.00  0.00    +0.113 C 
ATOM      3  N   UNL     1       1.171  -7.844  -6.720  0.00  0.00    -0.203 N 
ATOM      4  C   UNL     1       1.250  -8.053  -5.266  0.00  0.00    +0.212 C 
ATOM      5  C   UNL     1       1.790  -6.747  -4.721  0.00  0.00    +0.184 C 
ATOM      6  O   UNL     1       2.019  -6.478  -3.557  0.00  0.00    -0.290 OA
ENDROOT
BRANCH   1  10
ATOM      7  C   UNL     1       2.505  -2.503  -4.381  0.00  0.00    +0.095 C 
ATOM      8  C   UNL     1       3.941  -2.927  -3.979  0.00  0.00    +0.094 C 
ATOM      9  S   UNL     1       4.167  -4.444  -5.001  0.00  0.00    -0.135 S 
ATOM     10  C   UNL     1       2.490  -4.505  -5.765  0.00  0.00    +0.150 C 
ATOM     11  N   UNL     1       1.718  -3.684  -4.784  0.00  0.00    -0.293 NA
ATOM     12  H   UNL     1       1.453  -4.234  -3.981  0.00  0.00    +0.124 HD
BRANCH   7  16
ATOM     13  C   UNL     1       0.606  -0.607  -1.056  0.00  0.00    +0.120 A 
ATOM     14  C   UNL     1       1.173   0.161  -2.062  0.00  0.00    +0.046 A 
ATOM     15  C   UNL     1       1.786  -0.455  -3.136  0.00  0.00    +0.009 A 
ATOM     16  C   UNL     1       1.835  -1.835  -3.209  0.00  0.00    -0.029 A 
ATOM     17  C   UNL     1       1.270  -2.602  -2.207  0.00  0.00    +0.009 A 
ATOM     18  C   UNL     1       0.661  -1.992  -1.128  0.00  0.00    +0.046 A 
BRANCH  13  20
ATOM     19  C   UNL     1      -0.017   1.425   0.010  0.00  0.00    +0.277 C 
ATOM     20  O   UNL     1       0.002  -0.004   0.002  0.00  0.00    -0.495 OA
ENDBRANCH  13  20
ENDBRANCH   7  16
ENDBRANCH   1  10
BRANCH   2  21
ATOM     21  N   UNL     1       1.674  -6.020  -8.229  0.00  0.00    -0.345 N 
ATOM     22  H   UNL     1       1.993  -5.111  -8.342  0.00  0.00    +0.144 HD
ATOM     23  H   UNL     1       1.402  -6.538  -9.002  0.00  0.00    +0.144 HD
ENDBRANCH   2  21
BRANCH   3  24
ATOM     24  N   UNL     1       0.729  -8.776  -7.668  0.00  0.00    -0.186 NA
ATOM     25  C   UNL     1       0.336  -9.966  -7.283  0.00  0.00    +0.136 C 
BRANCH  25  26
ATOM     26  C   UNL     1      -0.105 -10.898  -8.231  0.00  0.00    +0.000 C 
ATOM     27  C   UNL     1      -0.558 -12.194  -7.990  0.00  0.00    +0.004 A 
ATOM     28  C   UNL     1      -0.712 -12.947  -6.806  0.00  0.00    +0.010 A 
ATOM     29  C   UNL     1      -1.187 -14.217  -6.872  0.00  0.00    +0.001 A 
ATOM     30  C   UNL     1      -1.531 -14.807  -8.091  0.00  0.00    +0.002 A 
ATOM     31  C   UNL     1      -1.409 -14.144  -9.266  0.00  0.00    +0.026 A 
ATOM     32  C   UNL     1      -0.920 -12.811  -9.278  0.00  0.00    +0.043 A 
ATOM     33  N   UNL     1      -0.712 -11.968 -10.268  0.00  0.00    -0.380 N 
ATOM     34  C   UNL     1      -0.197 -10.706  -9.728  0.00  0.00    +0.150 C 
ATOM     35  H   UNL     1      -0.877 -12.152 -11.206  0.00  0.00    +0.160 HD
ENDBRANCH  25  26
ENDBRANCH   3  24
TORSDOF 6
