REMARK  Name = ZINC26059389
REMARK  7 active torsions:
REMARK  status: ('A' for Active; 'I' for Inactive)
REMARK    1  A    between atoms: C_1  and  C_2
REMARK    2  A    between atoms: N_4  and  C_5
REMARK    3  A    between atoms: C_5  and  C_7
REMARK    4  A    between atoms: C_5  and  C_18
REMARK    5  A    between atoms: C_7  and  C_8
REMARK    6  A    between atoms: C_23  and  N_26
REMARK    7  A    between atoms: C_27  and  C_29
REMARK                            x       y       z     vdW  Elec       q    Type
REMARK                         _______ _______ _______ _____ _____    ______ ____
ROOT
ATOM      1  C   UNL     1       5.669   0.430   1.402  0.00  0.00    +0.236 C 
ATOM      2  O   UNL     1       6.402   1.394   1.467  0.00  0.00    -0.274 OA
ATOM      3  N   UNL     1       6.191  -0.810   1.328  0.00  0.00    -0.300 N 
ATOM      4  C   UNL     1       5.315  -1.988   1.255  0.00  0.00    +0.109 C 
ATOM      5  C   UNL     1       5.705  -2.967   2.361  0.00  0.00    +0.041 C 
ATOM      6  C   UNL     1       7.198  -3.286   2.254  0.00  0.00    +0.076 C 
ATOM      7  C   UNL     1       8.010  -2.002   2.436  0.00  0.00    +0.041 C 
ATOM      8  C   UNL     1       7.646  -1.011   1.325  0.00  0.00    +0.109 C 
ENDROOT
BRANCH   6   9
ATOM      9  N   UNL     1       7.567  -4.248   3.295  0.00  0.00    -0.308 N 
ATOM     10  C   UNL     1       7.400  -5.569   3.082  0.00  0.00    +0.244 C 
ATOM     11  O   UNL     1       6.943  -5.961   2.026  0.00  0.00    -0.270 OA
ATOM     12  H   UNL     1       7.980  -3.893   4.251  0.00  0.00    +0.149 HD
BRANCH  10  13
ATOM     13  C   UNL     1       7.772  -6.540   4.133  0.00  0.00    +0.037 A 
ATOM     14  C   UNL     1       8.302  -6.093   5.345  0.00  0.00    +0.013 A 
ATOM     15  C   UNL     1       8.644  -7.004   6.322  0.00  0.00    +0.001 A 
ATOM     16  C   UNL     1       8.471  -8.358   6.101  0.00  0.00    +0.000 A 
ATOM     17  C   UNL     1       7.951  -8.808   4.900  0.00  0.00    +0.001 A 
ATOM     18  C   UNL     1       7.601  -7.908   3.916  0.00  0.00    +0.013 A 
ENDBRANCH  10  13
ENDBRANCH   6   9
BRANCH   1  19
ATOM     19  C   UNL     1       4.174   0.620   1.404  0.00  0.00    +0.163 C 
BRANCH  19  23
ATOM     20  C   UNL     1       3.984   4.407   1.932  0.00  0.00    +0.109 C 
ATOM     21  C   UNL     1       4.318   3.052   1.363  0.00  0.00    +0.211 C 
ATOM     22  O   UNL     1       5.009   2.965   0.369  0.00  0.00    -0.276 OA
ATOM     23  N   UNL     1       3.849   1.937   1.957  0.00  0.00    -0.304 N 
ATOM     24  H   UNL     1       3.223   2.016   2.858  0.00  0.00    +0.149 HD
ENDBRANCH  19  23
BRANCH  19  25
ATOM     25  C   UNL     1       3.646   0.524  -0.029  0.00  0.00    +0.069 C 
BRANCH  25  26
ATOM     26  C   UNL     1       2.140   0.591  -0.015  0.00  0.00    -0.020 A 
ATOM     27  C   UNL     1       1.295  -0.452  -0.013  0.00  0.00    +0.087 A 
ATOM     28  N   UNL     1       0.002  -0.004   0.002  0.00  0.00    -0.360 N 
ATOM     29  H   UNL     1      -0.829  -0.724   0.006  0.00  0.00    +0.165 HD
ATOM     30  C   UNL     1      -0.017   1.373   0.010  0.00  0.00    +0.047 A 
ATOM     31  C   UNL     1       1.322   1.806  -0.001  0.00  0.00    +0.003 A 
ATOM     32  C   UNL     1       1.612   3.171   0.004  0.00  0.00    +0.010 A 
ATOM     33  C   UNL     1       0.593   4.082   0.019  0.00  0.00    +0.001 A 
ATOM     34  C   UNL     1      -0.729   3.659   0.029  0.00  0.00    +0.002 A 
ATOM     35  C   UNL     1      -1.038   2.317   0.029  0.00  0.00    +0.026 A 
ENDBRANCH  25  26
ENDBRANCH  19  25
ENDBRANCH   1  19
TORSDOF 6
