REMARK  Name = ZINC10039851
REMARK  11 active torsions:
REMARK  status: ('A' for Active; 'I' for Inactive)
REMARK    1  A    between atoms: C_1  and  C_2
REMARK    2  A    between atoms: C_5  and  C_8
REMARK    3  A    between atoms: C_8  and  O_10
REMARK    4  A    between atoms: O_10  and  C_11
REMARK    5  A    between atoms: C_14  and  C_17
REMARK    6  A    between atoms: C_17  and  C_19
REMARK    7  A    between atoms: C_19  and  O_20
REMARK    8  A    between atoms: O_20  and  C_21
REMARK    9  A    between atoms: C_21  and  C_23
REMARK   10  A    between atoms: C_23  and  N_24
REMARK   11  A    between atoms: C_25  and  C_27
REMARK                            x       y       z     vdW  Elec       q    Type
REMARK                         _______ _______ _______ _____ _____    ______ ____
ROOT
ATOM      1  C   UNL     1      -0.045   1.156  -0.020  0.00  0.00    +0.200 C 
ATOM      2  O   UNL     1      -0.041  -0.054  -0.110  0.00  0.00    -0.288 OA
ENDROOT
BRANCH   1   6
ATOM      3  C   UNL     1      -3.723   3.266   0.031  0.00  0.00    +0.132 A 
ATOM      4  C   UNL     1      -3.721   1.879  -0.073  0.00  0.00    +0.047 A 
ATOM      5  C   UNL     1      -2.530   1.190  -0.090  0.00  0.00    +0.015 A 
ATOM      6  C   UNL     1      -1.319   1.887  -0.003  0.00  0.00    +0.021 A 
ATOM      7  C   UNL     1      -1.326   3.283   0.107  0.00  0.00    +0.015 A 
ATOM      8  C   UNL     1      -2.522   3.963   0.118  0.00  0.00    +0.047 A 
BRANCH   3   9
ATOM      9  O   UNL     1      -4.900   3.941   0.047  0.00  0.00    -0.422 OA
BRANCH   9  10
ATOM     10  C   UNL     1      -5.676   3.791   1.138  0.00  0.00    +0.344 C 
ATOM     11  O   UNL     1      -5.266   3.162   2.094  0.00  0.00    -0.245 OA
BRANCH  10  16
ATOM     12  C   UNL     1     -10.931   6.131   1.274  0.00  0.00    +0.044 C 
ATOM     13  C   UNL     1      -9.554   5.518   1.238  0.00  0.00    -0.050 A 
ATOM     14  C   UNL     1      -9.091   4.802   2.328  0.00  0.00    +0.004 A 
ATOM     15  C   UNL     1      -7.832   4.238   2.302  0.00  0.00    +0.015 A 
ATOM     16  C   UNL     1      -7.025   4.391   1.173  0.00  0.00    +0.059 A 
ATOM     17  C   UNL     1      -7.497   5.120   0.079  0.00  0.00    +0.015 A 
ATOM     18  C   UNL     1      -8.760   5.674   0.117  0.00  0.00    +0.004 A 
ENDBRANCH  10  16
ENDBRANCH   9  10
ENDBRANCH   3   9
ENDBRANCH   1   6
BRANCH   1  19
ATOM     19  C   UNL     1       1.258   1.909   0.068  0.00  0.00    +0.311 C 
BRANCH  19  20
ATOM     20  O   UNL     1       2.364   0.970   0.025  0.00  0.00    -0.455 OA
BRANCH  20  21
ATOM     21  C   UNL     1       3.602   1.484   0.093  0.00  0.00    +0.325 C 
ATOM     22  O   UNL     1       3.757   2.678   0.186  0.00  0.00    -0.249 OA
BRANCH  21  23
ATOM     23  C   UNL     1       4.800   0.570   0.054  0.00  0.00    +0.225 C 
BRANCH  23  24
ATOM     24  N   UNL     1       6.026   1.367   0.143  0.00  0.00    -0.298 N 
ATOM     25  C   UNL     1       7.228   0.759   0.127  0.00  0.00    +0.280 C 
ATOM     26  O   UNL     1       7.296  -0.453   0.038  0.00  0.00    -0.267 OA
ATOM     27  H   UNL     1       5.972   2.333   0.214  0.00  0.00    +0.150 HD
BRANCH  25  28
ATOM     28  C   UNL     1       8.454   1.557   0.216  0.00  0.00    +0.191 A 
ATOM     29  C   UNL     1       9.731   1.070   0.211  0.00  0.00    +0.056 A 
ATOM     30  C   UNL     1      10.586   2.178   0.314  0.00  0.00    +0.058 A 
ATOM     31  C   UNL     1       9.804   3.280   0.378  0.00  0.00    +0.171 A 
ATOM     32  O   UNL     1       8.520   2.901   0.312  0.00  0.00    -0.444 OA
ATOM     33 BR   UNL     1      10.421   5.061   0.526  0.00  0.00    -0.008 Br
ENDBRANCH  25  28
ENDBRANCH  23  24
ENDBRANCH  21  23
ENDBRANCH  20  21
ENDBRANCH  19  20
ENDBRANCH   1  19
TORSDOF 10
