REMARK  Name = ZINC06547327
REMARK  12 active torsions:
REMARK  status: ('A' for Active; 'I' for Inactive)
REMARK    1  A    between atoms: C_1  and  C_2
REMARK    2  A    between atoms: C_2  and  O_3
REMARK    3  A    between atoms: O_3  and  C_4
REMARK    4  A    between atoms: C_4  and  C_6
REMARK    5  A    between atoms: C_6  and  C_7
REMARK    6  A    between atoms: C_13  and  C_15
REMARK    7  A    between atoms: C_15  and  S_16
REMARK    8  A    between atoms: S_16  and  C_17
REMARK    9  A    between atoms: C_27  and  C_31
REMARK   10  A    between atoms: C_31  and  C_32
REMARK   11  A    between atoms: C_31  and  C_33
REMARK   12  A    between atoms: C_31  and  C_34
REMARK                            x       y       z     vdW  Elec       q    Type
REMARK                         _______ _______ _______ _____ _____    ______ ____
ROOT
ATOM      1  S   UNL     1       1.903  -4.570  -4.618  0.00  0.00    -0.096 S 
ENDROOT
BRANCH   1   2
ATOM      2  C   UNL     1       3.325  -3.537  -4.748  0.00  0.00    +0.109 A 
ATOM      3  C   UNL     1       3.484  -2.365  -3.954  0.00  0.00    +0.043 A 
ATOM      4  C   UNL     1       2.561  -1.847  -2.958  0.00  0.00    -0.025 A 
ATOM      5  C   UNL     1       2.926  -0.709  -2.325  0.00  0.00    -0.004 A 
ATOM      6  S   UNL     1       4.503  -0.275  -3.016  0.00  0.00    -0.073 S 
ATOM      7  C   UNL     1       4.671  -1.615  -4.150  0.00  0.00    +0.113 A 
ATOM      8  N   UNL     1       5.607  -1.953  -5.016  0.00  0.00    -0.228 NA
ATOM      9  C   UNL     1       5.396  -3.057  -5.723  0.00  0.00    +0.223 A 
ATOM     10  N   UNL     1       4.318  -3.803  -5.596  0.00  0.00    -0.229 NA
ATOM     11  C   UNL     1       2.162   0.025  -1.267  0.00  0.00    +0.046 C 
ATOM     12  C   UNL     1       0.718  -0.497  -1.257  0.00  0.00    -0.000 C 
ATOM     13  C   UNL     1       0.748  -2.029  -1.264  0.00  0.00    +0.009 C 
ATOM     14  C   UNL     1       1.238  -2.532  -2.621  0.00  0.00    +0.037 C 
BRANCH  12  15
ATOM     15  C   UNL     1       0.002  -0.004   0.002  0.00  0.00    -0.035 C 
ATOM     16  C   UNL     1      -0.019   1.526   0.010  0.00  0.00    +0.011 C 
ATOM     17  C   UNL     1       0.742  -0.511   1.242  0.00  0.00    +0.011 C 
ATOM     18  C   UNL     1      -1.433  -0.534   0.013  0.00  0.00    +0.011 C 
ENDBRANCH  12  15
ENDBRANCH   1   2
BRANCH   1  19
ATOM     19  C   UNL     1       2.316  -5.830  -5.851  0.00  0.00    +0.172 C 
BRANCH  19  26
ATOM     20  C   UNL     1      -0.862 -10.701  -7.522  0.00  0.00    +0.061 A 
ATOM     21  C   UNL     1      -1.850 -10.394  -6.647  0.00  0.00    +0.072 A 
ATOM     22  S   UNL     1      -1.199  -8.896  -5.922  0.00  0.00    -0.060 S 
ATOM     23  C   UNL     1       0.280  -8.831  -6.830  0.00  0.00    +0.165 A 
ATOM     24  N   UNL     1       0.184  -9.901  -7.595  0.00  0.00    -0.229 NA
ATOM     25  N   UNL     1       1.301  -7.889  -6.770  0.00  0.00    -0.264 N 
ATOM     26  C   UNL     1       1.210  -6.851  -5.916  0.00  0.00    +0.229 C 
ATOM     27  O   UNL     1       0.238  -6.738  -5.199  0.00  0.00    -0.275 OA
ATOM     28  H   UNL     1       2.078  -7.979  -7.343  0.00  0.00    +0.157 HD
BRANCH  20  29
ATOM     29  C   UNL     1      -0.959 -11.925  -8.396  0.00  0.00    +0.176 C 
BRANCH  29  30
ATOM     30  C   UNL     1      -0.800 -11.524  -9.840  0.00  0.00    +0.313 C 
ATOM     31  O   UNL     1      -0.627 -10.364 -10.130  0.00  0.00    -0.250 OA
BRANCH  30  32
ATOM     32  O   UNL     1      -0.852 -12.457 -10.805  0.00  0.00    -0.465 OA
BRANCH  32  34
ATOM     33  C   UNL     1      -0.779 -13.194 -13.125  0.00  0.00    +0.048 C 
ATOM     34  C   UNL     1      -0.692 -11.999 -12.173  0.00  0.00    +0.229 C 
ENDBRANCH  32  34
ENDBRANCH  30  32
ENDBRANCH  29  30
ENDBRANCH  20  29
ENDBRANCH  19  26
ENDBRANCH   1  19
TORSDOF 8
