REMARK  Name = ZINC36005210
REMARK  13 active torsions:
REMARK  status: ('A' for Active; 'I' for Inactive)
REMARK    1  A    between atoms: C_1  and  C_2
REMARK    2  A    between atoms: C_2  and  O_3
REMARK    3  A    between atoms: O_3  and  C_4
REMARK    4  A    between atoms: C_4  and  C_6
REMARK    5  A    between atoms: C_7  and  C_25
REMARK    6  A    between atoms: N_8  and  C_24
REMARK    7  A    between atoms: C_12  and  C_14
REMARK    8  A    between atoms: C_17  and  C_20
REMARK    9  A    between atoms: C_20  and  C_21
REMARK   10  A    between atoms: C_20  and  C_22
REMARK   11  A    between atoms: C_20  and  C_23
REMARK   12  A    between atoms: C_25  and  N_26
REMARK   13  A    between atoms: C_33  and  C_35
REMARK                            x       y       z     vdW  Elec       q    Type
REMARK                         _______ _______ _______ _____ _____    ______ ____
ROOT
ATOM      1  C   UNL     1       1.718  -2.753   1.811  0.00  0.00    +0.076 C 
ATOM      2  C   UNL     1       1.586  -3.856   2.579  0.00  0.00    +0.010 C 
ATOM      3  N   UNL     1       2.094  -3.897   3.846  0.00  0.00    -0.264 N 
ATOM      4  C   UNL     1       2.745  -2.877   4.419  0.00  0.00    +0.307 C 
ATOM      5  O   UNL     1       3.161  -3.008   5.553  0.00  0.00    -0.252 OA
ATOM      6  N   UNL     1       2.955  -1.710   3.778  0.00  0.00    -0.288 N 
ATOM      7  C   UNL     1       2.451  -1.566   2.402  0.00  0.00    +0.143 C 
ATOM      8  C   UNL     1       1.915  -5.127   4.623  0.00  0.00    +0.139 C 
ATOM      9  H   UNL     1       3.429  -0.984   4.212  0.00  0.00    +0.151 HD
ENDROOT
BRANCH   7  10
ATOM     10  C   UNL     1       3.620  -1.250   1.505  0.00  0.00    -0.022 A 
ATOM     11  C   UNL     1       4.780  -1.997   1.592  0.00  0.00    +0.006 A 
ATOM     12  C   UNL     1       5.853  -1.707   0.769  0.00  0.00    +0.004 A 
ATOM     13  C   UNL     1       5.765  -0.670  -0.140  0.00  0.00    -0.042 A 
ATOM     14  C   UNL     1       4.605   0.077  -0.228  0.00  0.00    +0.004 A 
ATOM     15  C   UNL     1       3.531  -0.216   0.592  0.00  0.00    +0.006 A 
BRANCH  13  16
ATOM     16  C   UNL     1       6.935  -0.353  -1.036  0.00  0.00    -0.013 C 
ATOM     17  C   UNL     1       7.263  -1.574  -1.898  0.00  0.00    +0.015 C 
ATOM     18  C   UNL     1       6.579   0.829  -1.941  0.00  0.00    +0.015 C 
ATOM     19  C   UNL     1       8.150   0.007  -0.180  0.00  0.00    +0.015 C 
ENDBRANCH  13  16
ENDBRANCH   7  10
BRANCH   1  20
ATOM     20  C   UNL     1       1.193  -2.709   0.498  0.00  0.00    +0.339 C 
ATOM     21  O   UNL     1       0.715  -3.711   0.001  0.00  0.00    -0.245 OA
BRANCH  20  22
ATOM     22  O   UNL     1       1.222  -1.556  -0.202  0.00  0.00    -0.462 OA
BRANCH  22  24
ATOM     23  C   UNL     1       0.797  -0.197  -2.154  0.00  0.00    +0.048 C 
ATOM     24  C   UNL     1       0.675  -1.584  -1.522  0.00  0.00    +0.229 C 
ENDBRANCH  22  24
ENDBRANCH  20  22
ENDBRANCH   1  20
BRANCH   2  25
ATOM     25  C   UNL     1       0.868  -5.061   2.029  0.00  0.00    -0.026 C 
BRANCH  25  26
ATOM     26  N   UNL     1       1.807  -5.876   1.246  0.00  0.00    +0.384 N 
ATOM     27  C   UNL     1       1.041  -6.869   0.496  0.00  0.00    -0.077 C 
ATOM     28  C   UNL     1       1.777  -7.208  -0.781  0.00  0.00    +0.000 C 
ATOM     29  C   UNL     1       2.668  -8.441  -0.547  0.00  0.00    +0.106 C 
ATOM     30  N   UNL     1       3.311  -8.388   0.781  0.00  0.00    -0.299 N 
ATOM     31  C   UNL     1       3.862  -7.165   1.327  0.00  0.00    +0.089 C 
ATOM     32  C   UNL     1       2.775  -6.409   2.125  0.00  0.00    -0.059 C 
ATOM     33  C   UNL     1       3.386  -9.518   1.512  0.00  0.00    +0.247 C 
ATOM     34  O   UNL     1       3.803  -9.477   2.653  0.00  0.00    -0.270 OA
ATOM     35  H   UNL     1       2.274  -5.273   0.585  0.00  0.00    -0.081 HD
BRANCH  33  36
ATOM     36  C   UNL     1       2.961 -10.807   0.926  0.00  0.00    +0.037 A 
ATOM     37  C   UNL     1       3.219 -11.085  -0.417  0.00  0.00    +0.013 A 
ATOM     38  C   UNL     1       2.820 -12.290  -0.958  0.00  0.00    +0.001 A 
ATOM     39  C   UNL     1       2.165 -13.222  -0.172  0.00  0.00    +0.000 A 
ATOM     40  C   UNL     1       1.906 -12.952   1.161  0.00  0.00    +0.001 A 
ATOM     41  C   UNL     1       2.305 -11.754   1.715  0.00  0.00    +0.013 A 
ENDBRANCH  33  36
ENDBRANCH  25  26
ENDBRANCH   2  25
TORSDOF 8
