REMARK  Name = ZINC62960365
REMARK  5 active torsions:
REMARK  status: ('A' for Active; 'I' for Inactive)
REMARK    1  A    between atoms: CG2_1  and  CB_2
REMARK    2  A    between atoms: CB_2  and  CA_4
REMARK    3  A    between atoms: CB_2  and  OG1_22
REMARK    4  A    between atoms: CA_4  and  C_6
REMARK    5  A    between atoms: CA_4  and  N_9
REMARK                            x       y       z     vdW  Elec       q    Type
REMARK                         _______ _______ _______ _____ _____    ______ ____
ROOT
ATOM      1  N   THR A   1       2.077   0.090   1.294  0.00  0.00    -0.284 N 
ATOM      2  C   UNK A   0       2.712   0.220   2.475  0.00  0.00    +0.303 C 
ATOM      3  O   UNK A   0       2.143  -0.078   3.507  0.00  0.00    -0.253 OA
ATOM      4  N   UNK A   0       3.978   0.680   2.513  0.00  0.00    -0.286 N 
ATOM      5  C   UNK A   0       4.639   1.154   1.289  0.00  0.00    +0.110 C 
ATOM      6  C   UNK A   0       5.965   0.404   1.123  0.00  0.00    +0.026 C 
ATOM      7  C   UNK A   0       6.795   0.555   2.395  0.00  0.00    -0.026 C 
ATOM      8  C   UNK A   0       8.149  -0.152   2.225  0.00  0.00    +0.007 C 
ATOM      9  C   UNK A   0       9.233   0.935   2.378  0.00  0.00    +0.001 C 
ATOM     10  C   UNK A   0       8.542   2.048   3.206  0.00  0.00    +0.001 C 
ATOM     11  C   UNK A   0       7.097   2.044   2.646  0.00  0.00    +0.007 C 
ATOM     12  C   UNK A   0       6.049  -0.030   3.592  0.00  0.00    +0.026 C 
ATOM     13  C   UNK A   0       4.721   0.723   3.780  0.00  0.00    +0.110 C 
ATOM     14  H   THR A   1       2.503   0.396   0.478  0.00  0.00    +0.151 HD
ENDROOT
BRANCH   1  15
ATOM     15  CA  THR A   1       0.743  -0.513   1.241  0.00  0.00    +0.216 C 
BRANCH  15  16
ATOM     16  C   THR A   1       0.873  -2.013   1.172  0.00  0.00    +0.378 C 
ATOM     17  O   THR A   1       1.845  -2.517   0.637  0.00  0.00    -0.244 OA
ATOM     18  OXT THR A   1       0.005  -2.723   1.652  0.00  0.00    -0.244 OA
ENDBRANCH  15  16
BRANCH  15  20
ATOM     19  CG2 THR A   1      -0.020   1.522   0.009  0.00  0.00    +0.040 C 
ATOM     20  CB  THR A   1       0.003  -0.008   0.002  0.00  0.00    +0.143 C 
BRANCH  20  21
ATOM     21  OG1 THR A   1       0.672  -0.468  -1.174  0.00  0.00    -0.390 OA
ATOM     22  HG1 THR A   1       1.589  -0.169  -1.247  0.00  0.00    +0.210 HD
ENDBRANCH  20  21
ENDBRANCH  15  20
ENDBRANCH   1  15
TORSDOF 4
