REMARK  Name = ZINC37423128
REMARK  11 active torsions:
REMARK  status: ('A' for Active; 'I' for Inactive)
REMARK    1  A    between atoms: C_1  and  N_2
REMARK    2  A    between atoms: N_2  and  C_3
REMARK    3  A    between atoms: N_2  and  C_4
REMARK    4  A    between atoms: C_4  and  C_5
REMARK    5  A    between atoms: C_5  and  N_6
REMARK    6  A    between atoms: N_6  and  C_7
REMARK    7  A    between atoms: C_7  and  C_8
REMARK    8  A    between atoms: C_13  and  O_14
REMARK    9  A    between atoms: O_14  and  S_15
REMARK   10  A    between atoms: S_15  and  C_18
REMARK   11  A    between atoms: C_26  and  C_28
REMARK                            x       y       z     vdW  Elec       q    Type
REMARK                         _______ _______ _______ _____ _____    ______ ____
ROOT
ATOM      1  C   UNL     1      -5.043   1.135  -1.592  0.00  0.00    +0.016 A 
ATOM      2  C   UNL     1      -4.622   2.450  -1.540  0.00  0.00    +0.029 A 
ATOM      3  C   UNL     1      -5.104   3.368  -2.455  0.00  0.00    +0.042 A 
ATOM      4  C   UNL     1      -6.008   2.973  -3.424  0.00  0.00    +0.023 A 
ATOM      5  C   UNL     1      -6.432   1.659  -3.480  0.00  0.00    +0.050 A 
ATOM      6  C   UNL     1      -5.945   0.735  -2.566  0.00  0.00    +0.162 A 
ATOM      7 CL   UNL     1      -4.573   5.020  -2.386  0.00  0.00    -0.084 Cl
ENDROOT
BRANCH   1   8
ATOM      8  C   UNL     1      -4.517   0.134  -0.595  0.00  0.00    +0.147 C 
BRANCH   8   9
ATOM      9  N   UNL     1      -3.447  -0.653  -1.211  0.00  0.00    -0.295 N 
ATOM     10  C   UNL     1      -3.740  -1.796  -1.863  0.00  0.00    +0.250 C 
ATOM     11  O   UNL     1      -4.899  -2.141  -1.993  0.00  0.00    -0.270 OA
BRANCH  10  12
ATOM     12  C   UNL     1      -2.655  -2.628  -2.420  0.00  0.00    +0.072 A 
ATOM     13  C   UNL     1      -1.770  -2.092  -3.358  0.00  0.00    +0.016 A 
ATOM     14  C   UNL     1      -0.759  -2.874  -3.873  0.00  0.00    +0.001 A 
ATOM     15  C   UNL     1      -0.617  -4.189  -3.464  0.00  0.00    +0.003 A 
ATOM     16  C   UNL     1      -1.488  -4.729  -2.536  0.00  0.00    +0.039 A 
ATOM     17  C   UNL     1      -2.504  -3.955  -2.005  0.00  0.00    +0.135 A 
ATOM     18  F   UNL     1      -3.352  -4.481  -1.094  0.00  0.00    -0.205 F 
ENDBRANCH  10  12
BRANCH   9  19
ATOM     19  C   UNL     1      -2.057  -0.199  -1.119  0.00  0.00    +0.090 C 
BRANCH  19  20
ATOM     20  C   UNL     1      -1.444  -0.698   0.192  0.00  0.00    -0.060 C 
BRANCH  20  22
ATOM     21  C   UNL     1      -0.019   1.224   0.374  0.00  0.00    -0.097 C 
ATOM     22  N   UNL     1      -0.050  -0.242   0.284  0.00  0.00    +0.377 N 
ATOM     23  C   UNL     1       0.575  -0.819   1.482  0.00  0.00    -0.097 C 
ATOM     24  H   UNL     1       0.456  -0.540  -0.536  0.00  0.00    -0.083 HD
ENDBRANCH  20  22
ENDBRANCH  19  20
ENDBRANCH   9  19
ENDBRANCH   8   9
ENDBRANCH   1   8
BRANCH   6  25
ATOM     25  O   UNL     1      -6.356  -0.559  -2.623  0.00  0.00    -0.342 OA
BRANCH  25  26
ATOM     26  S   UNL     1      -7.599  -0.852  -1.794  0.00  0.00    +0.151 S 
ATOM     27  O   UNL     1      -7.766  -2.263  -1.795  0.00  0.00    -0.131 OA
ATOM     28  O   UNL     1      -7.472  -0.101  -0.594  0.00  0.00    -0.131 OA
BRANCH  26  29
ATOM     29  C   UNL     1      -8.976  -0.180  -2.664  0.00  0.00    +0.128 A 
ATOM     30  C   UNL     1      -9.371   1.124  -2.432  0.00  0.00    +0.033 A 
ATOM     31  C   UNL     1     -10.450   1.651  -3.115  0.00  0.00    +0.040 A 
ATOM     32  C   UNL     1     -11.137   0.873  -4.032  0.00  0.00    +0.124 A 
ATOM     33  C   UNL     1     -10.740  -0.433  -4.263  0.00  0.00    +0.040 A 
ATOM     34  C   UNL     1      -9.657  -0.957  -3.583  0.00  0.00    +0.033 A 
ATOM     35  F   UNL     1     -12.193   1.387  -4.699  0.00  0.00    -0.205 F 
ENDBRANCH  26  29
ENDBRANCH  25  26
ENDBRANCH   6  25
TORSDOF 9
