REMARK  Name = ZINC16768982
REMARK  5 active torsions:
REMARK  status: ('A' for Active; 'I' for Inactive)
REMARK    1  A    between atoms: C_4  and  C_7
REMARK    2  A    between atoms: C_10  and  C_13
REMARK    3  A    between atoms: C_13  and  C_15
REMARK    4  A    between atoms: C_15  and  N_16
REMARK    5  A    between atoms: N_16  and  C_17
REMARK                            x       y       z     vdW  Elec       q    Type
REMARK                         _______ _______ _______ _____ _____    ______ ____
ROOT
ATOM      1  N   UNL     1      -1.143   7.896   0.052  0.00  0.00    -0.283 N 
ATOM      2  C   UNL     1      -1.649   8.542   1.151  0.00  0.00    +0.075 C 
ATOM      3  C   UNL     1      -2.261   8.605   3.460  0.00  0.00    +0.113 C 
ATOM      4  C   UNL     1      -1.242   9.635   3.949  0.00  0.00    +0.021 C 
ATOM      5  C   UNL     1      -1.427  10.960   3.227  0.00  0.00    +0.002 C 
ATOM      6  C   UNL     1      -1.116  10.882   1.742  0.00  0.00    +0.007 C 
ATOM      7  C   UNL     1      -2.121   9.974   1.029  0.00  0.00    +0.069 C 
ATOM      8  N   UNL     1      -1.700   7.857   2.272  0.00  0.00    -0.376 N 
ATOM      9  H   UNL     1      -1.381   6.883   2.336  0.00  0.00    +0.161 HD
ENDROOT
BRANCH   1  10
ATOM     10  C   UNL     1      -1.038   8.571  -1.171  0.00  0.00    +0.039 A 
ATOM     11  C   UNL     1      -2.041   8.441  -2.123  0.00  0.00    +0.027 A 
ATOM     12  C   UNL     1      -1.941   9.110  -3.328  0.00  0.00    +0.051 A 
ATOM     13  C   UNL     1      -0.837   9.904  -3.594  0.00  0.00    +0.166 A 
ATOM     14  C   UNL     1       0.172  10.032  -2.643  0.00  0.00    +0.168 A 
ATOM     15  C   UNL     1       0.070   9.365  -1.433  0.00  0.00    +0.073 A 
ATOM     16  O   UNL     1       1.138  10.858  -3.140  0.00  0.00    -0.453 OA
ATOM     17  C   UNL     1       0.908  10.908  -4.560  0.00  0.00    +0.466 C 
ATOM     18  O   UNL     1      -0.503  10.651  -4.687  0.00  0.00    -0.453 OA
ENDBRANCH   1  10
BRANCH   1  19
ATOM     19  C   UNL     1      -0.711   6.500   0.157  0.00  0.00    +0.191 C 
BRANCH  19  20
ATOM     20  C   UNL     1       0.745   6.452   0.543  0.00  0.00    +0.181 C 
ATOM     21  O   UNL     1       1.362   7.483   0.713  0.00  0.00    -0.290 OA
BRANCH  20  25
ATOM     22  C   UNL     1       2.687   2.717   1.032  0.00  0.00    -0.018 A 
ATOM     23  C   UNL     1       1.340   2.759   0.670  0.00  0.00    +0.009 A 
ATOM     24  C   UNL     1       0.709   3.966   0.516  0.00  0.00    +0.012 A 
ATOM     25  C   UNL     1       1.419   5.157   0.713  0.00  0.00    +0.019 A 
ATOM     26  C   UNL     1       2.771   5.111   1.071  0.00  0.00    +0.012 A 
ATOM     27  C   UNL     1       3.397   3.902   1.229  0.00  0.00    +0.009 A 
BRANCH  22  31
ATOM     28  C   UNL     1       4.635  -1.030   1.521  0.00  0.00    +0.000 A 
ATOM     29  C   UNL     1       3.298  -0.990   1.168  0.00  0.00    +0.001 A 
ATOM     30  C   UNL     1       2.661   0.224   1.008  0.00  0.00    +0.008 A 
ATOM     31  C   UNL     1       3.366   1.410   1.203  0.00  0.00    -0.018 A 
ATOM     32  C   UNL     1       4.715   1.363   1.554  0.00  0.00    +0.008 A 
ATOM     33  C   UNL     1       5.341   0.144   1.716  0.00  0.00    +0.001 A 
ENDBRANCH  22  31
ENDBRANCH  20  25
ENDBRANCH  19  20
ENDBRANCH   1  19
TORSDOF 5
