REMARK  Name = ZINC16903554
REMARK  10 active torsions:
REMARK  status: ('A' for Active; 'I' for Inactive)
REMARK    1  A    between atoms: C_1  and  C_2
REMARK    2  A    between atoms: C_5  and  S_7
REMARK    3  A    between atoms: S_7  and  C_8
REMARK    4  A    between atoms: C_11  and  C_17
REMARK    5  A    between atoms: C_13  and  N_14
REMARK    6  A    between atoms: C_17  and  O_19
REMARK    7  A    between atoms: O_19  and  C_20
REMARK    8  A    between atoms: C_20  and  C_22
REMARK    9  A    between atoms: C_20  and  C_23
REMARK   10  A    between atoms: N_25  and  C_26
REMARK                            x       y       z     vdW  Elec       q    Type
REMARK                         _______ _______ _______ _____ _____    ______ ____
ROOT
ATOM      1  C   UNL     1      -1.456   3.001   5.894  0.00  0.00    +0.045 A 
ATOM      2  C   UNL     1      -2.685   2.925   5.244  0.00  0.00    +0.018 A 
ATOM      3  C   UNL     1      -3.830   3.274   5.902  0.00  0.00    +0.016 A 
ATOM      4  C   UNL     1      -3.766   3.720   7.227  0.00  0.00    +0.061 A 
ATOM      5  C   UNL     1      -2.529   3.800   7.875  0.00  0.00    +0.048 A 
ATOM      6  C   UNL     1      -1.388   3.444   7.213  0.00  0.00    +0.141 A 
ENDROOT
BRANCH   6   7
ATOM      7  N   UNL     1      -0.079   3.529   7.899  0.00  0.00    +0.058 N 
ATOM      8  O   UNL     1      -0.019   3.916   9.052  0.00  0.00    -0.126 OA
ATOM      9  O   UNL     1       0.939   3.211   7.309  0.00  0.00    -0.126 OA
ENDBRANCH   6   7
BRANCH   4  10
ATOM     10  C   UNL     1      -4.998   4.103   7.937  0.00  0.00    +0.340 C 
ATOM     11  O   UNL     1      -4.941   4.490   9.088  0.00  0.00    -0.245 OA
BRANCH  10  12
ATOM     12  O   UNL     1      -6.189   4.025   7.311  0.00  0.00    -0.449 OA
BRANCH  12  13
ATOM     13  C   UNL     1      -7.361   4.419   8.073  0.00  0.00    +0.259 C 
ATOM     14  C   UNL     1      -7.928   3.201   8.805  0.00  0.00    +0.062 C 
BRANCH  13  15
ATOM     15  C   UNL     1      -8.405   4.973   7.137  0.00  0.00    +0.258 C 
ATOM     16  O   UNL     1      -8.220   4.947   5.939  0.00  0.00    -0.271 OA
ATOM     17  N   UNL     1      -9.543   5.498   7.633  0.00  0.00    -0.281 N 
ATOM     18  H   UNL     1      -9.655   5.596   8.591  0.00  0.00    +0.155 HD
BRANCH  17  19
ATOM     19  C   UNL     1     -10.563   5.903   6.764  0.00  0.00    +0.052 A 
ATOM     20  C   UNL     1     -10.667   5.335   5.501  0.00  0.00    +0.025 A 
ATOM     21  C   UNL     1     -11.678   5.732   4.648  0.00  0.00    +0.002 A 
ATOM     22  C   UNL     1     -12.580   6.702   5.046  0.00  0.00    +0.002 A 
ATOM     23  C   UNL     1     -12.477   7.274   6.300  0.00  0.00    +0.022 A 
ATOM     24  C   UNL     1     -11.470   6.877   7.161  0.00  0.00    +0.062 A 
ATOM     25 CL   UNL     1     -11.340   7.596   8.736  0.00  0.00    -0.082 Cl
ENDBRANCH  17  19
ENDBRANCH  13  15
ENDBRANCH  12  13
ENDBRANCH  10  12
ENDBRANCH   4  10
BRANCH   1  26
ATOM     26  S   UNL     1       0.018   2.543   5.044  0.00  0.00    -0.061 S 
BRANCH  26  31
ATOM     27  C   UNL     1       2.506  -2.063   5.351  0.00  0.00    +0.066 C 
ATOM     28  C   UNL     1       1.425  -1.114   5.797  0.00  0.00    +0.047 A 
ATOM     29  C   UNL     1       0.547  -1.468   6.767  0.00  0.00    +0.070 A 
ATOM     30  S   UNL     1      -0.457   0.007   6.862  0.00  0.00    -0.069 S 
ATOM     31  C   UNL     1       0.361   0.918   5.631  0.00  0.00    +0.139 A 
ATOM     32  N   UNL     1       1.306   0.080   5.247  0.00  0.00    -0.238 NA
ENDBRANCH  26  31
ENDBRANCH   1  26
TORSDOF 8
