REMARK  Name = ZINC20721958
REMARK  2 active torsions:
REMARK  status: ('A' for Active; 'I' for Inactive)
REMARK    1  A    between atoms: C_5  and  C_7
REMARK    2  A    between atoms: C_10  and  O_18
REMARK                            x       y       z     vdW  Elec       q    Type
REMARK                         _______ _______ _______ _____ _____    ______ ____
ROOT
ATOM      1  C   UNL     1       1.228  -2.186  -0.022  0.00  0.00    +0.066 C 
ATOM      2  C   UNL     1       0.508  -2.723   1.220  0.00  0.00    +0.108 C 
ATOM      3  C   UNL     1      -0.982  -2.639   1.084  0.00  0.00    +0.190 C 
ATOM      4  N   UNL     1      -1.621  -2.779  -0.036  0.00  0.00    -0.196 NA
ATOM      5  C   UNL     1      -0.899  -2.980  -1.189  0.00  0.00    +0.181 A 
ATOM      6  C   UNL     1       0.495  -2.700  -1.236  0.00  0.00    +0.024 A 
ATOM      7  C   UNL     1       0.934  -2.975  -2.468  0.00  0.00    +0.111 A 
ATOM      8  N   UNL     1      -0.120  -3.419  -3.193  0.00  0.00    -0.282 N 
ATOM      9  H   UNL     1      -0.095  -3.694  -4.123  0.00  0.00    +0.188 HD
ATOM     10  N   UNL     1      -1.259  -3.414  -2.364  0.00  0.00    -0.154 NA
ENDROOT
BRANCH   1  15
ATOM     11  C   UNL     1      -0.017   1.378   0.010  0.00  0.00    +0.000 A 
ATOM     12  C   UNL     1       1.171   2.087   0.002  0.00  0.00    +0.003 A 
ATOM     13  C   UNL     1       2.377   1.414  -0.013  0.00  0.00    +0.038 A 
ATOM     14  C   UNL     1       2.397   0.029  -0.021  0.00  0.00    +0.127 A 
ATOM     15  C   UNL     1       1.208  -0.679  -0.013  0.00  0.00    -0.004 A 
ATOM     16  C   UNL     1       0.002  -0.004   0.002  0.00  0.00    +0.007 A 
ATOM     17  F   UNL     1       3.577  -0.630  -0.036  0.00  0.00    -0.205 F 
ENDBRANCH   1  15
BRANCH   3  18
ATOM     18  O   UNL     1      -1.706  -2.404   2.199  0.00  0.00    -0.495 OA
ATOM     19  H   UNL     1      -2.660  -2.361   2.046  0.00  0.00    +0.293 HD
ENDBRANCH   3  18
TORSDOF 2
