REMARK  Name = ZINC31573869
REMARK  8 active torsions:
REMARK  status: ('A' for Active; 'I' for Inactive)
REMARK    1  A    between atoms: C_1  and  C_2
REMARK    2  A    between atoms: C_5  and  C_7
REMARK    3  A    between atoms: N_9  and  C_10
REMARK    4  A    between atoms: C_13  and  C_16
REMARK    5  A    between atoms: N_18  and  N_19
REMARK    6  A    between atoms: N_19  and  C_20
REMARK    7  A    between atoms: C_20  and  N_22
REMARK    8  A    between atoms: N_22  and  C_23
REMARK                            x       y       z     vdW  Elec       q    Type
REMARK                         _______ _______ _______ _____ _____    ______ ____
ROOT
ATOM      1  C   UNL     1      -2.524   3.858   0.066  0.00  0.00    +0.260 C 
ATOM      2  O   UNL     1      -2.548   5.064  -0.085  0.00  0.00    -0.269 OA
ATOM      3  N   UNL     1      -3.673   3.179   0.252  0.00  0.00    -0.231 N 
ATOM      4  H   UNL     1      -3.651   2.088   0.388  0.00  0.00    +0.173 HD
ENDROOT
BRANCH   1   8
ATOM      5  C   UNL     1       1.182   1.785   0.006  0.00  0.00    +0.033 A 
ATOM      6  C   UNL     1      -0.003   1.082   0.198  0.00  0.00    +0.024 A 
ATOM      7  C   UNL     1      -1.207   1.751   0.213  0.00  0.00    +0.015 A 
ATOM      8  C   UNL     1      -1.236   3.138   0.045  0.00  0.00    +0.038 A 
ATOM      9  C   UNL     1      -0.043   3.840  -0.148  0.00  0.00    +0.015 A 
ATOM     10  C   UNL     1       1.156   3.165  -0.167  0.00  0.00    +0.024 A 
BRANCH   5  13
ATOM     11  C   UNL     1       2.463  -0.146  -0.516  0.00  0.00    +0.221 C 
ATOM     12  O   UNL     1       1.486  -0.642  -1.035  0.00  0.00    -0.275 OA
ATOM     13  N   UNL     1       2.399   1.104  -0.015  0.00  0.00    -0.285 N 
ATOM     14  H   UNL     1       3.306   1.587   0.378  0.00  0.00    +0.155 HD
BRANCH  11  18
ATOM     15  C   UNL     1       2.462  -2.850  -1.648  0.00  0.00    +0.008 C 
ATOM     16  C   UNL     1       3.759  -2.338  -1.018  0.00  0.00    -0.002 C 
ATOM     17  C   UNL     1       4.495  -1.205  -1.737  0.00  0.00    +0.017 C 
ATOM     18  C   UNL     1       3.750  -0.926  -0.430  0.00  0.00    +0.078 C 
ENDBRANCH  11  18
ENDBRANCH   5  13
ENDBRANCH   1   8
BRANCH   3  19
ATOM     19  N   UNL     1      -4.896   3.863   0.272  0.00  0.00    -0.246 N 
ATOM     20  H   UNL     1      -4.918   4.954   0.136  0.00  0.00    +0.172 HD
BRANCH  19  21
ATOM     21  C   UNL     1      -6.045   3.184   0.458  0.00  0.00    +0.147 C 
ATOM     22  S   UNL     1      -7.539   4.020   0.482  0.00  0.00    -0.017 S 
BRANCH  21  23
ATOM     23  N   UNL     1      -6.018   1.847   0.625  0.00  0.00    -0.323 N 
ATOM     24  H   UNL     1      -5.058   1.310   0.610  0.00  0.00    +0.148 HD
BRANCH  23  25
ATOM     25  C   UNL     1      -7.267   1.109   0.827  0.00  0.00    +0.072 C 
ATOM     26  C   UNL     1      -7.643   1.139   2.310  0.00  0.00    +0.022 C 
ATOM     27  C   UNL     1      -8.948   0.368   2.521  0.00  0.00    +0.002 C 
ATOM     28  C   UNL     1      -8.761  -1.083   2.072  0.00  0.00    +0.000 C 
ATOM     29  C   UNL     1      -8.385  -1.113   0.589  0.00  0.00    +0.002 C 
ATOM     30  C   UNL     1      -7.081  -0.342   0.378  0.00  0.00    +0.022 C 
ENDBRANCH  23  25
ENDBRANCH  21  23
ENDBRANCH  19  21
ENDBRANCH   3  19
TORSDOF 7
