REMARK  Name = ZINC39080114
REMARK  1 active torsions:
REMARK  status: ('A' for Active; 'I' for Inactive)
REMARK    1  A    between atoms: C_9  and  C_12
REMARK                            x       y       z     vdW  Elec       q    Type
REMARK                         _______ _______ _______ _____ _____    ______ ____
ROOT
ATOM      1  C   UNL     1      -0.019   1.524   0.010  0.00  0.00    +0.004 C 
ATOM      2  C   UNL     1       1.412   2.084  -0.000  0.00  0.00    +0.019 C 
ATOM      3  C   UNL     1       2.123   1.505  -1.215  0.00  0.00    +0.058 C 
ATOM      4  C   UNL     1       3.589   1.935  -1.341  0.00  0.00    +0.020 C 
ATOM      5  C   UNL     1       4.302   0.687  -1.922  0.00  0.00    +0.017 C 
ATOM      6  C   UNL     1       3.194  -0.394  -2.027  0.00  0.00    +0.086 C 
ATOM      7  N   UNL     1       2.187   0.030  -1.036  0.00  0.00    -0.284 NA
ATOM      8  C   UNL     1       0.848  -0.529  -1.168  0.00  0.00    +0.160 C 
ATOM      9  C   UNL     1       0.002  -0.004   0.002  0.00  0.00    +0.034 C 
ENDROOT
BRANCH   8  10
ATOM     10  C   UNL     1       0.253  -0.104  -2.445  0.00  0.00    +0.081 C 
ATOM     11  N   UNL     1      -0.205   0.225  -3.431  0.00  0.00    -0.195 NA
ENDBRANCH   8  10
TORSDOF 1
