REMARK  Name = ZINC27362778
REMARK  10 active torsions:
REMARK  status: ('A' for Active; 'I' for Inactive)
REMARK    1  A    between atoms: C_1  and  C_2
REMARK    2  A    between atoms: C_2  and  C_4
REMARK    3  A    between atoms: C_2  and  N_13
REMARK    4  A    between atoms: C_4  and  C_5
REMARK    5  A    between atoms: C_5  and  C_6
REMARK    6  A    between atoms: C_9  and  O_12
REMARK    7  A    between atoms: N_16  and  C_17
REMARK    8  A    between atoms: C_17  and  C_18
REMARK    9  A    between atoms: C_18  and  C_19
REMARK   10  A    between atoms: C_19  and  C_20
REMARK                            x       y       z     vdW  Elec       q    Type
REMARK                         _______ _______ _______ _____ _____    ______ ____
ROOT
ATOM      1  N   UNL     1      -4.146   2.247   0.893  0.00  0.00    -0.297 N 
ATOM      2  C   UNL     1      -5.239   2.804   0.334  0.00  0.00    +0.300 C 
ATOM      3  O   UNL     1      -5.363   4.013   0.315  0.00  0.00    -0.253 OA
ATOM      4  N   UNL     1      -6.195   2.020  -0.202  0.00  0.00    -0.299 N 
ATOM      5  H   UNL     1      -4.035   1.153   0.910  0.00  0.00    +0.151 HD
ATOM      6  H   UNL     1      -6.084   0.926  -0.185  0.00  0.00    +0.150 HD
ENDROOT
BRANCH   1   8
ATOM      7  C   UNL     1      -3.484   3.450   2.917  0.00  0.00    +0.028 C 
ATOM      8  C   UNL     1      -3.107   3.099   1.476  0.00  0.00    +0.072 C 
BRANCH   8   9
ATOM      9  C   UNL     1      -1.771   2.353   1.466  0.00  0.00    +0.026 C 
BRANCH   9  10
ATOM     10  C   UNL     1      -1.333   2.113   0.020  0.00  0.00    +0.037 C 
BRANCH  10  11
ATOM     11  C   UNL     1      -0.017   1.378   0.010  0.00  0.00    -0.047 A 
ATOM     12  C   UNL     1       1.170   2.088   0.002  0.00  0.00    +0.007 A 
ATOM     13  C   UNL     1       2.377   1.417  -0.013  0.00  0.00    +0.045 A 
ATOM     14  C   UNL     1       2.399   0.030  -0.021  0.00  0.00    +0.117 A 
ATOM     15  C   UNL     1       1.207  -0.680  -0.013  0.00  0.00    +0.045 A 
ATOM     16  C   UNL     1       0.002  -0.004   0.002  0.00  0.00    +0.007 A 
BRANCH  14  17
ATOM     17  O   UNL     1       3.586  -0.632  -0.035  0.00  0.00    -0.507 OA
ATOM     18  H   UNL     1       3.601  -1.732  -0.041  0.00  0.00    +0.292 HD
ENDBRANCH  14  17
ENDBRANCH  10  11
ENDBRANCH   9  10
ENDBRANCH   8   9
ENDBRANCH   1   8
BRANCH   4  19
ATOM     19  C   UNL     1      -7.383   2.626  -0.809  0.00  0.00    +0.106 C 
BRANCH  19  20
ATOM     20  C   UNL     1      -8.303   1.524  -1.339  0.00  0.00    +0.026 C 
BRANCH  20  21
ATOM     21  C   UNL     1      -9.544   2.156  -1.973  0.00  0.00    +0.076 C 
BRANCH  21  22
ATOM     22  C   UNL     1     -10.450   1.070  -2.494  0.00  0.00    +0.108 A 
ATOM     23  N   UNL     1     -11.760   0.921  -2.160  0.00  0.00    -0.342 N 
ATOM     24  H   UNL     1     -12.232   1.625  -1.459  0.00  0.00    +0.167 HD
ATOM     25  C   UNL     1     -12.235  -0.180  -2.843  0.00  0.00    +0.066 A 
ATOM     26  C   UNL     1     -13.466  -0.819  -2.912  0.00  0.00    +0.028 A 
ATOM     27  C   UNL     1     -13.616  -1.930  -3.713  0.00  0.00    +0.002 A 
ATOM     28  C   UNL     1     -12.544  -2.414  -4.451  0.00  0.00    +0.002 A 
ATOM     29  C   UNL     1     -11.326  -1.799  -4.396  0.00  0.00    +0.030 A 
ATOM     30  C   UNL     1     -11.151  -0.671  -3.590  0.00  0.00    +0.089 A 
ATOM     31  N   UNL     1     -10.094   0.142  -3.334  0.00  0.00    -0.232 NA
ENDBRANCH  21  22
ENDBRANCH  20  21
ENDBRANCH  19  20
ENDBRANCH   4  19
TORSDOF 9
