REMARK  Name = ZINC31474476
REMARK  12 active torsions:
REMARK  status: ('A' for Active; 'I' for Inactive)
REMARK    1  A    between atoms: C_1  and  C_2
REMARK    2  A    between atoms: C_2  and  C_3
REMARK    3  A    between atoms: C_2  and  C_4
REMARK    4  A    between atoms: C_2  and  C_5
REMARK    5  A    between atoms: C_5  and  C_6
REMARK    6  A    between atoms: C_6  and  N_7
REMARK    7  A    between atoms: N_7  and  C_8
REMARK    8  A    between atoms: N_7  and  C_18
REMARK    9  A    between atoms: C_8  and  C_9
REMARK   10  A    between atoms: C_12  and  C_15
REMARK   11  A    between atoms: C_18  and  C_19
REMARK   12  A    between atoms: C_22  and  C_25
REMARK                            x       y       z     vdW  Elec       q    Type
REMARK                         _______ _______ _______ _____ _____    ______ ____
ROOT
ATOM      1  N   UNL     1      -1.000   1.606  -1.058  0.00  0.00    +0.385 N 
ATOM      2  H   UNL     1      -2.076   1.400  -1.150  0.00  0.00    -0.081 HD
ENDROOT
BRANCH   1   3
ATOM      3  C   UNL     1      -0.798   3.048  -1.254  0.00  0.00    -0.077 C 
BRANCH   3   4
ATOM      4  C   UNL     1      -1.602   3.515  -2.470  0.00  0.00    -0.013 C 
BRANCH   4   6
ATOM      5  C   UNL     1       0.097   5.293  -2.910  0.00  0.00    +0.010 C 
ATOM      6  C   UNL     1      -1.389   5.016  -2.676  0.00  0.00    -0.039 C 
ATOM      7  C   UNL     1      -2.193   5.482  -3.892  0.00  0.00    +0.010 C 
ATOM      8  C   UNL     1      -1.860   5.773  -1.433  0.00  0.00    +0.010 C 
ENDBRANCH   4   6
ENDBRANCH   3   4
ENDBRANCH   1   3
BRANCH   1   9
ATOM      9  C   UNL     1      -0.574   1.193   0.286  0.00  0.00    -0.043 C 
BRANCH   9  10
ATOM     10  C   UNL     1      -1.476   1.825   1.315  0.00  0.00    -0.064 A 
ATOM     11  C   UNL     1      -1.153   3.059   1.849  0.00  0.00    +0.002 A 
ATOM     12  C   UNL     1      -1.976   3.645   2.788  0.00  0.00    +0.013 A 
ATOM     13  C   UNL     1      -3.132   2.984   3.207  0.00  0.00    +0.037 A 
ATOM     14  C   UNL     1      -3.450   1.737   2.668  0.00  0.00    +0.013 A 
ATOM     15  C   UNL     1      -2.620   1.164   1.726  0.00  0.00    +0.002 A 
BRANCH  13  16
ATOM     16  C   UNL     1      -4.017   3.604   4.216  0.00  0.00    +0.242 C 
ATOM     17  O   UNL     1      -5.023   3.026   4.579  0.00  0.00    -0.270 OA
ATOM     18  N   UNL     1      -3.708   4.809   4.734  0.00  0.00    -0.325 N 
ATOM     19  H   UNL     1      -4.366   5.270   5.486  0.00  0.00    +0.145 HD
ATOM     20  H   UNL     1      -2.797   5.332   4.407  0.00  0.00    +0.145 HD
ENDBRANCH  13  16
ENDBRANCH   9  10
ENDBRANCH   1   9
BRANCH   1  21
ATOM     21  C   UNL     1      -0.302   0.832  -2.093  0.00  0.00    -0.043 C 
BRANCH  21  22
ATOM     22  C   UNL     1      -0.891  -0.554  -2.166  0.00  0.00    -0.064 A 
ATOM     23  C   UNL     1      -0.291  -1.595  -1.481  0.00  0.00    +0.002 A 
ATOM     24  C   UNL     1      -0.828  -2.864  -1.540  0.00  0.00    +0.013 A 
ATOM     25  C   UNL     1      -1.973  -3.099  -2.302  0.00  0.00    +0.037 A 
ATOM     26  C   UNL     1      -2.571  -2.045  -2.996  0.00  0.00    +0.013 A 
ATOM     27  C   UNL     1      -2.027  -0.780  -2.924  0.00  0.00    +0.002 A 
BRANCH  25  28
ATOM     28  C   UNL     1      -2.551  -4.458  -2.374  0.00  0.00    +0.242 C 
ATOM     29  O   UNL     1      -3.549  -4.659  -3.038  0.00  0.00    -0.270 OA
ATOM     30  N   UNL     1      -1.972  -5.473  -1.703  0.00  0.00    -0.325 N 
ATOM     31  H   UNL     1      -2.402  -6.484  -1.757  0.00  0.00    +0.145 HD
ATOM     32  H   UNL     1      -1.069  -5.291  -1.102  0.00  0.00    +0.145 HD
ENDBRANCH  25  28
ENDBRANCH  21  22
ENDBRANCH   1  21
TORSDOF 9
