REMARK  Name = ZINC03308408
REMARK  7 active torsions:
REMARK  status: ('A' for Active; 'I' for Inactive)
REMARK    1  A    between atoms: C_1  and  C_2
REMARK    2  A    between atoms: C_5  and  N_9
REMARK    3  A    between atoms: C_6  and  C_8
REMARK    4  A    between atoms: C_10  and  N_28
REMARK    5  A    between atoms: C_11  and  C_15
REMARK    6  A    between atoms: C_12  and  C_14
REMARK    7  A    between atoms: C_15  and  O_27
REMARK                            x       y       z     vdW  Elec       q    Type
REMARK                         _______ _______ _______ _____ _____    ______ ____
ROOT
ATOM      1  N   UNL     1       1.564  -1.730  -0.618  0.00  0.00    -0.218 N 
ATOM      2  C   UNL     1       0.515  -2.598  -0.614  0.00  0.00    +0.127 A 
ATOM      3  C   UNL     1       1.028  -3.858  -0.545  0.00  0.00    +0.060 A 
ATOM      4  C   UNL     1       2.421  -3.752  -0.497  0.00  0.00    +0.069 A 
ATOM      5  N   UNL     1       2.742  -2.484  -0.540  0.00  0.00    -0.170 NA
ATOM      6  C   UNL     1       3.389  -4.903  -0.411  0.00  0.00    +0.068 C 
ENDROOT
BRANCH   3   7
ATOM      7  C   UNL     1       0.234  -5.138  -0.519  0.00  0.00    +0.199 C 
ATOM      8  C   UNL     1       0.957  -6.193   0.286  0.00  0.00    +0.021 A 
ATOM      9  C   UNL     1       1.347  -6.259   1.605  0.00  0.00    +0.029 A 
ATOM     10  C   UNL     1       2.011  -7.380   2.074  0.00  0.00    +0.043 A 
ATOM     11  C   UNL     1       2.280  -8.431   1.214  0.00  0.00    +0.042 A 
ATOM     12  C   UNL     1       1.890  -8.366  -0.109  0.00  0.00    +0.064 A 
ATOM     13  C   UNL     1       1.221  -7.240  -0.587  0.00  0.00    +0.059 A 
ATOM     14  N   UNL     1       0.733  -6.940  -1.861  0.00  0.00    -0.281 N 
ATOM     15  C   UNL     1       0.143  -5.734  -1.908  0.00  0.00    +0.258 C 
ATOM     16  O   UNL     1      -0.366  -5.219  -2.881  0.00  0.00    -0.272 OA
ATOM     17 CL   UNL     1       2.233  -9.690  -1.179  0.00  0.00    -0.082 Cl
ATOM     18 CL   UNL     1       2.504  -7.469   3.736  0.00  0.00    -0.083 Cl
ATOM     19  H   UNL     1       0.812  -7.535  -2.623  0.00  0.00    +0.155 HD
BRANCH   7  20
ATOM     20  O   UNL     1      -1.072  -4.906   0.012  0.00  0.00    -0.371 OA
ATOM     21  H   UNL     1      -1.627  -5.697   0.052  0.00  0.00    +0.212 HD
ENDBRANCH   7  20
ENDBRANCH   3   7
BRANCH   1  26
ATOM     22  C   UNL     1       1.222   3.929  -0.875  0.00  0.00    +0.044 C 
ATOM     23  C   UNL     1       1.312   2.426  -0.807  0.00  0.00    -0.050 A 
ATOM     24  C   UNL     1       0.580   1.649  -1.687  0.00  0.00    +0.005 A 
ATOM     25  C   UNL     1       0.662   0.272  -1.626  0.00  0.00    +0.028 A 
ATOM     26  C   UNL     1       1.480  -0.333  -0.681  0.00  0.00    +0.070 A 
ATOM     27  C   UNL     1       2.213   0.449   0.200  0.00  0.00    -0.025 A 
ATOM     28  C   UNL     1       2.128   1.826   0.135  0.00  0.00    +0.008 A 
ATOM     29  C   UNL     1       3.102  -0.204   1.227  0.00  0.00    +0.046 C 
ENDBRANCH   1  26
BRANCH   2  30
ATOM     30  N   UNL     1      -0.834  -2.260  -0.672  0.00  0.00    -0.343 N 
ATOM     31  H   UNL     1      -1.102  -1.329  -0.631  0.00  0.00    +0.144 HD
ATOM     32  H   UNL     1      -1.505  -2.955  -0.754  0.00  0.00    +0.144 HD
ENDBRANCH   2  30
TORSDOF 4
