REMARK  Name = ZINC40315690
REMARK  12 active torsions:
REMARK  status: ('A' for Active; 'I' for Inactive)
REMARK    1  A    between atoms: C_1  and  C_2
REMARK    2  A    between atoms: C_5  and  O_9
REMARK    3  A    between atoms: C_6  and  C_8
REMARK    4  A    between atoms: O_9  and  C_10
REMARK    5  A    between atoms: C_10  and  C_11
REMARK    6  A    between atoms: C_11  and  C_13
REMARK    7  A    between atoms: C_11  and  O_36
REMARK    8  A    between atoms: C_13  and  N_14
REMARK    9  A    between atoms: N_14  and  C_15
REMARK   10  A    between atoms: N_14  and  C_28
REMARK   11  A    between atoms: C_15  and  C_16
REMARK   12  A    between atoms: C_19  and  C_21
REMARK                            x       y       z     vdW  Elec       q    Type
REMARK                         _______ _______ _______ _____ _____    ______ ____
ROOT
ATOM      1  N   UNL     1       0.236  -8.593  -2.521  0.00  0.00    +0.389 N 
ATOM      2  H   UNL     1       1.072  -9.149  -2.430  0.00  0.00    -0.081 HD
ENDROOT
BRANCH   1   3
ATOM      3  C   UNL     1      -0.851  -9.212  -1.750  0.00  0.00    -0.045 C 
ATOM      4  C   UNL     1      -0.767 -10.743  -1.872  0.00  0.00    +0.009 C 
ATOM      5  C   UNL     1      -2.071 -11.386  -1.341  0.00  0.00    +0.164 C 
ATOM      6  S   UNL     1      -3.322 -10.074  -1.647  0.00  0.00    -0.033 S 
ATOM      7  O   UNL     1      -3.854  -9.643  -0.402  0.00  0.00    -0.174 OA
ATOM      8  O   UNL     1      -4.206 -10.508  -2.672  0.00  0.00    -0.174 OA
ATOM      9  C   UNL     1      -2.225  -8.756  -2.319  0.00  0.00    +0.151 C 
ENDBRANCH   1   3
BRANCH   1  10
ATOM     10  C   UNL     1       0.490  -7.240  -2.009  0.00  0.00    -0.043 C 
BRANCH  10  11
ATOM     11  C   UNL     1       1.046  -7.329  -0.586  0.00  0.00    +0.135 C 
BRANCH  11  12
ATOM     12  O   UNL     1       2.268  -8.069  -0.598  0.00  0.00    -0.390 OA
ATOM     13  H   UNL     1       2.959  -7.678  -1.151  0.00  0.00    +0.210 HD
ENDBRANCH  11  12
BRANCH  11  14
ATOM     14  C   UNL     1       1.308  -5.920  -0.052  0.00  0.00    +0.258 C 
BRANCH  14  15
ATOM     15  O   UNL     1       1.717  -5.997   1.315  0.00  0.00    -0.489 OA
BRANCH  15  20
ATOM     16  C   UNL     1       2.852  -1.136   3.924  0.00  0.00    +0.044 C 
ATOM     17  C   UNL     1       2.548  -2.437   3.226  0.00  0.00    -0.050 A 
ATOM     18  C   UNL     1       2.149  -2.433   1.902  0.00  0.00    +0.007 A 
ATOM     19  C   UNL     1       1.870  -3.623   1.260  0.00  0.00    +0.046 A 
ATOM     20  C   UNL     1       1.991  -4.824   1.945  0.00  0.00    +0.124 A 
ATOM     21  C   UNL     1       2.393  -4.825   3.272  0.00  0.00    -0.009 A 
ATOM     22  C   UNL     1       2.676  -3.632   3.909  0.00  0.00    +0.010 A 
ATOM     23  C   UNL     1       2.526  -6.128   4.019  0.00  0.00    +0.047 C 
ENDBRANCH  15  20
ENDBRANCH  14  15
ENDBRANCH  11  14
ENDBRANCH  10  11
ENDBRANCH   1  10
BRANCH   1  24
ATOM     24  C   UNL     1      -0.150  -8.516  -3.936  0.00  0.00    -0.003 C 
BRANCH  24  25
ATOM     25  C   UNL     1      -0.276  -9.909  -4.499  0.00  0.00    +0.089 A 
ATOM     26  C   UNL     1      -1.425 -10.501  -4.879  0.00  0.00    +0.043 A 
ATOM     27  C   UNL     1      -1.091 -11.790  -5.342  0.00  0.00    +0.050 A 
ATOM     28  C   UNL     1       0.257 -11.914  -5.217  0.00  0.00    +0.135 A 
ATOM     29  O   UNL     1       0.739 -10.763  -4.709  0.00  0.00    -0.462 OA
BRANCH  28  30
ATOM     30  C   UNL     1       1.056 -13.103  -5.580  0.00  0.00    +0.017 A 
ATOM     31  C   UNL     1       0.430 -14.233  -6.109  0.00  0.00    +0.014 A 
ATOM     32  C   UNL     1       1.181 -15.340  -6.446  0.00  0.00    +0.039 A 
ATOM     33  C   UNL     1       2.554 -15.332  -6.260  0.00  0.00    +0.123 A 
ATOM     34  C   UNL     1       3.181 -14.213  -5.734  0.00  0.00    +0.039 A 
ATOM     35  C   UNL     1       2.441 -13.098  -5.400  0.00  0.00    +0.014 A 
ATOM     36  F   UNL     1       3.284 -16.419  -6.591  0.00  0.00    -0.205 F 
ENDBRANCH  28  30
ENDBRANCH  24  25
ENDBRANCH   1  24
TORSDOF 10
