REMARK  Name = ZINC06228508
REMARK  5 active torsions:
REMARK  status: ('A' for Active; 'I' for Inactive)
REMARK    1  A    between atoms: C_1  and  N_2
REMARK    2  A    between atoms: N_2  and  C_3
REMARK    3  A    between atoms: C_3  and  N_5
REMARK    4  A    between atoms: N_5  and  N_6
REMARK    5  A    between atoms: C_17  and  N_20
REMARK                            x       y       z     vdW  Elec       q    Type
REMARK                         _______ _______ _______ _____ _____    ______ ____
ROOT
ATOM      1  N   UNL     1       2.948   4.924  -0.000  0.00  0.00    -0.180 NA
ATOM      2  C   UNL     1       2.554   3.677   0.014  0.00  0.00    +0.097 C 
ATOM      3  C   UNL     1       3.395   2.492   0.289  0.00  0.00    +0.010 A 
ATOM      4  C   UNL     1       4.747   2.352   0.593  0.00  0.00    +0.011 A 
ATOM      5  C   UNL     1       5.277   1.095   0.806  0.00  0.00    +0.001 A 
ATOM      6  C   UNL     1       4.471  -0.028   0.722  0.00  0.00    +0.001 A 
ATOM      7  C   UNL     1       3.130   0.093   0.423  0.00  0.00    +0.009 A 
ATOM      8  C   UNL     1       2.576   1.353   0.203  0.00  0.00    -0.008 A 
ATOM      9  C   UNL     1       1.200   1.783  -0.128  0.00  0.00    -0.008 A 
ATOM     10  C   UNL     1       1.183   3.185  -0.243  0.00  0.00    +0.012 A 
ATOM     11  C   UNL     1      -0.005   3.841  -0.551  0.00  0.00    +0.033 A 
ATOM     12  C   UNL     1      -1.168   3.109  -0.744  0.00  0.00    +0.025 A 
ATOM     13  C   UNL     1      -1.147   1.722  -0.637  0.00  0.00    +0.023 A 
ATOM     14  C   UNL     1       0.023   1.063  -0.326  0.00  0.00    +0.011 A 
ENDROOT
BRANCH  12  15
ATOM     15  N   UNL     1      -2.361   3.766  -1.054  0.00  0.00    -0.358 N 
ATOM     16  H   UNL     1      -2.375   4.732  -1.133  0.00  0.00    +0.142 HD
ATOM     17  H   UNL     1      -3.174   3.256  -1.188  0.00  0.00    +0.142 HD
ENDBRANCH  12  15
BRANCH   1  18
ATOM     18  N   UNL     1       4.312   5.229   0.094  0.00  0.00    -0.218 N 
ATOM     19  H   UNL     1       4.970   4.516   0.084  0.00  0.00    +0.176 HD
BRANCH  18  20
ATOM     20  C   UNL     1       4.710   6.513   0.199  0.00  0.00    +0.150 C 
ATOM     21  S   UNL     1       6.377   6.885   0.314  0.00  0.00    -0.017 S 
BRANCH  20  23
ATOM     22  C   UNL     1       4.229   8.898   0.326  0.00  0.00    +0.127 C 
ATOM     23  N   UNL     1       3.796   7.503   0.212  0.00  0.00    -0.328 N 
ATOM     24  H   UNL     1       2.852   7.292   0.147  0.00  0.00    +0.147 HD
ENDBRANCH  20  23
ENDBRANCH  18  20
ENDBRANCH   1  18
TORSDOF 4
