REMARK  Name = ZINC12755993
REMARK  10 active torsions:
REMARK  status: ('A' for Active; 'I' for Inactive)
REMARK    1  A    between atoms: C_1  and  C_2
REMARK    2  A    between atoms: C_3  and  C_25
REMARK    3  A    between atoms: C_8  and  C_10
REMARK    4  A    between atoms: C_10  and  S_11
REMARK    5  A    between atoms: S_11  and  C_12
REMARK    6  A    between atoms: N_16  and  C_17
REMARK    7  A    between atoms: C_20  and  O_23
REMARK    8  A    between atoms: O_23  and  C_24
REMARK    9  A    between atoms: C_28  and  O_31
REMARK   10  A    between atoms: O_31  and  C_32
REMARK                            x       y       z     vdW  Elec       q    Type
REMARK                         _______ _______ _______ _____ _____    ______ ____
ROOT
ATOM      1  C   UNL     1       4.222   4.542  -0.014  0.00  0.00    +0.054 C 
ATOM      2  C   UNL     1       3.234   3.404  -0.011  0.00  0.00    +0.016 A 
ATOM      3  C   UNL     1       3.456   2.055  -0.020  0.00  0.00    +0.083 A 
ATOM      4  N   UNL     1       2.423   1.226  -0.015  0.00  0.00    -0.224 NA
ATOM      5  C   UNL     1       1.183   1.677  -0.000  0.00  0.00    +0.165 A 
ATOM      6  S   UNL     1       1.446   3.445  -0.001  0.00  0.00    -0.057 S 
ATOM      7  N   UNL     1      -0.011   0.966   0.007  0.00  0.00    -0.264 N 
ATOM      8  C   UNL     1      -1.187   1.624   0.017  0.00  0.00    +0.229 C 
ATOM      9  O   UNL     1      -1.204   2.837   0.023  0.00  0.00    -0.275 OA
ATOM     10  H   UNL     1       0.002  -0.004   0.002  0.00  0.00    +0.157 HD
ENDROOT
BRANCH   3  11
ATOM     11  C   UNL     1       4.842   1.525  -0.035  0.00  0.00    +0.001 A 
ATOM     12  C   UNL     1       5.839   2.199  -0.738  0.00  0.00    +0.013 A 
ATOM     13  C   UNL     1       7.128   1.707  -0.745  0.00  0.00    +0.046 A 
ATOM     14  C   UNL     1       7.429   0.536  -0.064  0.00  0.00    +0.120 A 
ATOM     15  C   UNL     1       6.436  -0.141   0.631  0.00  0.00    +0.046 A 
ATOM     16  C   UNL     1       5.147   0.349   0.647  0.00  0.00    +0.013 A 
BRANCH  14  17
ATOM     17  O   UNL     1       8.698   0.050  -0.078  0.00  0.00    -0.495 OA
ATOM     18  C   UNL     1       9.670   0.797  -0.813  0.00  0.00    +0.277 C 
ENDBRANCH  14  17
ENDBRANCH   3  11
BRANCH   8  19
ATOM     19  C   UNL     1      -2.482   0.853   0.018  0.00  0.00    +0.173 C 
BRANCH  19  20
ATOM     20  S   UNL     1      -3.874   2.010   0.031  0.00  0.00    -0.076 S 
BRANCH  20  21
ATOM     21  C   UNL     1      -5.218   0.872   0.032  0.00  0.00    +0.196 A 
ATOM     22  N   UNL     1      -5.133  -0.439   0.018  0.00  0.00    -0.122 NA
ATOM     23  N   UNL     1      -6.310  -0.954   0.025  0.00  0.00    -0.137 NA
ATOM     24  C   UNL     1      -7.212  -0.014   0.035  0.00  0.00    +0.230 A 
ATOM     25  N   UNL     1      -6.550   1.185   0.040  0.00  0.00    -0.277 N 
BRANCH  25  26
ATOM     26  C   UNL     1      -7.119   2.468   0.050  0.00  0.00    +0.050 A 
ATOM     27  C   UNL     1      -6.694   3.409   0.977  0.00  0.00    +0.030 A 
ATOM     28  C   UNL     1      -7.251   4.672   0.984  0.00  0.00    +0.047 A 
ATOM     29  C   UNL     1      -8.242   4.998   0.070  0.00  0.00    +0.120 A 
ATOM     30  C   UNL     1      -8.671   4.057  -0.854  0.00  0.00    +0.047 A 
ATOM     31  C   UNL     1      -8.111   2.795  -0.865  0.00  0.00    +0.030 A 
BRANCH  29  32
ATOM     32  O   UNL     1      -8.794   6.241   0.080  0.00  0.00    -0.495 OA
ATOM     33  C   UNL     1      -8.305   7.160   1.059  0.00  0.00    +0.277 C 
ENDBRANCH  29  32
ENDBRANCH  25  26
ENDBRANCH  20  21
ENDBRANCH  19  20
ENDBRANCH   8  19
TORSDOF 7
