REMARK  Name = ZINC36557997
REMARK  5 active torsions:
REMARK  status: ('A' for Active; 'I' for Inactive)
REMARK    1  A    between atoms: C_1  and  N_2
REMARK    2  A    between atoms: N_2  and  C_3
REMARK    3  A    between atoms: N_2  and  S_9
REMARK    4  A    between atoms: S_9  and  C_12
REMARK    5  A    between atoms: C_25  and  C_28
REMARK                            x       y       z     vdW  Elec       q    Type
REMARK                         _______ _______ _______ _____ _____    ______ ____
ROOT
ATOM      1  C   UNL     1       1.682  -1.059  -1.905  0.00  0.00    +0.106 A 
ATOM      2  C   UNL     1       2.324  -0.109  -2.677  0.00  0.00    +0.030 A 
ATOM      3  C   UNL     1       3.639  -0.293  -3.052  0.00  0.00    +0.025 A 
ATOM      4  C   UNL     1       4.329  -1.432  -2.654  0.00  0.00    +0.031 A 
ATOM      5  C   UNL     1       3.676  -2.384  -1.863  0.00  0.00    -0.018 A 
ATOM      6  C   UNL     1       2.362  -2.192  -1.496  0.00  0.00    +0.034 A 
ATOM      7  C   UNL     1       4.458  -3.562  -1.428  0.00  0.00    +0.049 C 
ATOM      8  C   UNL     1       3.811  -4.864  -1.122  0.00  0.00    -0.023 C 
ATOM      9  C   UNL     1       4.659  -5.840  -1.422  0.00  0.00    -0.030 C 
ATOM     10  C   UNL     1       5.951  -5.253  -1.994  0.00  0.00    +0.033 C 
ATOM     11  C   UNL     1       5.438  -3.936  -2.581  0.00  0.00    +0.029 C 
ATOM     12  C   UNL     1       6.436  -2.794  -2.650  0.00  0.00    +0.107 C 
ATOM     13  N   UNL     1       5.656  -1.607  -3.065  0.00  0.00    -0.336 N 
ATOM     14  H   UNL     1       6.072  -0.939  -3.631  0.00  0.00    +0.147 HD
ENDROOT
BRANCH  12  15
ATOM     15  C   UNL     1       7.059  -2.565  -1.297  0.00  0.00    -0.002 A 
ATOM     16  C   UNL     1       6.656  -1.679  -0.372  0.00  0.00    +0.089 A 
ATOM     17  N   UNL     1       7.463  -1.756   0.730  0.00  0.00    -0.360 N 
ATOM     18  H   UNL     1       7.369  -1.213   1.528  0.00  0.00    +0.165 HD
ATOM     19  C   UNL     1       8.430  -2.716   0.536  0.00  0.00    +0.047 A 
ATOM     20  C   UNL     1       8.216  -3.270  -0.740  0.00  0.00    +0.005 A 
ATOM     21  C   UNL     1       9.052  -4.284  -1.209  0.00  0.00    +0.010 A 
ATOM     22  C   UNL     1      10.074  -4.738  -0.423  0.00  0.00    +0.001 A 
ATOM     23  C   UNL     1      10.288  -4.198   0.837  0.00  0.00    +0.002 A 
ATOM     24  C   UNL     1       9.480  -3.190   1.316  0.00  0.00    +0.026 A 
ENDBRANCH  12  15
BRANCH   1  25
ATOM     25  S   UNL     1      -0.000  -0.824  -1.437  0.00  0.00    +0.061 S 
ATOM     26  O   UNL     1      -0.531  -2.115  -1.167  0.00  0.00    -0.153 OA
ATOM     27  O   UNL     1      -0.572   0.049  -2.401  0.00  0.00    -0.153 OA
BRANCH  25  29
ATOM     28  C   UNL     1      -0.018   1.461   0.010  0.00  0.00    +0.132 C 
ATOM     29  N   UNL     1       0.002  -0.004   0.002  0.00  0.00    -0.177 NA
BRANCH  29  30
ATOM     30  C   UNL     1       0.024  -0.743   1.267  0.00  0.00    +0.080 C 
ATOM     31  C   UNL     1      -1.222  -0.395   2.083  0.00  0.00    +0.020 C 
ATOM     32  C   UNL     1      -1.199  -1.167   3.404  0.00  0.00    +0.002 C 
ATOM     33  C   UNL     1       0.052  -0.785   4.196  0.00  0.00    +0.000 C 
ATOM     34  C   UNL     1       1.299  -1.133   3.380  0.00  0.00    +0.002 C 
ATOM     35  C   UNL     1       1.276  -0.361   2.059  0.00  0.00    +0.020 C 
ENDBRANCH  29  30
ENDBRANCH  25  29
ENDBRANCH   1  25
TORSDOF 4
