REMARK  Name = ZINC08462810
REMARK  14 active torsions:
REMARK  status: ('A' for Active; 'I' for Inactive)
REMARK    1  A    between atoms: C_1  and  C_2
REMARK    2  A    between atoms: C_2  and  N_66
REMARK    3  A    between atoms: C_3  and  C_4
REMARK    4  A    between atoms: C_3  and  N_66
REMARK    5  A    between atoms: C_5  and  C_6
REMARK    6  A    between atoms: C_5  and  N_66
REMARK    7  A    between atoms: C_6  and  N_7
REMARK    8  A    between atoms: C_8  and  C_24
REMARK    9  A    between atoms: C_11  and  C_12
REMARK   10  A    between atoms: C_11  and  O_19
REMARK   11  A    between atoms: C_27  and  C_30
REMARK   12  A    between atoms: C_30  and  C_31
REMARK   13  A    between atoms: C_30  and  C_32
REMARK   14  A    between atoms: C_30  and  C_33
REMARK                            x       y       z     vdW  Elec       q    Type
REMARK                         _______ _______ _______ _____ _____    ______ ____
ROOT
ATOM      1  N   UNL     1      -2.395   3.698   1.607  0.00  0.00    -0.285 N 
ATOM      2  C   UNL     1      -2.158   5.083   2.025  0.00  0.00    +0.144 C 
ATOM      3  C   UNL     1      -0.768   5.445   1.556  0.00  0.00    +0.071 C 
ATOM      4  C   UNL     1      -0.124   6.654   1.725  0.00  0.00    +0.133 C 
ATOM      5  C   UNL     1      -0.263   4.303   0.914  0.00  0.00    +0.249 C 
ATOM      6  O   UNL     1       0.836   4.200   0.400  0.00  0.00    -0.282 OA
ATOM      7  C   UNL     1      -1.303   3.240   0.972  0.00  0.00    +0.288 C 
ATOM      8  O   UNL     1      -1.185   2.125   0.507  0.00  0.00    -0.266 OA
ENDROOT
BRANCH   4   9
ATOM      9  C   UNL     1      -0.837   7.788   2.337  0.00  0.00    +0.017 A 
ATOM     10  C   UNL     1      -2.114   8.141   1.887  0.00  0.00    +0.013 A 
ATOM     11  C   UNL     1      -2.777   9.200   2.469  0.00  0.00    +0.021 A 
ATOM     12  C   UNL     1      -2.178   9.921   3.489  0.00  0.00    +0.041 A 
ATOM     13  C   UNL     1      -0.911   9.582   3.935  0.00  0.00    +0.021 A 
ATOM     14  C   UNL     1      -0.238   8.522   3.367  0.00  0.00    +0.013 A 
ATOM     15 CL   UNL     1      -3.018  11.258   4.210  0.00  0.00    -0.084 Cl
ENDBRANCH   4   9
BRANCH   2  16
ATOM     16  C   UNL     1      -2.243   5.198   3.525  0.00  0.00    -0.022 A 
ATOM     17  C   UNL     1      -1.571   4.295   4.327  0.00  0.00    +0.006 A 
ATOM     18  C   UNL     1      -1.645   4.403   5.703  0.00  0.00    +0.004 A 
ATOM     19  C   UNL     1      -2.401   5.408   6.277  0.00  0.00    -0.042 A 
ATOM     20  C   UNL     1      -3.078   6.308   5.475  0.00  0.00    +0.004 A 
ATOM     21  C   UNL     1      -2.999   6.203   4.099  0.00  0.00    +0.006 A 
BRANCH  19  22
ATOM     22  C   UNL     1      -2.486   5.522   7.777  0.00  0.00    -0.013 C 
ATOM     23  C   UNL     1      -3.946   5.384   8.216  0.00  0.00    +0.015 C 
ATOM     24  C   UNL     1      -1.652   4.414   8.422  0.00  0.00    +0.015 C 
ATOM     25  C   UNL     1      -1.949   6.886   8.216  0.00  0.00    +0.015 C 
ENDBRANCH  19  22
ENDBRANCH   2  16
BRANCH   4  26
ATOM     26  O   UNL     1       1.158   6.797   1.329  0.00  0.00    -0.506 OA
ATOM     27  H   UNL     1       1.465   7.729   1.524  0.00  0.00    +0.292 HD
ENDBRANCH   4  26
BRANCH   1  28
ATOM     28  C   UNL     1      -3.622   2.934   1.848  0.00  0.00    +0.090 C 
BRANCH  28  29
ATOM     29  C   UNL     1      -3.513   2.203   3.188  0.00  0.00    -0.060 C 
BRANCH  29  30
ATOM     30  N   UNL     1      -4.766   1.456   3.426  0.00  0.00    +0.380 N 
ATOM     31  H   UNL     1      -5.562   2.094   3.310  0.00  0.00    -0.082 HD
BRANCH  30  33
ATOM     32  C   UNL     1      -3.723  -0.627   2.596  0.00  0.00    -0.017 C 
ATOM     33  C   UNL     1      -4.889   0.353   2.449  0.00  0.00    -0.082 C 
ENDBRANCH  30  33
BRANCH  30  34
ATOM     34  C   UNL     1      -4.778   0.916   4.801  0.00  0.00    -0.082 C 
ATOM     35  C   UNL     1      -6.182   0.393   5.113  0.00  0.00    -0.017 C 
ENDBRANCH  30  34
ENDBRANCH  29  30
ENDBRANCH  28  29
ENDBRANCH   1  28
TORSDOF 9
