REMARK  Name = ZINC36031443
REMARK  15 active torsions:
REMARK  status: ('A' for Active; 'I' for Inactive)
REMARK    1  A    between atoms: C_1  and  C_2
REMARK    2  A    between atoms: C_2  and  C_3
REMARK    3  A    between atoms: C_2  and  C_4
REMARK    4  A    between atoms: C_4  and  N_5
REMARK    5  A    between atoms: C_6  and  C_21
REMARK    6  A    between atoms: C_9  and  S_10
REMARK    7  A    between atoms: S_10  and  C_13
REMARK    8  A    between atoms: C_13  and  C_14
REMARK    9  A    between atoms: C_21  and  N_22
REMARK   10  A    between atoms: N_22  and  C_23
REMARK   11  A    between atoms: C_23  and  C_24
REMARK   12  A    between atoms: N_29  and  C_30
REMARK   13  A    between atoms: C_30  and  C_31
REMARK   14  A    between atoms: C_30  and  C_32
REMARK   15  A    between atoms: C_30  and  C_33
REMARK                            x       y       z     vdW  Elec       q    Type
REMARK                         _______ _______ _______ _____ _____    ______ ____
ROOT
ATOM      1  N   UNL     1      -1.710  -1.768  -0.729  0.00  0.00    -0.311 N 
ATOM      2  C   UNL     1      -1.406  -2.321  -1.944  0.00  0.00    +0.057 A 
ATOM      3  C   UNL     1      -1.603  -3.648  -1.829  0.00  0.00    +0.137 A 
ATOM      4  N   UNL     1      -2.017  -3.899  -0.578  0.00  0.00    -0.220 NA
ATOM      5  C   UNL     1      -2.078  -2.779   0.088  0.00  0.00    +0.252 A 
ENDROOT
BRANCH   5   6
ATOM      6  S   UNL     1      -2.566  -2.611   1.773  0.00  0.00    +0.034 S 
ATOM      7  O   UNL     1      -2.094  -3.792   2.406  0.00  0.00    -0.166 OA
ATOM      8  O   UNL     1      -2.079  -1.335   2.166  0.00  0.00    -0.166 OA
BRANCH   6   9
ATOM      9  C   UNL     1      -4.379  -2.603   1.736  0.00  0.00    +0.210 C 
BRANCH   9  10
ATOM     10  C   UNL     1      -4.910  -2.463   3.139  0.00  0.00    -0.025 A 
ATOM     11  C   UNL     1      -5.156  -3.590   3.901  0.00  0.00    +0.005 A 
ATOM     12  C   UNL     1      -5.643  -3.462   5.188  0.00  0.00    +0.002 A 
ATOM     13  C   UNL     1      -5.885  -2.207   5.714  0.00  0.00    +0.020 A 
ATOM     14  C   UNL     1      -5.639  -1.079   4.952  0.00  0.00    +0.041 A 
ATOM     15  C   UNL     1      -5.146  -1.207   3.666  0.00  0.00    +0.025 A 
ATOM     16 CL   UNL     1      -5.944   0.498   5.612  0.00  0.00    -0.084 Cl
ENDBRANCH   9  10
ENDBRANCH   6   9
ENDBRANCH   5   6
BRANCH   1  17
ATOM     17  C   UNL     1      -1.643  -0.347  -0.379  0.00  0.00    +0.128 C 
BRANCH  17  19
ATOM     18  C   UNL     1      -0.110   1.528   0.235  0.00  0.00    +0.009 C 
ATOM     19  C   UNL     1      -0.201   0.022  -0.023  0.00  0.00    +0.003 C 
ATOM     20  C   UNL     1       0.225  -0.738   1.234  0.00  0.00    +0.009 C 
ENDBRANCH  17  19
ENDBRANCH   1  17
BRANCH   2  21
ATOM     21  C   UNL     1      -0.940  -1.585  -3.174  0.00  0.00    +0.164 C 
BRANCH  21  22
ATOM     22  N   UNL     1      -2.102  -1.108  -3.927  0.00  0.00    -0.280 N 
ATOM     23  C   UNL     1      -2.734  -1.932  -4.785  0.00  0.00    +0.303 C 
ATOM     24  O   UNL     1      -2.340  -3.073  -4.934  0.00  0.00    -0.253 OA
ATOM     25  N   UNL     1      -3.803  -1.493  -5.478  0.00  0.00    -0.294 N 
ATOM     26  H   UNL     1      -4.118  -0.583  -5.359  0.00  0.00    +0.151 HD
BRANCH  25  27
ATOM     27  C   UNL     1      -4.490  -2.389  -6.411  0.00  0.00    +0.028 C 
ATOM     28  C   UNL     1      -5.017  -3.609  -5.652  0.00  0.00    +0.031 C 
ATOM     29  C   UNL     1      -5.660  -1.649  -7.062  0.00  0.00    +0.031 C 
ATOM     30  C   UNL     1      -3.511  -2.847  -7.494  0.00  0.00    +0.031 C 
ENDBRANCH  25  27
BRANCH  22  31
ATOM     31  C   UNL     1      -2.577   0.267  -3.747  0.00  0.00    +0.113 C 
BRANCH  31  32
ATOM     32  C   UNL     1      -1.985   1.158  -4.840  0.00  0.00    +0.006 C 
ATOM     33  C   UNL     1      -1.045   2.283  -4.403  0.00  0.00    +0.005 C 
ATOM     34  C   UNL     1      -2.455   2.613  -4.897  0.00  0.00    +0.005 C 
ENDBRANCH  31  32
ENDBRANCH  22  31
ENDBRANCH  21  22
ENDBRANCH   2  21
TORSDOF 10
