REMARK  Name = ZINC43264944
REMARK  6 active torsions:
REMARK  status: ('A' for Active; 'I' for Inactive)
REMARK    1  A    between atoms: C_3  and  O_10
REMARK    2  A    between atoms: C_6  and  C_7
REMARK    3  A    between atoms: O_10  and  C_11
REMARK    4  A    between atoms: C_11  and  C_13
REMARK    5  A    between atoms: C_11  and  C_15
REMARK    6  A    between atoms: C_13  and  N_14
REMARK                            x       y       z     vdW  Elec       q    Type
REMARK                         _______ _______ _______ _____ _____    ______ ____
ROOT
ATOM      1  O   UNL     1       3.545   2.114  -0.021  0.00  0.00    -0.486 OA
ENDROOT
BRANCH   1   4
ATOM      2  C   UNL     1      -0.004   1.379  -0.284  0.00  0.00    +0.016 A 
ATOM      3  C   UNL     1       1.171   2.085  -0.160  0.00  0.00    +0.046 A 
ATOM      4  C   UNL     1       2.389   1.414  -0.143  0.00  0.00    +0.121 A 
ATOM      5  C   UNL     1       2.425   0.029  -0.253  0.00  0.00    +0.046 A 
ATOM      6  C   UNL     1       1.253  -0.684  -0.378  0.00  0.00    +0.016 A 
ATOM      7  C   UNL     1       0.028  -0.013  -0.395  0.00  0.00    +0.037 A 
BRANCH   7   8
ATOM      8  C   UNL     1      -1.230  -0.774  -0.528  0.00  0.00    +0.242 C 
ATOM      9  O   UNL     1      -2.296  -0.189  -0.542  0.00  0.00    -0.270 OA
ATOM     10  N   UNL     1      -1.198  -2.117  -0.635  0.00  0.00    -0.325 N 
ATOM     11  H   UNL     1      -0.347  -2.584  -0.624  0.00  0.00    +0.145 HD
ATOM     12  H   UNL     1      -2.024  -2.617  -0.722  0.00  0.00    +0.145 HD
ENDBRANCH   7   8
ENDBRANCH   1   4
BRANCH   1  13
ATOM     13  C   UNL     1       4.754   1.357   0.074  0.00  0.00    +0.193 C 
BRANCH  13  14
ATOM     14  C   UNL     1       5.885   2.138  -0.543  0.00  0.00    +0.029 A 
ATOM     15  C   UNL     1       6.901   1.696  -1.323  0.00  0.00    +0.016 A 
ATOM     16  C   UNL     1       7.838   2.603  -1.782  0.00  0.00    +0.023 A 
ATOM     17  C   UNL     1       7.712   3.909  -1.438  0.00  0.00    +0.055 A 
ATOM     18  S   UNL     1       6.230   3.887  -0.442  0.00  0.00    -0.083 S 
ATOM     19 BR   UNL     1       8.814   5.374  -1.900  0.00  0.00    -0.043 Br
ENDBRANCH  13  14
BRANCH  13  20
ATOM     20  C   UNL     1       5.068   1.081   1.546  0.00  0.00    -0.036 C 
BRANCH  20  21
ATOM     21  N   UNL     1       4.024   0.219   2.116  0.00  0.00    +0.381 N 
ATOM     22  H   UNL     1       3.994  -0.653   1.610  0.00  0.00    -0.090 HD
ATOM     23  H   UNL     1       4.231   0.037   3.087  0.00  0.00    -0.090 HD
ATOM     24  H   UNL     1       3.130   0.681   2.044  0.00  0.00    -0.090 HD
ENDBRANCH  20  21
ENDBRANCH  13  20
ENDBRANCH   1  13
TORSDOF 6
