REMARK  Name = ZINC02542701
REMARK  9 active torsions:
REMARK  status: ('A' for Active; 'I' for Inactive)
REMARK    1  A    between atoms: C_1  and  C_2
REMARK    2  A    between atoms: C_6  and  N_8
REMARK    3  A    between atoms: N_8  and  C_9
REMARK    4  A    between atoms: C_9  and  N_11
REMARK    5  A    between atoms: N_11  and  N_12
REMARK    6  A    between atoms: C_13  and  C_14
REMARK    7  A    between atoms: C_18  and  O_20
REMARK    8  A    between atoms: O_20  and  C_21
REMARK    9  A    between atoms: C_21  and  C_23
REMARK                            x       y       z     vdW  Elec       q    Type
REMARK                         _______ _______ _______ _____ _____    ______ ____
ROOT
ATOM      1  C   UNL     1      -1.474   9.960   0.417  0.00  0.00    -0.002 A 
ATOM      2  C   UNL     1      -2.668   9.251   0.266  0.00  0.00    +0.010 A 
ATOM      3  C   UNL     1      -3.871   9.926   0.238  0.00  0.00    +0.004 A 
ATOM      4  C   UNL     1      -3.898  11.304   0.350  0.00  0.00    +0.046 A 
ATOM      5  C   UNL     1      -2.717  12.018   0.495  0.00  0.00    +0.133 A 
ATOM      6  C   UNL     1      -1.504  11.351   0.529  0.00  0.00    +0.055 A 
ENDROOT
BRANCH   1   8
ATOM      7  N   UNL     1      -0.161   7.949   0.347  0.00  0.00    -0.188 NA
ATOM      8  C   UNL     1      -0.186   9.242   0.452  0.00  0.00    +0.138 C 
BRANCH   7   9
ATOM      9  N   UNL     1       1.063   7.267   0.380  0.00  0.00    -0.218 N 
ATOM     10  H   UNL     1       1.891   7.761   0.481  0.00  0.00    +0.176 HD
BRANCH   9  11
ATOM     11  C   UNL     1       1.089   5.924   0.271  0.00  0.00    +0.154 C 
ATOM     12  S   UNL     1       2.583   5.090   0.311  0.00  0.00    -0.017 S 
BRANCH  11  13
ATOM     13  N   UNL     1      -0.062   5.237   0.131  0.00  0.00    -0.296 N 
ATOM     14  H   UNL     1      -0.901   5.712   0.025  0.00  0.00    +0.154 HD
BRANCH  13  20
ATOM     15  C   UNL     1      -1.678   0.977  -1.717  0.00  0.00    +0.044 C 
ATOM     16  C   UNL     1      -0.821   1.748  -0.746  0.00  0.00    -0.049 A 
ATOM     17  C   UNL     1      -0.018   1.071   0.155  0.00  0.00    +0.003 A 
ATOM     18  C   UNL     1       0.773   1.775   1.044  0.00  0.00    +0.002 A 
ATOM     19  C   UNL     1       0.761   3.156   1.038  0.00  0.00    +0.023 A 
ATOM     20  C   UNL     1      -0.047   3.838   0.139  0.00  0.00    +0.033 A 
ATOM     21  C   UNL     1      -0.842   3.128  -0.753  0.00  0.00    +0.026 A 
ENDBRANCH  13  20
ENDBRANCH  11  13
ENDBRANCH   9  11
ENDBRANCH   7   9
ENDBRANCH   1   8
BRANCH   5  22
ATOM     22  O   UNL     1      -2.751  13.372   0.605  0.00  0.00    -0.422 OA
BRANCH  22  23
ATOM     23  C   UNL     1      -2.415  14.082  -0.490  0.00  0.00    +0.346 C 
ATOM     24  O   UNL     1      -2.016  13.512  -1.486  0.00  0.00    -0.244 OA
BRANCH  23  25
ATOM     25  C   UNL     1      -2.533  15.553  -0.480  0.00  0.00    +0.078 A 
ATOM     26  C   UNL     1      -2.992  16.213   0.663  0.00  0.00    +0.018 A 
ATOM     27  C   UNL     1      -3.099  17.587   0.667  0.00  0.00    +0.021 A 
ATOM     28  C   UNL     1      -2.754  18.315  -0.460  0.00  0.00    +0.042 A 
ATOM     29  C   UNL     1      -2.298  17.670  -1.597  0.00  0.00    +0.040 A 
ATOM     30  C   UNL     1      -2.181  16.294  -1.612  0.00  0.00    +0.056 A 
ATOM     31 CL   UNL     1      -1.603  15.486  -3.036  0.00  0.00    -0.083 Cl
ATOM     32 CL   UNL     1      -2.893  20.046  -0.447  0.00  0.00    -0.083 Cl
ENDBRANCH  23  25
ENDBRANCH  22  23
ENDBRANCH   5  22
TORSDOF 8
