REMARK  Name = ZINC62825395
REMARK  6 active torsions:
REMARK  status: ('A' for Active; 'I' for Inactive)
REMARK    1  A    between atoms: C_1  and  C_2
REMARK    2  A    between atoms: C_2  and  C_3
REMARK    3  A    between atoms: C_2  and  C_6
REMARK    4  A    between atoms: C_2  and  N_20
REMARK    5  A    between atoms: N_8  and  C_9
REMARK    6  A    between atoms: C_10  and  C_17
REMARK                            x       y       z     vdW  Elec       q    Type
REMARK                         _______ _______ _______ _____ _____    ______ ____
ROOT
ATOM      1  C   UNL     1       0.622   0.104  -1.453  0.00  0.00    +0.206 C 
ATOM      2  O   UNL     1       1.791   0.402  -1.579  0.00  0.00    -0.277 OA
ATOM      3  N   UNL     1       0.014  -0.646  -2.393  0.00  0.00    -0.285 N 
ATOM      4  H   UNL     1      -0.896  -0.952  -2.255  0.00  0.00    +0.155 HD
ENDROOT
BRANCH   3   5
ATOM      5  C   UNL     1       0.691  -0.982  -3.562  0.00  0.00    +0.062 A 
ATOM      6  C   UNL     1       0.120  -0.703  -4.814  0.00  0.00    +0.086 A 
ATOM      7  C   UNL     1       0.812  -1.046  -5.980  0.00  0.00    +0.032 A 
ATOM      8  C   UNL     1       2.046  -1.653  -5.894  0.00  0.00    +0.020 A 
ATOM      9  C   UNL     1       2.607  -1.927  -4.656  0.00  0.00    +0.032 A 
ATOM     10  C   UNL     1       1.939  -1.590  -3.495  0.00  0.00    +0.041 A 
ATOM     11 BR   UNL     1       2.719  -1.963  -1.814  0.00  0.00    -0.048 Br
ATOM     12 BR   UNL     1       2.979  -2.116  -7.473  0.00  0.00    -0.050 Br
BRANCH   6  13
ATOM     13  C   UNL     1      -1.198  -0.055  -4.898  0.00  0.00    +0.388 C 
ATOM     14  O   UNL     1      -1.739   0.093  -5.986  0.00  0.00    -0.241 OA
ATOM     15  O   UNL     1      -1.754   0.336  -3.881  0.00  0.00    -0.241 OA
ENDBRANCH   6  13
ENDBRANCH   3   5
BRANCH   1  17
ATOM     16  C   UNL     1      -0.893   1.865  -0.587  0.00  0.00    -0.001 C 
ATOM     17  C   UNL     1      -0.149   0.572  -0.246  0.00  0.00    +0.007 C 
BRANCH  17  18
ATOM     18  N   UNL     1      -1.117  -0.461   0.147  0.00  0.00    +0.388 N 
ATOM     19  H   UNL     1      -1.756  -0.631  -0.615  0.00  0.00    -0.089 HD
ATOM     20  H   UNL     1      -0.626  -1.314   0.371  0.00  0.00    -0.089 HD
ATOM     21  H   UNL     1      -1.634  -0.148   0.955  0.00  0.00    -0.089 HD
ENDBRANCH  17  18
BRANCH  17  22
ATOM     22  C   UNL     1       0.819   0.830   0.910  0.00  0.00    -0.014 C 
ATOM     23  C   UNL     1       0.753  -0.116   2.111  0.00  0.00    +0.003 C 
ATOM     24  C   UNL     1       0.225   1.315   2.234  0.00  0.00    +0.003 C 
ENDBRANCH  17  22
ENDBRANCH   1  17
TORSDOF 5
