REMARK  Name = ZINC36788211
REMARK  8 active torsions:
REMARK  status: ('A' for Active; 'I' for Inactive)
REMARK    1  A    between atoms: C_7  and  C_11
REMARK    2  A    between atoms: C_14  and  S_23
REMARK    3  A    between atoms: N_15  and  C_16
REMARK    4  A    between atoms: C_16  and  C_17
REMARK    5  A    between atoms: S_23  and  C_24
REMARK    6  A    between atoms: C_24  and  C_25
REMARK    7  A    between atoms: N_27  and  C_28
REMARK    8  A    between atoms: C_29  and  C_33
REMARK                            x       y       z     vdW  Elec       q    Type
REMARK                         _______ _______ _______ _____ _____    ______ ____
ROOT
ATOM      1  C   UNL     1       0.684  -3.260  -0.024  0.00  0.00    +0.167 A 
ATOM      2  N   UNL     1      -0.625  -3.220   0.077  0.00  0.00    -0.128 NA
ATOM      3  N   UNL     1      -1.105  -4.412   0.049  0.00  0.00    -0.122 NA
ATOM      4  C   UNL     1      -0.134  -5.287  -0.071  0.00  0.00    +0.192 A 
ATOM      5  N   UNL     1       1.039  -4.585  -0.128  0.00  0.00    -0.300 N 
ENDROOT
BRANCH   1  12
ATOM      6  C   UNL     1       1.037   0.545   2.671  0.00  0.00    +0.001 A 
ATOM      7  C   UNL     1       2.075   1.380   2.282  0.00  0.00    +0.002 A 
ATOM      8  C   UNL     1       2.872   1.056   1.206  0.00  0.00    +0.026 A 
ATOM      9  C   UNL     1       2.636  -0.121   0.501  0.00  0.00    +0.047 A 
ATOM     10  C   UNL     1       1.585  -0.962   0.901  0.00  0.00    +0.010 A 
ATOM     11  C   UNL     1       0.790  -0.616   1.992  0.00  0.00    +0.011 A 
ATOM     12  C   UNL     1       1.600  -2.103  -0.032  0.00  0.00    +0.044 A 
ATOM     13  C   UNL     1       2.622  -1.882  -0.899  0.00  0.00    +0.095 A 
ATOM     14  N   UNL     1       3.243  -0.707  -0.589  0.00  0.00    -0.360 N 
ATOM     15  H   UNL     1       4.001  -0.337  -1.067  0.00  0.00    +0.165 HD
ENDBRANCH   1  12
BRANCH   5  16
ATOM     16  C   UNL     1       2.391  -5.131  -0.268  0.00  0.00    +0.157 C 
BRANCH  16  17
ATOM     17  C   UNL     1       2.928  -5.523   1.111  0.00  0.00    +0.138 C 
ATOM     18  C   UNL     1       4.322  -6.187   0.977  0.00  0.00    +0.035 C 
ATOM     19  C   UNL     1       4.920  -5.901   2.381  0.00  0.00    +0.031 C 
ATOM     20  C   UNL     1       4.316  -4.522   2.721  0.00  0.00    +0.160 C 
ATOM     21  O   UNL     1       3.144  -4.351   1.913  0.00  0.00    -0.375 OA
ENDBRANCH  16  17
ENDBRANCH   5  16
BRANCH   4  22
ATOM     22  S   UNL     1      -0.310  -7.038  -0.151  0.00  0.00    -0.077 S 
BRANCH  22  23
ATOM     23  C   UNL     1      -2.100  -7.306  -0.031  0.00  0.00    +0.173 C 
BRANCH  23  24
ATOM     24  C   UNL     1      -2.392  -8.783  -0.088  0.00  0.00    +0.228 C 
ATOM     25  O   UNL     1      -1.482  -9.577  -0.199  0.00  0.00    -0.275 OA
ATOM     26  N   UNL     1      -3.665  -9.222  -0.016  0.00  0.00    -0.279 N 
ATOM     27  H   UNL     1      -4.392  -8.586   0.073  0.00  0.00    +0.155 HD
BRANCH  26  28
ATOM     28  C   UNL     1      -3.933 -10.581  -0.068  0.00  0.00    +0.084 A 
ATOM     29  C   UNL     1      -5.169 -11.208  -0.015  0.00  0.00    +0.065 A 
ATOM     30  C   UNL     1      -5.165 -12.652  -0.090  0.00  0.00    +0.022 A 
ATOM     31  C   UNL     1      -3.955 -13.229  -0.205  0.00  0.00    +0.048 A 
ATOM     32  S   UNL     1      -2.839 -11.844  -0.218  0.00  0.00    -0.081 S 
BRANCH  29  33
ATOM     33  C   UNL     1      -6.416 -10.447   0.113  0.00  0.00    +0.244 C 
ATOM     34  O   UNL     1      -6.383  -9.232   0.175  0.00  0.00    -0.270 OA
ATOM     35  N   UNL     1      -7.598 -11.092   0.162  0.00  0.00    -0.325 N 
ATOM     36  H   UNL     1      -7.624 -12.061   0.113  0.00  0.00    +0.145 HD
ATOM     37  H   UNL     1      -8.422 -10.588   0.247  0.00  0.00    +0.145 HD
ENDBRANCH  29  33
ENDBRANCH  26  28
ENDBRANCH  23  24
ENDBRANCH  22  23
ENDBRANCH   4  22
TORSDOF 8
