REMARK  Name = ZINC33936801
REMARK  10 active torsions:
REMARK  status: ('A' for Active; 'I' for Inactive)
REMARK    1  A    between atoms: C_1  and  C_2
REMARK    2  A    between atoms: C_9  and  C_14
REMARK    3  A    between atoms: C_14  and  C_16
REMARK    4  A    between atoms: C_14  and  N_28
REMARK    5  A    between atoms: N_20  and  C_21
REMARK    6  A    between atoms: C_21  and  C_22
REMARK    7  A    between atoms: N_28  and  C_29
REMARK    8  A    between atoms: N_28  and  C_36
REMARK    9  A    between atoms: C_29  and  C_30
REMARK   10  A    between atoms: C_36  and  C_37
REMARK                            x       y       z     vdW  Elec       q    Type
REMARK                         _______ _______ _______ _____ _____    ______ ____
ROOT
ATOM      1  C   UNL     1       0.665  -6.455   3.296  0.00  0.00    +0.163 C 
ENDROOT
BRANCH   1  10
ATOM      2  C   UNL     1       1.668  -4.183  -3.736  0.00  0.00    +0.044 C 
ATOM      3  C   UNL     1       1.529  -5.286  -2.719  0.00  0.00    -0.050 A 
ATOM      4  C   UNL     1       1.600  -6.611  -3.126  0.00  0.00    +0.005 A 
ATOM      5  C   UNL     1       1.475  -7.636  -2.213  0.00  0.00    +0.026 A 
ATOM      6  C   UNL     1       1.278  -7.341  -0.868  0.00  0.00    +0.049 A 
ATOM      7  C   UNL     1       1.207  -5.996  -0.458  0.00  0.00    -0.001 A 
ATOM      8  C   UNL     1       1.341  -4.973  -1.403  0.00  0.00    +0.013 A 
ATOM      9  C   UNL     1       0.999  -5.696   0.959  0.00  0.00    +0.021 A 
ATOM     10  C   UNL     1       0.881  -6.729   1.830  0.00  0.00    +0.042 A 
ATOM     11  C   UNL     1       0.959  -8.060   1.367  0.00  0.00    +0.254 A 
ATOM     12  O   UNL     1       0.850  -8.974   2.167  0.00  0.00    -0.268 OA
ATOM     13  N   UNL     1       1.150  -8.346   0.068  0.00  0.00    -0.322 N 
ATOM     14  H   UNL     1       1.199  -9.272  -0.216  0.00  0.00    +0.169 HD
ENDBRANCH   1  10
BRANCH   1  15
ATOM     15  C   UNL     1      -0.681  -6.986   3.714  0.00  0.00    +0.173 A 
ATOM     16  N   UNL     1      -1.087  -8.231   3.645  0.00  0.00    -0.111 NA
ATOM     17  N   UNL     1      -2.293  -8.281   4.096  0.00  0.00    -0.023 NA
ATOM     18  N   UNL     1      -2.667  -7.101   4.451  0.00  0.00    -0.044 NA
ATOM     19  N   UNL     1      -1.699  -6.276   4.235  0.00  0.00    -0.225 N 
BRANCH  19  20
ATOM     20  C   UNL     1      -1.707  -4.836   4.504  0.00  0.00    +0.179 C 
BRANCH  20  21
ATOM     21  C   UNL     1      -2.219  -4.090   3.271  0.00  0.00    +0.140 C 
ATOM     22  C   UNL     1      -2.322  -2.572   3.565  0.00  0.00    +0.035 C 
ATOM     23  C   UNL     1      -2.204  -1.985   2.131  0.00  0.00    +0.031 C 
ATOM     24  C   UNL     1      -1.235  -2.976   1.451  0.00  0.00    +0.160 C 
ATOM     25  O   UNL     1      -1.276  -4.202   2.193  0.00  0.00    -0.375 OA
ENDBRANCH  20  21
ENDBRANCH  19  20
ENDBRANCH   1  15
BRANCH   1  26
ATOM     26  N   UNL     1       1.718  -7.118   4.077  0.00  0.00    -0.280 NA
BRANCH  26  27
ATOM     27  C   UNL     1       1.398  -7.101   5.511  0.00  0.00    +0.121 C 
BRANCH  27  28
ATOM     28  C   UNL     1       0.518  -8.278   5.844  0.00  0.00    -0.033 A 
ATOM     29  C   UNL     1      -0.739  -8.071   6.382  0.00  0.00    +0.005 A 
ATOM     30  C   UNL     1      -1.546  -9.151   6.687  0.00  0.00    +0.000 A 
ATOM     31  C   UNL     1      -1.097 -10.438   6.454  0.00  0.00    +0.000 A 
ATOM     32  C   UNL     1       0.159 -10.644   5.915  0.00  0.00    +0.000 A 
ATOM     33  C   UNL     1       0.965  -9.564   5.606  0.00  0.00    +0.005 A 
ENDBRANCH  27  28
ENDBRANCH  26  27
BRANCH  26  34
ATOM     34  C   UNL     1       3.028  -6.505   3.823  0.00  0.00    +0.128 C 
BRANCH  34  35
ATOM     35  C   UNL     1       3.550  -6.972   2.489  0.00  0.00    +0.004 A 
ATOM     36  C   UNL     1       3.950  -6.236   1.423  0.00  0.00    +0.012 A 
ATOM     37  C   UNL     1       4.399  -6.886   0.289  0.00  0.00    +0.008 A 
ATOM     38  C   UNL     1       4.425  -8.241   0.276  0.00  0.00    +0.045 A 
ATOM     39  S   UNL     1       3.810  -8.639   1.904  0.00  0.00    -0.100 S 
ENDBRANCH  34  35
ENDBRANCH  26  34
ENDBRANCH   1  26
TORSDOF 9
