REMARK  Name = ZINC39927142
REMARK  6 active torsions:
REMARK  status: ('A' for Active; 'I' for Inactive)
REMARK    1  A    between atoms: C_1  and  S_2
REMARK    2  A    between atoms: S_2  and  C_5
REMARK    3  A    between atoms: C_12  and  N_15
REMARK    4  A    between atoms: C_16  and  C_18
REMARK    5  A    between atoms: C_21  and  C_24
REMARK    6  A    between atoms: C_29  and  O_30
REMARK                            x       y       z     vdW  Elec       q    Type
REMARK                         _______ _______ _______ _____ _____    ______ ____
ROOT
ATOM      1  N   UNL     1       5.106  -0.639  -5.649  0.00  0.00    -0.286 N 
ATOM      2  C   UNL     1       6.447  -0.715  -5.764  0.00  0.00    +0.245 C 
ATOM      3  O   UNL     1       7.056  -1.590  -5.186  0.00  0.00    -0.273 OA
ATOM      4  H   UNL     1       4.618   0.060  -6.111  0.00  0.00    +0.151 HD
ENDROOT
BRANCH   1  12
ATOM      5  C   UNL     1       0.845  -0.437  -1.483  0.00  0.00    +0.089 A 
ATOM      6  C   UNL     1       0.145  -0.615  -2.662  0.00  0.00    +0.029 A 
ATOM      7  C   UNL     1       0.791  -0.954  -3.828  0.00  0.00    +0.026 A 
ATOM      8  C   UNL     1       2.186  -1.131  -3.863  0.00  0.00    +0.043 A 
ATOM      9  C   UNL     1       2.866  -0.944  -2.655  0.00  0.00    +0.034 A 
ATOM     10  C   UNL     1       2.221  -0.599  -1.489  0.00  0.00    +0.043 A 
ATOM     11  S   UNL     1       4.578  -1.237  -3.037  0.00  0.00    -0.082 S 
ATOM     12  C   UNL     1       4.385  -1.613  -4.825  0.00  0.00    +0.224 C 
ATOM     13  N   UNL     1       2.932  -1.472  -4.990  0.00  0.00    -0.316 N 
ATOM     14  H   UNL     1       2.508  -1.613  -5.851  0.00  0.00    +0.149 HD
BRANCH   5  16
ATOM     15  C   UNL     1      -0.022   1.810   0.012  0.00  0.00    +0.200 C 
ATOM     16  S   UNL     1       0.002  -0.004   0.002  0.00  0.00    -0.006 S 
ATOM     17  O   UNL     1       0.835  -0.488   1.046  0.00  0.00    -0.170 OA
ATOM     18  O   UNL     1      -1.315  -0.510  -0.168  0.00  0.00    -0.170 OA
ENDBRANCH   5  16
ENDBRANCH   1  12
BRANCH   2  19
ATOM     19  C   UNL     1       7.188   0.286  -6.611  0.00  0.00    +0.238 C 
ATOM     20  C   UNL     1       7.432   1.569  -5.836  0.00  0.00    +0.041 C 
ATOM     21  C   UNL     1       8.775   1.665  -5.785  0.00  0.00    +0.095 C 
ATOM     22  N   UNL     1       9.350   0.613  -6.426  0.00  0.00    -0.153 NA
ATOM     23  N   UNL     1       8.547  -0.192  -6.912  0.00  0.00    -0.170 NA
BRANCH  21  24
ATOM     24  C   UNL     1       9.521   2.763  -5.124  0.00  0.00    +0.043 A 
ATOM     25  C   UNL     1      10.914   2.769  -5.136  0.00  0.00    +0.014 A 
ATOM     26  C   UNL     1      11.603   3.794  -4.519  0.00  0.00    +0.001 A 
ATOM     27  C   UNL     1      10.915   4.816  -3.889  0.00  0.00    +0.004 A 
ATOM     28  C   UNL     1       9.533   4.820  -3.872  0.00  0.00    +0.046 A 
ATOM     29  C   UNL     1       8.829   3.800  -4.491  0.00  0.00    +0.126 A 
BRANCH  29  30
ATOM     30  O   UNL     1       7.470   3.806  -4.480  0.00  0.00    -0.506 OA
ATOM     31  H   UNL     1       7.081   3.349  -3.721  0.00  0.00    +0.292 HD
ENDBRANCH  29  30
ENDBRANCH  21  24
ENDBRANCH   2  19
TORSDOF 5
