REMARK  Name = ZINC35337836
REMARK  10 active torsions:
REMARK  status: ('A' for Active; 'I' for Inactive)
REMARK    1  A    between atoms: C_1  and  C_2
REMARK    2  A    between atoms: C_4  and  C_35
REMARK    3  A    between atoms: C_5  and  S_9
REMARK    4  A    between atoms: C_6  and  C_8
REMARK    5  A    between atoms: S_9  and  N_12
REMARK    6  A    between atoms: N_12  and  C_13
REMARK    7  A    between atoms: C_16  and  C_19
REMARK    8  A    between atoms: C_21  and  C_31
REMARK    9  A    between atoms: C_22  and  C_30
REMARK   10  A    between atoms: N_33  and  C_34
REMARK                            x       y       z     vdW  Elec       q    Type
REMARK                         _______ _______ _______ _____ _____    ______ ____
ROOT
ATOM      1  C   UNL     1       0.910  -3.272   1.609  0.00  0.00    +0.048 A 
ATOM      2  C   UNL     1       1.249  -2.323   2.565  0.00  0.00    +0.025 A 
ATOM      3  C   UNL     1       2.235  -2.600   3.491  0.00  0.00    +0.007 A 
ATOM      4  C   UNL     1       2.886  -3.820   3.467  0.00  0.00    -0.022 A 
ATOM      5  C   UNL     1       2.551  -4.766   2.516  0.00  0.00    +0.007 A 
ATOM      6  C   UNL     1       1.562  -4.498   1.591  0.00  0.00    +0.025 A 
ENDROOT
BRANCH   4   7
ATOM      7  C   UNL     1       3.963  -4.118   4.478  0.00  0.00    +0.142 C 
ATOM      8  C   UNL     1       5.320  -3.920   3.848  0.00  0.00    +0.058 C 
ATOM      9  C   UNL     1       5.959  -4.986   3.290  0.00  0.00    +0.025 C 
ATOM     10  N   UNL     1       5.428  -6.206   3.341  0.00  0.00    -0.341 N 
ATOM     11  C   UNL     1       4.412  -6.489   4.139  0.00  0.00    +0.135 C 
ATOM     12  N   UNL     1       3.850  -5.518   4.924  0.00  0.00    -0.300 N 
ATOM     13  C   UNL     1       3.176  -5.797   6.186  0.00  0.00    +0.109 C 
ATOM     14  C   UNL     1       2.228  -6.984   6.096  0.00  0.00    +0.030 C 
ATOM     15  C   UNL     1       3.036  -8.263   5.834  0.00  0.00    +0.078 C 
ATOM     16  S   UNL     1       3.764  -8.132   4.158  0.00  0.00    -0.092 S 
ATOM     17  C   UNL     1       7.286  -4.782   2.606  0.00  0.00    +0.064 C 
ATOM     18  H   UNL     1       5.796  -6.905   2.778  0.00  0.00    +0.167 HD
BRANCH   8  19
ATOM     19  C   UNL     1       5.919  -2.647   3.835  0.00  0.00    +0.244 C 
ATOM     20  O   UNL     1       7.062  -2.515   3.433  0.00  0.00    -0.270 OA
ATOM     21  N   UNL     1       5.229  -1.573   4.268  0.00  0.00    -0.315 N 
ATOM     22  C   UNL     1       5.853  -0.248   4.255  0.00  0.00    +0.128 C 
ATOM     23  H   UNL     1       4.320  -1.678   4.589  0.00  0.00    +0.149 HD
ENDBRANCH   8  19
ENDBRANCH   4   7
BRANCH   1  24
ATOM     24  N   UNL     1      -0.088  -2.995   0.671  0.00  0.00    -0.216 N 
ATOM     25  H   UNL     1       0.062  -3.189  -0.267  0.00  0.00    +0.174 HD
BRANCH  24  26
ATOM     26  S   UNL     1      -1.525  -2.336   1.162  0.00  0.00    +0.073 S 
ATOM     27  O   UNL     1      -1.971  -3.110   2.267  0.00  0.00    -0.150 OA
ATOM     28  O   UNL     1      -2.310  -2.156  -0.009  0.00  0.00    -0.150 OA
BRANCH  26  33
ATOM     29  C   UNL     1      -0.321   3.178   3.295  0.00  0.00    +0.044 C 
ATOM     30  C   UNL     1      -0.622   1.801   2.762  0.00  0.00    -0.050 A 
ATOM     31  C   UNL     1      -0.787   0.743   3.636  0.00  0.00    +0.008 A 
ATOM     32  C   UNL     1      -1.064  -0.520   3.147  0.00  0.00    -0.023 A 
ATOM     33  C   UNL     1      -1.175  -0.725   1.785  0.00  0.00    +0.114 A 
ATOM     34  C   UNL     1      -1.010   0.333   0.911  0.00  0.00    -0.023 A 
ATOM     35  C   UNL     1      -0.738   1.597   1.400  0.00  0.00    +0.008 A 
ATOM     36  C   UNL     1      -1.130   0.109  -0.575  0.00  0.00    +0.046 C 
ATOM     37  C   UNL     1      -1.243  -1.674   4.100  0.00  0.00    +0.046 C 
ENDBRANCH  26  33
ENDBRANCH  24  26
ENDBRANCH   1  24
TORSDOF 5
