REMARK  Name = ZINC36048510
REMARK  14 active torsions:
REMARK  status: ('A' for Active; 'I' for Inactive)
REMARK    1  A    between atoms: C_1  and  C_2
REMARK    2  A    between atoms: C_2  and  C_3
REMARK    3  A    between atoms: C_3  and  C_5
REMARK    4  A    between atoms: C_3  and  N_28
REMARK    5  A    between atoms: C_9  and  O_26
REMARK    6  A    between atoms: C_10  and  O_24
REMARK    7  A    between atoms: N_15  and  C_16
REMARK    8  A    between atoms: C_16  and  C_17
REMARK    9  A    between atoms: O_24  and  C_25
REMARK   10  A    between atoms: O_26  and  C_27
REMARK   11  A    between atoms: N_31  and  C_32
REMARK   12  A    between atoms: C_32  and  C_33
REMARK   13  A    between atoms: C_32  and  C_34
REMARK   14  A    between atoms: C_32  and  C_35
REMARK                            x       y       z     vdW  Elec       q    Type
REMARK                         _______ _______ _______ _____ _____    ______ ____
ROOT
ATOM      1  C   UNL     1       1.828  -1.426  -1.172  0.00  0.00    -0.016 C 
ATOM      2  C   UNL     1       0.469  -2.051  -1.346  0.00  0.00    -0.052 A 
ATOM      3  C   UNL     1      -0.630  -1.409  -0.793  0.00  0.00    +0.051 A 
ATOM      4  C   UNL     1      -1.896  -1.949  -0.927  0.00  0.00    +0.162 A 
ATOM      5  C   UNL     1      -2.068  -3.144  -1.620  0.00  0.00    +0.162 A 
ATOM      6  C   UNL     1      -0.970  -3.780  -2.171  0.00  0.00    +0.053 A 
ATOM      7  C   UNL     1       0.298  -3.233  -2.035  0.00  0.00    -0.044 A 
ATOM      8  C   UNL     1       1.465  -3.956  -2.658  0.00  0.00    +0.017 C 
ATOM      9  C   UNL     1       2.774  -3.430  -2.068  0.00  0.00    -0.073 C 
ATOM     10  N   UNL     1       2.772  -1.962  -2.158  0.00  0.00    +0.388 N 
ATOM     11  H   UNL     1       2.489  -1.680  -3.084  0.00  0.00    -0.080 HD
ENDROOT
BRANCH   5  12
ATOM     12  O   UNL     1      -3.309  -3.683  -1.755  0.00  0.00    -0.491 OA
ATOM     13  C   UNL     1      -3.407  -4.911  -2.480  0.00  0.00    +0.277 C 
ENDBRANCH   5  12
BRANCH   4  14
ATOM     14  O   UNL     1      -2.970  -1.315  -0.382  0.00  0.00    -0.491 OA
ATOM     15  C   UNL     1      -2.717  -0.094   0.315  0.00  0.00    +0.277 C 
ENDBRANCH   4  14
BRANCH   1  16
ATOM     16  C   UNL     1       1.714   0.089  -1.355  0.00  0.00    +0.065 C 
BRANCH  16  17
ATOM     17  N   UNL     1       0.901   0.651  -0.274  0.00  0.00    -0.298 N 
ATOM     18  C   UNL     1       1.388   0.697   0.982  0.00  0.00    +0.300 C 
ATOM     19  O   UNL     1       2.536   0.361   1.201  0.00  0.00    -0.253 OA
ATOM     20  N   UNL     1       0.604   1.115   1.994  0.00  0.00    -0.295 N 
ATOM     21  H   UNL     1       0.012   0.991  -0.462  0.00  0.00    +0.150 HD
ATOM     22  H   UNL     1      -0.332   1.313   1.833  0.00  0.00    +0.151 HD
BRANCH  20  23
ATOM     23  C   UNL     1       1.163   1.270   3.339  0.00  0.00    +0.028 C 
ATOM     24  C   UNL     1       2.293   2.302   3.306  0.00  0.00    +0.031 C 
ATOM     25  C   UNL     1       0.068   1.744   4.296  0.00  0.00    +0.031 C 
ATOM     26  C   UNL     1       1.714  -0.074   3.820  0.00  0.00    +0.031 C 
ENDBRANCH  20  23
ENDBRANCH  16  17
BRANCH  16  28
ATOM     27  C   UNL     1       1.036   1.904  -2.933  0.00  0.00    +0.005 C 
ATOM     28  C   UNL     1       1.052   0.392  -2.701  0.00  0.00    +0.017 C 
ENDBRANCH  16  28
ENDBRANCH   1  16
BRANCH  10  29
ATOM     29  C   UNL     1       4.120  -1.451  -1.876  0.00  0.00    -0.039 C 
BRANCH  29  30
ATOM     30  C   UNL     1       5.062  -1.894  -2.965  0.00  0.00    -0.029 A 
ATOM     31  C   UNL     1       5.934  -2.943  -2.740  0.00  0.00    +0.004 A 
ATOM     32  C   UNL     1       6.799  -3.350  -3.738  0.00  0.00    +0.000 A 
ATOM     33  C   UNL     1       6.793  -2.709  -4.963  0.00  0.00    +0.003 A 
ATOM     34  C   UNL     1       5.922  -1.661  -5.191  0.00  0.00    +0.038 A 
ATOM     35  C   UNL     1       5.052  -1.255  -4.193  0.00  0.00    +0.125 A 
ATOM     36  F   UNL     1       4.196  -0.234  -4.416  0.00  0.00    -0.205 F 
ENDBRANCH  29  30
ENDBRANCH  10  29
TORSDOF 8
