REMARK  Name = ZINC02626158
REMARK  7 active torsions:
REMARK  status: ('A' for Active; 'I' for Inactive)
REMARK    1  A    between atoms: C_4  and  C_7
REMARK    2  A    between atoms: C_7  and  C_9
REMARK    3  A    between atoms: C_7  and  N_56
REMARK    4  A    between atoms: N_11  and  C_12
REMARK    5  A    between atoms: C_16  and  N_18
REMARK    6  A    between atoms: N_24  and  C_27
REMARK    7  A    between atoms: C_32  and  O_33
REMARK                            x       y       z     vdW  Elec       q    Type
REMARK                         _______ _______ _______ _____ _____    ______ ____
ROOT
ATOM      1  C   UNL     1      -1.149  -4.070  -0.054  0.00  0.00    +0.050 C 
ENDROOT
BRANCH   1   7
ATOM      2  C   UNL     1      -0.546  -2.076   1.181  0.00  0.00    -0.058 C 
ATOM      3  C   UNL     1      -0.654  -0.550   1.191  0.00  0.00    +0.086 C 
ATOM      4  N   UNL     1       0.005  -0.007  -0.004  0.00  0.00    -0.331 N 
ATOM      5  C   UNL     1      -0.615  -0.532  -1.229  0.00  0.00    +0.086 C 
ATOM      6  C   UNL     1      -0.506  -2.058  -1.239  0.00  0.00    -0.058 C 
ATOM      7  N   UNL     1      -1.192  -2.592  -0.043  0.00  0.00    +0.392 N 
ATOM      8  H   UNL     1      -2.173  -2.287  -0.057  0.00  0.00    -0.080 HD
BRANCH   4   9
ATOM      9  C   UNL     1      -0.011   1.393   0.006  0.00  0.00    +0.072 A 
ATOM     10  C   UNL     1      -1.219   2.074   0.025  0.00  0.00    +0.027 A 
ATOM     11  C   UNL     1      -1.232   3.457   0.039  0.00  0.00    +0.002 A 
ATOM     12  C   UNL     1      -0.044   4.163   0.024  0.00  0.00    +0.004 A 
ATOM     13  C   UNL     1       1.164   3.490   0.000  0.00  0.00    +0.047 A 
ATOM     14  C   UNL     1       1.186   2.105  -0.009  0.00  0.00    +0.138 A 
BRANCH  14  15
ATOM     15  O   UNL     1       2.374   1.443  -0.034  0.00  0.00    -0.505 OA
ATOM     16  H   UNL     1       2.703   1.257  -0.924  0.00  0.00    +0.292 HD
ENDBRANCH  14  15
ENDBRANCH   4   9
ENDBRANCH   1   7
BRANCH   1  20
ATOM     17  C   UNL     1      -2.321  -5.480  -3.912  0.00  0.00    +0.000 A 
ATOM     18  C   UNL     1      -1.296  -6.107  -3.229  0.00  0.00    +0.000 A 
ATOM     19  C   UNL     1      -0.916  -5.651  -1.980  0.00  0.00    +0.002 A 
ATOM     20  C   UNL     1      -1.562  -4.567  -1.415  0.00  0.00    -0.052 A 
ATOM     21  C   UNL     1      -2.591  -3.943  -2.096  0.00  0.00    +0.002 A 
ATOM     22  C   UNL     1      -2.967  -4.397  -3.346  0.00  0.00    +0.000 A 
ENDBRANCH   1  20
BRANCH   1  23
ATOM     23  C   UNL     1      -2.109  -4.591   0.984  0.00  0.00    +0.208 C 
ATOM     24  O   UNL     1      -2.745  -3.815   1.666  0.00  0.00    -0.277 OA
ATOM     25  N   UNL     1      -2.261  -5.919   1.155  0.00  0.00    -0.286 N 
ATOM     26  H   UNL     1      -1.804  -6.540   0.566  0.00  0.00    +0.155 HD
BRANCH  25  27
ATOM     27  C   UNL     1      -3.079  -6.403   2.183  0.00  0.00    +0.036 A 
ATOM     28  C   UNL     1      -2.743  -7.577   2.845  0.00  0.00    +0.025 A 
ATOM     29  C   UNL     1      -3.549  -8.050   3.862  0.00  0.00    +0.024 A 
ATOM     30  C   UNL     1      -4.696  -7.361   4.214  0.00  0.00    +0.071 A 
ATOM     31  C   UNL     1      -5.037  -6.195   3.552  0.00  0.00    +0.146 A 
ATOM     32  C   UNL     1      -4.231  -5.714   2.538  0.00  0.00    +0.057 A 
ATOM     33 CL   UNL     1      -5.710  -7.961   5.489  0.00  0.00    -0.081 Cl
BRANCH  31  34
ATOM     34  N   UNL     1      -6.265  -5.461   3.932  0.00  0.00    +0.058 N 
ATOM     35  O   UNL     1      -6.565  -4.434   3.349  0.00  0.00    -0.126 OA
ATOM     36  O   UNL     1      -6.975  -5.884   4.826  0.00  0.00    -0.126 OA
ENDBRANCH  31  34
ENDBRANCH  25  27
ENDBRANCH   1  23
TORSDOF 7
