REMARK  Name = ZINC64313795
REMARK  3 active torsions:
REMARK  status: ('A' for Active; 'I' for Inactive)
REMARK    1  A    between atoms: C_4  and  O_6
REMARK    2  A    between atoms: O_6  and  C_7
REMARK    3  A    between atoms: C_13  and  C_15
REMARK                            x       y       z     vdW  Elec       q    Type
REMARK                         _______ _______ _______ _____ _____    ______ ____
ROOT
ATOM      1  C   UNL     1       1.143  -2.293  -3.405  0.00  0.00    +0.122 C 
ATOM      2  C   UNL     1       2.548  -2.897  -3.461  0.00  0.00    +0.050 C 
ATOM      3  C   UNL     1       2.620  -4.101  -2.517  0.00  0.00    +0.110 C 
ATOM      4  N   UNL     1       1.545  -5.040  -2.865  0.00  0.00    -0.301 N 
ATOM      5  C   UNL     1       0.165  -4.542  -2.930  0.00  0.00    +0.110 C 
ATOM      6  C   UNL     1       0.120  -3.333  -3.869  0.00  0.00    +0.050 C 
ATOM      7  C   UNL     1       1.821  -6.334  -3.122  0.00  0.00    +0.229 C 
ATOM      8  O   UNL     1       0.918  -7.120  -3.314  0.00  0.00    -0.275 OA
ENDROOT
BRANCH   7   9
ATOM      9  C   UNL     1       3.252  -6.805  -3.170  0.00  0.00    +0.151 C 
ATOM     10  C   UNL     1       3.373  -7.827  -4.284  0.00  0.00    -0.007 C 
ATOM     11  C   UNL     1       3.811  -9.050  -3.952  0.00  0.00    +0.014 C 
ATOM     12  C   UNL     1       4.144  -9.367  -2.620  0.00  0.00    +0.098 C 
ATOM     13  N   UNL     1       4.059  -8.528  -1.625  0.00  0.00    -0.218 NA
ATOM     14  C   UNL     1       3.641  -7.267  -1.780  0.00  0.00    +0.090 C 
ATOM     15  S   UNL     1       3.546  -6.203  -0.442  0.00  0.00    -0.037 S 
ENDBRANCH   7   9
BRANCH   1  16
ATOM     16  O   UNL     1       1.081  -1.150  -4.260  0.00  0.00    -0.373 OA
BRANCH  16  20
ATOM     17  C   UNL     1       0.059   2.129  -3.784  0.00  0.00    +0.003 C 
ATOM     18  C   UNL     1       1.515   2.442  -4.210  0.00  0.00    +0.003 C 
ATOM     19  C   UNL     1       2.053   1.052  -4.633  0.00  0.00    +0.031 C 
ATOM     20  C   UNL     1       1.425   0.078  -3.615  0.00  0.00    +0.119 C 
ATOM     21  C   UNL     1       0.157   0.763  -3.075  0.00  0.00    +0.031 C 
ENDBRANCH  16  20
ENDBRANCH   1  16
TORSDOF 3
