REMARK  Name = ZINC08456314
REMARK  7 active torsions:
REMARK  status: ('A' for Active; 'I' for Inactive)
REMARK    1  A    between atoms: C_1  and  C_2
REMARK    2  A    between atoms: C_2  and  C_3
REMARK    3  A    between atoms: C_3  and  C_4
REMARK    4  A    between atoms: C_4  and  S_5
REMARK    5  A    between atoms: S_5  and  C_6
REMARK    6  A    between atoms: C_19  and  C_22
REMARK    7  A    between atoms: C_31  and  O_32
REMARK                            x       y       z     vdW  Elec       q    Type
REMARK                         _______ _______ _______ _____ _____    ______ ____
ROOT
ATOM      1  C   UNL     1      -5.780   6.580   1.105  0.00  0.00    +0.212 A 
ATOM      2  N   UNL     1      -4.600   6.158   0.659  0.00  0.00    -0.184 NA
ATOM      3  C   UNL     1      -4.017   5.128   1.247  0.00  0.00    +0.248 A 
ATOM      4  C   UNL     1      -4.676   4.503   2.330  0.00  0.00    +0.156 A 
ATOM      5  N   UNL     1      -5.848   4.974   2.727  0.00  0.00    -0.141 NA
ATOM      6  N   UNL     1      -6.378   5.983   2.128  0.00  0.00    -0.122 NA
ATOM      7  C   UNL     1      -4.050   3.338   2.991  0.00  0.00    +0.028 A 
ATOM      8  C   UNL     1      -3.951   3.252   4.374  0.00  0.00    +0.012 A 
ATOM      9  C   UNL     1      -3.371   2.141   4.953  0.00  0.00    +0.001 A 
ATOM     10  C   UNL     1      -2.888   1.111   4.164  0.00  0.00    +0.002 A 
ATOM     11  C   UNL     1      -2.975   1.185   2.786  0.00  0.00    +0.024 A 
ATOM     12  C   UNL     1      -3.547   2.295   2.191  0.00  0.00    +0.039 A 
ATOM     13  N   UNL     1      -3.620   2.420   0.800  0.00  0.00    -0.305 N 
ATOM     14  C   UNL     1      -2.791   3.424   0.140  0.00  0.00    +0.298 C 
ATOM     15  O   UNL     1      -2.813   4.666   0.834  0.00  0.00    -0.449 OA
ATOM     16  H   UNL     1      -4.210   1.849   0.283  0.00  0.00    +0.150 HD
ENDROOT
BRANCH  14  17
ATOM     17  C   UNL     1      -1.371   2.923   0.075  0.00  0.00    +0.060 A 
ATOM     18  C   UNL     1      -0.875   2.357  -1.111  0.00  0.00    -0.006 A 
ATOM     19  C   UNL     1      -1.682   2.243  -2.257  0.00  0.00    +0.009 A 
ATOM     20  C   UNL     1      -1.169   1.687  -3.388  0.00  0.00    +0.001 A 
ATOM     21  C   UNL     1       0.146   1.228  -3.430  0.00  0.00    +0.001 A 
ATOM     22  C   UNL     1       0.956   1.323  -2.340  0.00  0.00    +0.008 A 
ATOM     23  C   UNL     1       0.462   1.890  -1.153  0.00  0.00    -0.017 A 
ATOM     24  C   UNL     1       1.270   2.004  -0.008  0.00  0.00    +0.012 A 
ATOM     25  C   UNL     1       0.761   2.558   1.125  0.00  0.00    +0.046 A 
ATOM     26  C   UNL     1      -0.560   3.013   1.171  0.00  0.00    +0.126 A 
BRANCH  26  27
ATOM     27  O   UNL     1      -1.043   3.556   2.319  0.00  0.00    -0.506 OA
ATOM     28  H   UNL     1      -0.846   4.497   2.422  0.00  0.00    +0.292 HD
ENDBRANCH  26  27
ENDBRANCH  14  17
BRANCH   1  29
ATOM     29  S   UNL     1      -6.561   7.953   0.325  0.00  0.00    -0.084 S 
BRANCH  29  30
ATOM     30  C   UNL     1      -8.070   8.063   1.318  0.00  0.00    +0.077 C 
BRANCH  30  31
ATOM     31  C   UNL     1      -8.932   9.220   0.809  0.00  0.00    +0.011 C 
BRANCH  31  33
ATOM     32  C   UNL     1     -11.071  10.469   1.141  0.00  0.00    +0.004 C 
ATOM     33  C   UNL     1     -10.208   9.312   1.649  0.00  0.00    -0.003 C 
ENDBRANCH  31  33
ENDBRANCH  30  31
ENDBRANCH  29  30
ENDBRANCH   1  29
TORSDOF 6
