REMARK  Name = ZINC41005852
REMARK  5 active torsions:
REMARK  status: ('A' for Active; 'I' for Inactive)
REMARK    1  A    between atoms: C_1  and  C_2
REMARK    2  A    between atoms: C_5  and  C_8
REMARK    3  A    between atoms: C_17  and  C_19
REMARK    4  A    between atoms: C_19  and  O_20
REMARK    5  A    between atoms: O_20  and  C_21
REMARK                            x       y       z     vdW  Elec       q    Type
REMARK                         _______ _______ _______ _____ _____    ______ ____
ROOT
ATOM      1  C   UNL     1       0.058  -4.251  -0.021  0.00  0.00    +0.186 A 
ATOM      2  N   UNL     1      -0.206  -5.023  -1.051  0.00  0.00    -0.126 NA
ATOM      3  N   UNL     1      -0.097  -6.260  -0.709  0.00  0.00    -0.120 NA
ATOM      4  C   UNL     1       0.240  -6.337   0.545  0.00  0.00    +0.220 A 
ATOM      5  N   UNL     1       0.364  -5.070   1.055  0.00  0.00    -0.184 N 
ATOM      6  N   UNL     1       0.728  -4.972   2.392  0.00  0.00    -0.140 NA
ATOM      7  C   UNL     1       0.941  -6.038   3.116  0.00  0.00    +0.188 A 
ATOM      8  S   UNL     1       0.629  -7.353   1.948  0.00  0.00    -0.011 S 
ATOM      9  N   UNL     1       1.308  -6.127   4.453  0.00  0.00    -0.260 N 
ATOM     10  C   UNL     1       1.482  -7.334   5.025  0.00  0.00    +0.256 C 
ATOM     11  O   UNL     1       1.317  -8.344   4.374  0.00  0.00    -0.272 OA
ATOM     12  H   UNL     1       1.440  -5.319   4.974  0.00  0.00    +0.157 HD
ENDROOT
BRANCH   1  17
ATOM     13  C   UNL     1      -0.018   1.503   0.010  0.00  0.00    +0.044 C 
ATOM     14  C   UNL     1       0.002  -0.004   0.002  0.00  0.00    -0.050 A 
ATOM     15  C   UNL     1       0.006  -0.686  -1.202  0.00  0.00    +0.004 A 
ATOM     16  C   UNL     1       0.024  -2.065  -1.217  0.00  0.00    +0.012 A 
ATOM     17  C   UNL     1       0.039  -2.773  -0.013  0.00  0.00    +0.021 A 
ATOM     18  C   UNL     1       0.036  -2.079   1.198  0.00  0.00    +0.012 A 
ATOM     19  C   UNL     1       0.023  -0.699   1.198  0.00  0.00    +0.004 A 
ENDBRANCH   1  17
BRANCH  10  20
ATOM     20  C   UNL     1       1.880  -7.430   6.476  0.00  0.00    +0.324 C 
BRANCH  20  21
ATOM     21  O   UNL     1       2.001  -8.805   6.847  0.00  0.00    -0.483 OA
BRANCH  21  22
ATOM     22  C   UNL     1       2.356  -9.068   8.132  0.00  0.00    +0.121 A 
ATOM     23  C   UNL     1       2.578  -8.025   9.019  0.00  0.00    +0.047 A 
ATOM     24  C   UNL     1       2.939  -8.295  10.324  0.00  0.00    +0.019 A 
ATOM     25  C   UNL     1       3.079  -9.605  10.748  0.00  0.00    +0.018 A 
ATOM     26  C   UNL     1       2.859 -10.646   9.865  0.00  0.00    +0.019 A 
ATOM     27  C   UNL     1       2.491 -10.381   8.560  0.00  0.00    +0.047 A 
ATOM     28 BR   UNL     1       3.574  -9.971  12.536  0.00  0.00    -0.050 Br
ENDBRANCH  21  22
ENDBRANCH  20  21
ENDBRANCH  10  20
TORSDOF 4
