REMARK  Name = ZINC12662718
REMARK  7 active torsions:
REMARK  status: ('A' for Active; 'I' for Inactive)
REMARK    1  A    between atoms: C_1  and  C_2
REMARK    2  A    between atoms: N_6  and  N_7
REMARK    3  A    between atoms: N_7  and  C_8
REMARK    4  A    between atoms: C_8  and  N_10
REMARK    5  A    between atoms: C_22  and  C_35
REMARK    6  A    between atoms: C_23  and  O_34
REMARK    7  A    between atoms: C_26  and  C_28
REMARK                            x       y       z     vdW  Elec       q    Type
REMARK                         _______ _______ _______ _____ _____    ______ ____
ROOT
ATOM      1  C   UNL     1       2.659   0.648   1.649  0.00  0.00    +0.012 C 
ATOM      2  C   UNL     1       2.809  -0.697   0.940  0.00  0.00    -0.025 C 
ATOM      3  C   UNL     1       4.277  -1.133   1.030  0.00  0.00    +0.013 C 
ATOM      4  C   UNL     1       5.183  -0.041   0.456  0.00  0.00    +0.053 C 
ATOM      5  C   UNL     1       4.704   0.387  -0.909  0.00  0.00    +0.037 C 
ATOM      6  N   UNL     1       5.545   0.553  -1.863  0.00  0.00    -0.190 NA
ATOM      7  C   UNL     1       3.228   0.623  -1.152  0.00  0.00    +0.056 C 
ATOM      8  C   UNL     1       2.456  -0.540  -0.540  0.00  0.00    +0.001 C 
ATOM      9  C   UNL     1       0.949  -0.380  -0.687  0.00  0.00    +0.005 C 
ATOM     10  C   UNL     1       0.314  -1.750  -0.428  0.00  0.00    +0.007 C 
ATOM     11  C   UNL     1       1.103  -2.546   0.588  0.00  0.00    +0.025 C 
ATOM     12  C   UNL     1       1.905  -1.727   1.591  0.00  0.00    +0.001 C 
ATOM     13  C   UNL     1       1.092  -1.197   2.754  0.00  0.00    +0.005 C 
ATOM     14  C   UNL     1       0.353  -2.347   3.473  0.00  0.00    +0.010 C 
ATOM     15  C   UNL     1      -0.550  -3.020   2.467  0.00  0.00    +0.004 C 
ATOM     16  C   UNL     1       0.299  -3.591   1.314  0.00  0.00    +0.075 C 
ATOM     17  C   UNL     1      -0.762  -4.357   0.511  0.00  0.00    +0.036 C 
ATOM     18  C   UNL     1      -1.587  -5.052   1.632  0.00  0.00    +0.011 C 
ATOM     19  C   UNL     1      -1.262  -4.298   2.948  0.00  0.00    +0.027 C 
ATOM     20  C   UNL     1      -1.639  -2.051   2.016  0.00  0.00    +0.014 C 
ENDROOT
BRANCH  19  21
ATOM     21  C   UNL     1      -2.532  -3.934   3.673  0.00  0.00    -0.022 C 
ATOM     22  C   UNL     1      -3.757  -3.899   3.155  0.00  0.00    +0.094 C 
ATOM     23  C   UNL     1      -4.715  -3.501   4.189  0.00  0.00    +0.332 C 
ATOM     24  O   UNL     1      -5.913  -3.381   4.022  0.00  0.00    -0.246 OA
ATOM     25  O   UNL     1      -4.072  -3.281   5.351  0.00  0.00    -0.457 OA
ATOM     26  C   UNL     1      -2.657  -3.534   5.124  0.00  0.00    +0.264 C 
ENDBRANCH  19  21
BRANCH   6  27
ATOM     27  N   UNL     1       6.920   0.463  -1.609  0.00  0.00    -0.219 N 
ATOM     28  H   UNL     1       7.239   0.354  -0.699  0.00  0.00    +0.176 HD
BRANCH  27  29
ATOM     29  C   UNL     1       7.799   0.526  -2.628  0.00  0.00    +0.147 C 
ATOM     30  S   UNL     1       9.479   0.415  -2.317  0.00  0.00    -0.017 S 
BRANCH  29  31
ATOM     31  N   UNL     1       7.356   0.676  -3.892  0.00  0.00    -0.339 N 
ATOM     32  H   UNL     1       6.405   0.739  -4.068  0.00  0.00    +0.144 HD
ATOM     33  H   UNL     1       7.989   0.722  -4.625  0.00  0.00    +0.144 HD
ENDBRANCH  29  31
ENDBRANCH  27  29
ENDBRANCH   6  27
BRANCH  16  34
ATOM     34  O   UNL     1       1.220  -4.571   1.857  0.00  0.00    -0.388 OA
ATOM     35  H   UNL     1       1.764  -5.012   1.191  0.00  0.00    +0.210 HD
ENDBRANCH  16  34
TORSDOF 5
