REMARK  Name = ZINC35465527
REMARK  12 active torsions:
REMARK  status: ('A' for Active; 'I' for Inactive)
REMARK    1  A    between atoms: C_1  and  C_2
REMARK    2  A    between atoms: C_2  and  C_4
REMARK    3  A    between atoms: C_2  and  O_27
REMARK    4  A    between atoms: C_4  and  C_6
REMARK    5  A    between atoms: C_4  and  O_26
REMARK    6  A    between atoms: C_9  and  O_12
REMARK    7  A    between atoms: O_12  and  C_13
REMARK    8  A    between atoms: C_13  and  C_15
REMARK    9  A    between atoms: C_13  and  C_16
REMARK   10  A    between atoms: C_16  and  C_18
REMARK   11  A    between atoms: C_16  and  O_25
REMARK   12  A    between atoms: C_21  and  O_24
REMARK                            x       y       z     vdW  Elec       q    Type
REMARK                         _______ _______ _______ _____ _____    ______ ____
ROOT
ATOM      1  O   UNL     1       0.819  -6.143   1.212  0.00  0.00    -0.486 OA
ENDROOT
BRANCH   1   5
ATOM      2  C   UNL     1       1.017  -2.069   1.830  0.00  0.00    -0.016 A 
ATOM      3  C   UNL     1       2.139  -2.758   1.410  0.00  0.00    +0.010 A 
ATOM      4  C   UNL     1       2.075  -4.122   1.202  0.00  0.00    +0.046 A 
ATOM      5  C   UNL     1       0.884  -4.801   1.416  0.00  0.00    +0.121 A 
ATOM      6  C   UNL     1      -0.240  -4.107   1.838  0.00  0.00    +0.046 A 
ATOM      7  C   UNL     1      -0.170  -2.743   2.050  0.00  0.00    +0.010 A 
BRANCH   2   8
ATOM      8  C   UNL     1       1.089  -0.580   2.056  0.00  0.00    +0.173 C 
BRANCH   8  10
ATOM      9  C   UNL     1       1.804   1.210   3.645  0.00  0.00    +0.040 C 
ATOM     10  C   UNL     1       1.731  -0.301   3.416  0.00  0.00    +0.144 C 
BRANCH  10  11
ATOM     11  O   UNL     1       0.944  -0.902   4.447  0.00  0.00    -0.389 OA
ATOM     12  H   UNL     1       0.035  -0.575   4.488  0.00  0.00    +0.210 HD
ENDBRANCH  10  11
ENDBRANCH   8  10
BRANCH   8  13
ATOM     13  O   UNL     1       1.876   0.020   1.025  0.00  0.00    -0.385 OA
ATOM     14  H   UNL     1       2.785  -0.307   0.984  0.00  0.00    +0.210 HD
ENDBRANCH   8  13
ENDBRANCH   2   8
ENDBRANCH   1   5
BRANCH   1  15
ATOM     15  C   UNL     1       1.979  -6.773   0.665  0.00  0.00    +0.203 C 
ATOM     16  C   UNL     1       2.957  -7.109   1.792  0.00  0.00    +0.055 C 
BRANCH  15  17
ATOM     17  C   UNL     1       1.569  -8.059  -0.055  0.00  0.00    +0.185 C 
BRANCH  17  18
ATOM     18  C   UNL     1       0.606  -7.729  -1.165  0.00  0.00    -0.015 A 
ATOM     19  C   UNL     1       1.086  -7.351  -2.406  0.00  0.00    +0.010 A 
ATOM     20  C   UNL     1       0.205  -7.048  -3.426  0.00  0.00    +0.046 A 
ATOM     21  C   UNL     1      -1.162  -7.122  -3.204  0.00  0.00    +0.117 A 
ATOM     22  C   UNL     1      -1.642  -7.501  -1.959  0.00  0.00    +0.046 A 
ATOM     23  C   UNL     1      -0.757  -7.809  -0.944  0.00  0.00    +0.010 A 
BRANCH  21  24
ATOM     24  O   UNL     1      -2.031  -6.823  -4.206  0.00  0.00    -0.507 OA
ATOM     25  H   UNL     1      -2.278  -7.582  -4.752  0.00  0.00    +0.292 HD
ENDBRANCH  21  24
ENDBRANCH  17  18
BRANCH  17  26
ATOM     26  O   UNL     1       2.729  -8.690  -0.602  0.00  0.00    -0.384 OA
ATOM     27  H   UNL     1       3.208  -8.145  -1.242  0.00  0.00    +0.210 HD
ENDBRANCH  17  26
ENDBRANCH  15  17
ENDBRANCH   1  15
TORSDOF 10
