REMARK  Name = ZINC10500699
REMARK  6 active torsions:
REMARK  status: ('A' for Active; 'I' for Inactive)
REMARK    1  A    between atoms: C_1  and  C_2
REMARK    2  A    between atoms: C_2  and  C_4
REMARK    3  A    between atoms: C_2  and  N_15
REMARK    4  A    between atoms: N_6  and  C_7
REMARK    5  A    between atoms: C_7  and  C_8
REMARK    6  A    between atoms: C_8  and  C_9
REMARK                            x       y       z     vdW  Elec       q    Type
REMARK                         _______ _______ _______ _____ _____    ______ ____
ROOT
ATOM      1  C   UNL     1       6.282  -1.206  -2.676  0.00  0.00    +0.233 C 
ATOM      2  O   UNL     1       5.696  -1.010  -3.720  0.00  0.00    -0.274 OA
ATOM      3  N   UNL     1       5.653  -1.002  -1.502  0.00  0.00    -0.313 N 
ATOM      4  H   UNL     1       6.122  -1.159  -0.667  0.00  0.00    +0.149 HD
ENDROOT
BRANCH   1   6
ATOM      5  C   UNL     1       7.815  -3.026  -1.981  0.00  0.00    +0.038 C 
ATOM      6  C   UNL     1       7.713  -1.676  -2.693  0.00  0.00    +0.157 C 
BRANCH   6   7
ATOM      7  N   UNL     1       8.164  -1.821  -4.080  0.00  0.00    -0.289 N 
ATOM      8  C   UNL     1       9.476  -1.732  -4.375  0.00  0.00    +0.298 C 
ATOM      9  O   UNL     1      10.286  -1.532  -3.490  0.00  0.00    -0.253 OA
ATOM     10  N   UNL     1       9.890  -1.865  -5.651  0.00  0.00    -0.313 N 
ATOM     11  H   UNL     1       7.518  -1.980  -4.785  0.00  0.00    +0.151 HD
ATOM     12  H   UNL     1       9.244  -2.024  -6.356  0.00  0.00    +0.146 HD
ATOM     13  H   UNL     1      10.834  -1.801  -5.863  0.00  0.00    +0.146 HD
ENDBRANCH   6   7
ENDBRANCH   1   6
BRANCH   3  14
ATOM     14  C   UNL     1       4.262  -0.545  -1.485  0.00  0.00    +0.109 C 
BRANCH  14  15
ATOM     15  C   UNL     1       3.791  -0.394  -0.037  0.00  0.00    +0.061 C 
BRANCH  15  16
ATOM     16  C   UNL     1       2.360   0.076  -0.020  0.00  0.00    -0.008 A 
ATOM     17  C   UNL     1       1.220  -0.657  -0.013  0.00  0.00    +0.012 A 
ATOM     18  C   UNL     1       0.002  -0.004   0.002  0.00  0.00    +0.023 A 
ATOM     19  C   UNL     1      -0.016   1.352   0.009  0.00  0.00    +0.055 A 
ATOM     20  S   UNL     1       1.725   1.745  -0.005  0.00  0.00    -0.086 S 
ATOM     21 BR   UNL     1      -1.501   2.523   0.023  0.00  0.00    -0.043 Br
ENDBRANCH  15  16
ENDBRANCH  14  15
ENDBRANCH   3  14
TORSDOF 5
