REMARK  Name = ZINC21964881
REMARK  13 active torsions:
REMARK  status: ('A' for Active; 'I' for Inactive)
REMARK    1  A    between atoms: C_1  and  C_2
REMARK    2  A    between atoms: C_2  and  C_3
REMARK    3  A    between atoms: C_2  and  N_4
REMARK    4  A    between atoms: N_4  and  C_5
REMARK    5  A    between atoms: N_4  and  C_33
REMARK    6  A    between atoms: C_5  and  C_6
REMARK    7  A    between atoms: C_6  and  N_7
REMARK    8  A    between atoms: C_17  and  S_18
REMARK    9  A    between atoms: S_18  and  C_19
REMARK   10  A    between atoms: C_19  and  C_20
REMARK   11  A    between atoms: N_22  and  C_23
REMARK   12  A    between atoms: C_33  and  C_34
REMARK   13  A    between atoms: C_33  and  C_35
REMARK                            x       y       z     vdW  Elec       q    Type
REMARK                         _______ _______ _______ _____ _____    ______ ____
ROOT
ATOM      1  N   UNL     1       0.015  -2.721   0.184  0.00  0.00    -0.289 N 
ATOM      2  C   UNL     1       1.207  -2.081   0.215  0.00  0.00    +0.262 A 
ATOM      3  O   UNL     1       2.256  -2.698   0.187  0.00  0.00    -0.267 OA
ATOM      4  C   UNL     1       1.187  -0.614   0.285  0.00  0.00    +0.065 A 
ATOM      5  C   UNL     1       2.360   0.138   0.322  0.00  0.00    +0.015 A 
ATOM      6  C   UNL     1       2.285   1.502   0.387  0.00  0.00    +0.001 A 
ATOM      7  C   UNL     1       1.053   2.144   0.417  0.00  0.00    +0.002 A 
ATOM      8  C   UNL     1      -0.112   1.432   0.382  0.00  0.00    +0.028 A 
ATOM      9  C   UNL     1      -0.068   0.036   0.315  0.00  0.00    +0.079 A 
ATOM     10  N   UNL     1      -1.194  -0.705   0.279  0.00  0.00    -0.223 NA
ATOM     11  C   UNL     1      -1.153  -2.013   0.216  0.00  0.00    +0.173 A 
ENDROOT
BRANCH   1  12
ATOM     12  C   UNL     1      -0.024  -4.184   0.115  0.00  0.00    +0.109 C 
BRANCH  12  13
ATOM     13  C   UNL     1      -0.038  -4.762   1.531  0.00  0.00    -0.056 C 
BRANCH  13  14
ATOM     14  N   UNL     1      -0.219  -6.218   1.464  0.00  0.00    +0.384 N 
ATOM     15  H   UNL     1      -1.039  -6.425   0.761  0.00  0.00    -0.081 HD
BRANCH  14  17
ATOM     16  C   UNL     1       0.913  -6.972  -0.573  0.00  0.00    -0.014 C 
ATOM     17  C   UNL     1       0.991  -6.876   0.952  0.00  0.00    -0.074 C 
ATOM     18  C   UNL     1       2.222  -6.060   1.350  0.00  0.00    -0.014 C 
ENDBRANCH  14  17
BRANCH  14  19
ATOM     19  C   UNL     1      -0.599  -6.762   2.775  0.00  0.00    -0.074 C 
ATOM     20  C   UNL     1      -1.029  -8.222   2.615  0.00  0.00    -0.014 C 
ATOM     21  C   UNL     1       0.596  -6.684   3.726  0.00  0.00    -0.014 C 
ENDBRANCH  14  19
ENDBRANCH  13  14
ENDBRANCH  12  13
ENDBRANCH   1  12
BRANCH  11  22
ATOM     22  S   UNL     1      -2.675  -2.900   0.173  0.00  0.00    -0.078 S 
BRANCH  22  23
ATOM     23  C   UNL     1      -3.844  -1.521   0.237  0.00  0.00    +0.173 C 
BRANCH  23  24
ATOM     24  C   UNL     1      -5.253  -2.055   0.210  0.00  0.00    +0.224 C 
ATOM     25  O   UNL     1      -5.447  -3.251   0.153  0.00  0.00    -0.275 OA
ATOM     26  N   UNL     1      -6.298  -1.204   0.250  0.00  0.00    -0.309 N 
ATOM     27  H   UNL     1      -6.122  -0.119   0.301  0.00  0.00    +0.149 HD
BRANCH  26  28
ATOM     28  C   UNL     1      -7.667  -1.723   0.223  0.00  0.00    +0.035 C 
ATOM     29  C   UNL     1      -7.886  -2.518  -1.065  0.00  0.00    +0.029 C 
ATOM     30  C   UNL     1      -9.317  -3.061  -1.093  0.00  0.00    -0.008 C 
ATOM     31  C   UNL     1     -10.306  -1.895  -1.038  0.00  0.00    +0.007 C 
ATOM     32  C   UNL     1     -10.086  -1.099   0.251  0.00  0.00    -0.008 C 
ATOM     33  C   UNL     1      -8.656  -0.557   0.278  0.00  0.00    +0.029 C 
ATOM     34  C   UNL     1     -10.308  -2.013   1.458  0.00  0.00    +0.007 C 
ATOM     35  C   UNL     1      -9.319  -3.179   1.403  0.00  0.00    -0.008 C 
ATOM     36  C   UNL     1      -9.539  -3.974   0.114  0.00  0.00    +0.007 C 
ATOM     37  C   UNL     1      -7.889  -2.637   1.430  0.00  0.00    +0.029 C 
ENDBRANCH  26  28
ENDBRANCH  23  24
ENDBRANCH  22  23
ENDBRANCH  11  22
TORSDOF 9
