REMARK  Name = ZINC54426185
REMARK  3 active torsions:
REMARK  status: ('A' for Active; 'I' for Inactive)
REMARK    1  A    between atoms: C_1  and  C_2
REMARK    2  A    between atoms: C_5  and  C_9
REMARK    3  A    between atoms: C_7  and  C_8
REMARK                            x       y       z     vdW  Elec       q    Type
REMARK                         _______ _______ _______ _____ _____    ______ ____
ROOT
ATOM      1  C   UNL     1       0.059  -4.275  -0.021  0.00  0.00    +0.209 C 
ATOM      2  N   UNL     1       0.925  -4.763  -1.111  0.00  0.00    -0.294 N 
ATOM      3  C   UNL     1       0.434  -4.846  -2.387  0.00  0.00    +0.160 C 
ATOM      4  N   UNL     1      -0.847  -5.074  -2.620  0.00  0.00    -0.302 N 
ATOM      5  C   UNL     1      -1.688  -5.162  -1.561  0.00  0.00    +0.213 A 
ATOM      6  N   UNL     1      -1.287  -4.794  -0.288  0.00  0.00    -0.286 N 
ATOM      7  C   UNL     1      -2.344  -5.005   0.565  0.00  0.00    +0.076 A 
ATOM      8  C   UNL     1      -2.536  -4.841   1.931  0.00  0.00    +0.077 A 
ATOM      9  C   UNL     1      -3.757  -5.153   2.497  0.00  0.00    +0.164 A 
ATOM     10  C   UNL     1      -4.798  -5.634   1.708  0.00  0.00    +0.164 A 
ATOM     11  C   UNL     1      -4.625  -5.805   0.350  0.00  0.00    +0.079 A 
ATOM     12  C   UNL     1      -3.395  -5.491  -0.236  0.00  0.00    +0.095 A 
ATOM     13  N   UNL     1      -2.934  -5.554  -1.522  0.00  0.00    -0.212 NA
ATOM     14  O   UNL     1      -5.998  -5.936   2.287  0.00  0.00    -0.488 OA
ATOM     15  C   UNL     1      -6.003  -7.063   3.165  0.00  0.00    +0.232 C 
ATOM     16  C   UNL     1      -5.559  -6.660   4.562  0.00  0.00    +0.082 C 
ATOM     17  C   UNL     1      -4.113  -6.191   4.598  0.00  0.00    +0.232 C 
ATOM     18  O   UNL     1      -3.950  -4.991   3.839  0.00  0.00    -0.488 OA
ATOM     19  N   UNL     1       1.289  -4.690  -3.445  0.00  0.00    -0.332 N 
ATOM     20  H   UNL     1       1.840  -5.025  -0.924  0.00  0.00    +0.151 HD
ATOM     21  H   UNL     1       2.231  -4.522  -3.286  0.00  0.00    +0.145 HD
ATOM     22  H   UNL     1       0.953  -4.747  -4.353  0.00  0.00    +0.145 HD
ATOM     23  H   UNL     1      -1.177  -5.175  -3.526  0.00  0.00    +0.171 HD
ENDROOT
BRANCH   1  28
ATOM     24  C   UNL     1      -0.018   1.503   0.010  0.00  0.00    +0.044 C 
ATOM     25  C   UNL     1       0.002  -0.004   0.002  0.00  0.00    -0.048 A 
ATOM     26  C   UNL     1       0.006  -0.689  -1.199  0.00  0.00    +0.004 A 
ATOM     27  C   UNL     1       0.025  -2.071  -1.207  0.00  0.00    +0.007 A 
ATOM     28  C   UNL     1       0.040  -2.768  -0.013  0.00  0.00    -0.006 A 
ATOM     29  C   UNL     1       0.037  -2.084   1.188  0.00  0.00    +0.011 A 
ATOM     30  C   UNL     1       0.023  -0.702   1.195  0.00  0.00    -0.047 A 
ATOM     31  C   UNL     1       0.025   0.045   2.504  0.00  0.00    +0.044 C 
ENDBRANCH   1  28
TORSDOF 1
