REMARK  Name = ZINC23333252
REMARK  6 active torsions:
REMARK  status: ('A' for Active; 'I' for Inactive)
REMARK    1  A    between atoms: C_4  and  C_8
REMARK    2  A    between atoms: C_8  and  N_9
REMARK    3  A    between atoms: N_12  and  C_15
REMARK    4  A    between atoms: C_15  and  C_16
REMARK    5  A    between atoms: N_18  and  C_19
REMARK    6  A    between atoms: C_20  and  C_27
REMARK                            x       y       z     vdW  Elec       q    Type
REMARK                         _______ _______ _______ _____ _____    ______ ____
ROOT
ATOM      1  C   UNL     1       5.448  -2.992   4.813  0.00  0.00    +0.180 C 
ENDROOT
BRANCH   1   5
ATOM      2  N   UNL     1       4.154  -0.956   1.342  0.00  0.00    +0.384 N 
ATOM      3  C   UNL     1       3.207  -1.864   2.003  0.00  0.00    -0.063 C 
ATOM      4  C   UNL     1       3.656  -2.106   3.446  0.00  0.00    +0.066 C 
ATOM      5  N   UNL     1       5.004  -2.692   3.445  0.00  0.00    -0.298 NA
ATOM      6  C   UNL     1       5.958  -1.806   2.764  0.00  0.00    +0.066 C 
ATOM      7  C   UNL     1       5.490  -1.566   1.327  0.00  0.00    -0.063 C 
ATOM      8  H   UNL     1       4.189  -0.082   1.845  0.00  0.00    -0.081 HD
BRANCH   2   9
ATOM      9  C   UNL     1       3.713  -0.710  -0.038  0.00  0.00    -0.039 C 
BRANCH   9  13
ATOM     10  C   UNL     1      -0.017   1.378   0.010  0.00  0.00    +0.004 A 
ATOM     11  C   UNL     1       1.170   2.086   0.002  0.00  0.00    +0.038 A 
ATOM     12  C   UNL     1       2.379   1.411  -0.013  0.00  0.00    +0.126 A 
ATOM     13  C   UNL     1       2.398   0.026  -0.021  0.00  0.00    -0.010 A 
ATOM     14  C   UNL     1       1.209  -0.680  -0.013  0.00  0.00    +0.045 A 
ATOM     15  C   UNL     1       0.002  -0.004   0.002  0.00  0.00    +0.020 A 
ATOM     16 CL   UNL     1       1.232  -2.416  -0.022  0.00  0.00    -0.083 Cl
ATOM     17  F   UNL     1       3.539   2.103  -0.021  0.00  0.00    -0.205 F 
ENDBRANCH   9  13
ENDBRANCH   2   9
ENDBRANCH   1   5
BRANCH   1  18
ATOM     18  C   UNL     1       6.714  -3.808   4.762  0.00  0.00    +0.232 C 
ATOM     19  O   UNL     1       7.198  -4.110   3.691  0.00  0.00    -0.274 OA
ATOM     20  N   UNL     1       7.308  -4.203   5.905  0.00  0.00    -0.278 N 
ATOM     21  H   UNL     1       6.921  -3.962   6.761  0.00  0.00    +0.155 HD
BRANCH  20  22
ATOM     22  C   UNL     1       8.473  -4.954   5.858  0.00  0.00    +0.084 A 
ATOM     23  C   UNL     1       9.210  -5.447   6.919  0.00  0.00    +0.068 A 
ATOM     24  C   UNL     1      10.410  -6.218   6.600  0.00  0.00    -0.023 A 
ATOM     25  C   UNL     1      10.645  -6.347   5.282  0.00  0.00    -0.004 A 
ATOM     26  S   UNL     1       9.307  -5.480   4.502  0.00  0.00    -0.077 S 
ATOM     27  C   UNL     1      11.892  -7.144   5.009  0.00  0.00    +0.043 C 
ATOM     28  C   UNL     1      12.657  -7.142   6.351  0.00  0.00    +0.010 C 
ATOM     29  C   UNL     1      11.512  -6.946   7.366  0.00  0.00    +0.037 C 
BRANCH  23  30
ATOM     30  C   UNL     1       8.804  -5.206   8.307  0.00  0.00    +0.244 C 
ATOM     31  O   UNL     1       8.064  -5.992   8.870  0.00  0.00    -0.270 OA
ATOM     32  N   UNL     1       9.251  -4.115   8.960  0.00  0.00    -0.325 N 
ATOM     33  H   UNL     1       9.841  -3.489   8.512  0.00  0.00    +0.145 HD
ATOM     34  H   UNL     1       8.983  -3.956   9.879  0.00  0.00    +0.145 HD
ENDBRANCH  23  30
ENDBRANCH  20  22
ENDBRANCH   1  18
TORSDOF 6
