REMARK  Name = ZINC03285555
REMARK  6 active torsions:
REMARK  status: ('A' for Active; 'I' for Inactive)
REMARK    1  A    between atoms: C_8  and  C_10
REMARK    2  A    between atoms: C_13  and  S_16
REMARK    3  A    between atoms: N_14  and  N_15
REMARK    4  A    between atoms: S_16  and  C_17
REMARK    5  A    between atoms: C_17  and  C_18
REMARK    6  A    between atoms: N_20  and  C_21
REMARK                            x       y       z     vdW  Elec       q    Type
REMARK                         _______ _______ _______ _____ _____    ______ ____
ROOT
ATOM      1  C   UNL     1       8.462   1.716   1.561  0.00  0.00    +0.190 A 
ATOM      2  N   UNL     1       7.811   2.600   0.838  0.00  0.00    -0.126 NA
ATOM      3  N   UNL     1       6.570   2.275   0.762  0.00  0.00    -0.121 NA
ATOM      4  C   UNL     1       6.351   1.165   1.430  0.00  0.00    +0.209 A 
ATOM      5  N   UNL     1       7.545   0.772   1.967  0.00  0.00    -0.223 N 
ENDROOT
BRANCH   1  13
ATOM      6  C   UNL     1      14.557   2.961   2.170  0.00  0.00    +0.001 A 
ATOM      7  C   UNL     1      14.750   1.828   2.949  0.00  0.00    +0.001 A 
ATOM      8  C   UNL     1      13.677   1.006   3.233  0.00  0.00    +0.016 A 
ATOM      9  C   UNL     1      12.430   1.320   2.738  0.00  0.00    +0.021 A 
ATOM     10  C   UNL     1      12.206   2.467   1.943  0.00  0.00    +0.008 A 
ATOM     11  C   UNL     1      13.332   3.284   1.676  0.00  0.00    +0.010 A 
ATOM     12  C   UNL     1      10.832   2.647   1.507  0.00  0.00    +0.066 A 
ATOM     13  C   UNL     1       9.898   1.735   1.882  0.00  0.00    +0.077 A 
ATOM     14  S   UNL     1      10.827   0.570   2.861  0.00  0.00    -0.084 S 
ATOM     15 CL   UNL     1      10.391   4.008   0.524  0.00  0.00    -0.082 Cl
ENDBRANCH   1  13
BRANCH   5  16
ATOM     16  N   UNL     1       7.779  -0.328   2.742  0.00  0.00    -0.295 N 
ATOM     17  H   UNL     1       8.024  -1.125   2.174  0.00  0.00    +0.163 HD
ATOM     18  H   UNL     1       8.495  -0.141   3.428  0.00  0.00    +0.163 HD
ENDBRANCH   5  16
BRANCH   4  19
ATOM     19  S   UNL     1       4.804   0.339   1.606  0.00  0.00    -0.075 S 
BRANCH  19  20
ATOM     20  C   UNL     1       3.745   1.447   0.644  0.00  0.00    +0.173 C 
BRANCH  20  21
ATOM     21  C   UNL     1       2.331   0.926   0.654  0.00  0.00    +0.224 C 
ATOM     22  O   UNL     1       2.066  -0.095   1.254  0.00  0.00    -0.275 OA
ATOM     23  N   UNL     1       1.362   1.593  -0.002  0.00  0.00    -0.312 N 
ATOM     24  H   UNL     1       1.574   2.409  -0.482  0.00  0.00    +0.149 HD
BRANCH  23  25
ATOM     25  C   UNL     1      -0.013   1.086   0.008  0.00  0.00    +0.073 C 
ATOM     26  C   UNL     1      -0.729   1.579   1.267  0.00  0.00    +0.022 C 
ATOM     27  C   UNL     1      -2.164   1.050   1.278  0.00  0.00    +0.002 C 
ATOM     28  C   UNL     1      -2.904   1.556   0.038  0.00  0.00    +0.000 C 
ATOM     29  C   UNL     1      -2.188   1.063  -1.221  0.00  0.00    +0.002 C 
ATOM     30  C   UNL     1      -0.753   1.593  -1.232  0.00  0.00    +0.022 C 
ENDBRANCH  23  25
ENDBRANCH  20  21
ENDBRANCH  19  20
ENDBRANCH   4  19
TORSDOF 6
