REMARK  Name = ZINC06582770
REMARK  6 active torsions:
REMARK  status: ('A' for Active; 'I' for Inactive)
REMARK    1  A    between atoms: C_4  and  C_7
REMARK    2  A    between atoms: C_12  and  N_13
REMARK    3  A    between atoms: C_14  and  C_16
REMARK    4  A    between atoms: C_16  and  C_17
REMARK    5  A    between atoms: C_17  and  C_19
REMARK    6  A    between atoms: C_17  and  N_26
REMARK                            x       y       z     vdW  Elec       q    Type
REMARK                         _______ _______ _______ _____ _____    ______ ____
ROOT
ATOM      1  N   UNL     1      -2.686   0.363  -3.635  0.00  0.00    -0.285 N 
ATOM      2  C   UNL     1      -2.614   0.939  -2.418  0.00  0.00    +0.219 C 
ATOM      3  O   UNL     1      -2.645   2.147  -2.317  0.00  0.00    -0.275 OA
ATOM      4  H   UNL     1      -2.579  -0.597  -3.723  0.00  0.00    +0.155 HD
ENDROOT
BRANCH   1  10
ATOM      5  C   UNL     1      -2.486   0.708  -6.025  0.00  0.00    +0.003 A 
ATOM      6  C   UNL     1      -2.724   1.496  -7.149  0.00  0.00    +0.010 A 
ATOM      7  C   UNL     1      -3.367   2.709  -7.016  0.00  0.00    +0.001 A 
ATOM      8  C   UNL     1      -3.784   3.145  -5.771  0.00  0.00    +0.002 A 
ATOM      9  C   UNL     1      -3.560   2.370  -4.649  0.00  0.00    +0.024 A 
ATOM     10  C   UNL     1      -2.914   1.148  -4.768  0.00  0.00    +0.041 A 
BRANCH   5  14
ATOM     11  C   UNL     1      -0.486  -3.023  -6.416  0.00  0.00    +0.000 A 
ATOM     12  C   UNL     1      -1.556  -2.726  -7.240  0.00  0.00    +0.001 A 
ATOM     13  C   UNL     1      -2.209  -1.516  -7.118  0.00  0.00    +0.008 A 
ATOM     14  C   UNL     1      -1.788  -0.594  -6.161  0.00  0.00    -0.016 A 
ATOM     15  C   UNL     1      -0.706  -0.897  -5.337  0.00  0.00    +0.008 A 
ATOM     16  C   UNL     1      -0.065  -2.112  -5.464  0.00  0.00    +0.001 A 
ENDBRANCH   5  14
ENDBRANCH   1  10
BRANCH   2  17
ATOM     17  C   UNL     1      -2.493   0.083  -1.184  0.00  0.00    +0.123 C 
BRANCH  17  18
ATOM     18  C   UNL     1      -2.430   0.979   0.054  0.00  0.00    +0.113 C 
BRANCH  18  19
ATOM     19  C   UNL     1      -2.433   0.122   1.294  0.00  0.00    -0.027 A 
ATOM     20  C   UNL     1      -1.250  -0.409   1.770  0.00  0.00    +0.007 A 
ATOM     21  C   UNL     1      -1.251  -1.190   2.911  0.00  0.00    +0.020 A 
ATOM     22  C   UNL     1      -2.440  -1.449   3.570  0.00  0.00    +0.041 A 
ATOM     23  C   UNL     1      -3.626  -0.921   3.090  0.00  0.00    +0.020 A 
ATOM     24  C   UNL     1      -3.622  -0.136   1.952  0.00  0.00    +0.007 A 
ATOM     25 CL   UNL     1      -2.444  -2.436   4.998  0.00  0.00    -0.084 Cl
ENDBRANCH  18  19
BRANCH  18  26
ATOM     26  N   UNL     1      -1.203   1.778   0.016  0.00  0.00    -0.292 N 
ATOM     27  C   UNL     1      -1.109   2.904   0.750  0.00  0.00    +0.298 C 
ATOM     28  O   UNL     1      -2.074   3.306   1.373  0.00  0.00    -0.253 OA
ATOM     29  N   UNL     1       0.054   3.582   0.800  0.00  0.00    -0.313 N 
ATOM     30  H   UNL     1      -0.458   1.497  -0.537  0.00  0.00    +0.151 HD
ATOM     31  H   UNL     1       0.123   4.391   1.331  0.00  0.00    +0.146 HD
ATOM     32  H   UNL     1       0.824   3.261   0.303  0.00  0.00    +0.146 HD
ENDBRANCH  18  26
ENDBRANCH  17  18
ENDBRANCH   2  17
TORSDOF 6
