REMARK  Name = ZINC21331564
REMARK  14 active torsions:
REMARK  status: ('A' for Active; 'I' for Inactive)
REMARK    1  A    between atoms: C_1  and  C_2
REMARK    2  A    between atoms: C_5  and  N_8
REMARK    3  A    between atoms: C_9  and  C_35
REMARK    4  A    between atoms: C_10  and  N_14
REMARK    5  A    between atoms: C_11  and  C_13
REMARK    6  A    between atoms: C_15  and  C_17
REMARK    7  A    between atoms: C_17  and  S_18
REMARK    8  A    between atoms: S_18  and  C_19
REMARK    9  A    between atoms: C_22  and  C_25
REMARK   10  A    between atoms: N_23  and  N_24
REMARK   11  A    between atoms: C_28  and  C_31
REMARK   12  A    between atoms: C_31  and  C_32
REMARK   13  A    between atoms: C_31  and  C_33
REMARK   14  A    between atoms: C_31  and  C_34
REMARK                            x       y       z     vdW  Elec       q    Type
REMARK                         _______ _______ _______ _____ _____    ______ ____
ROOT
ATOM      1  C   UNL     1      -0.854   0.872   0.098  0.00  0.00    +0.173 C 
ENDROOT
BRANCH   1   3
ATOM      2  N   UNL     1      -1.650   1.354   2.390  0.00  0.00    -0.282 N 
ATOM      3  C   UNL     1      -1.942   1.217   1.081  0.00  0.00    +0.228 C 
ATOM      4  O   UNL     1      -3.082   1.372   0.695  0.00  0.00    -0.275 OA
ATOM      5  H   UNL     1      -0.604   1.305   2.728  0.00  0.00    +0.155 HD
BRANCH   2   8
ATOM      6  N   UNL     1      -3.947   1.403   5.108  0.00  0.00    -0.235 N 
ATOM      7  C   UNL     1      -2.826   0.915   4.510  0.00  0.00    +0.063 A 
ATOM      8  C   UNL     1      -2.683   1.558   3.324  0.00  0.00    +0.078 A 
ATOM      9  C   UNL     1      -3.743   2.469   3.197  0.00  0.00    +0.082 A 
ATOM     10  N   UNL     1      -4.500   2.371   4.260  0.00  0.00    -0.170 NA
ATOM     11  C   UNL     1      -3.973   3.398   2.033  0.00  0.00    +0.069 C 
ATOM     12  C   UNL     1      -1.911  -0.147   5.064  0.00  0.00    +0.068 C 
BRANCH   6  17
ATOM     13  C   UNL     1      -6.015  -0.200  10.145  0.00  0.00    +0.044 C 
ATOM     14  C   UNL     1      -5.466   0.225   8.807  0.00  0.00    -0.050 A 
ATOM     15  C   UNL     1      -4.103   0.391   8.642  0.00  0.00    +0.005 A 
ATOM     16  C   UNL     1      -3.597   0.780   7.417  0.00  0.00    +0.028 A 
ATOM     17  C   UNL     1      -4.458   1.007   6.352  0.00  0.00    +0.066 A 
ATOM     18  C   UNL     1      -5.826   0.846   6.523  0.00  0.00    +0.028 A 
ATOM     19  C   UNL     1      -6.326   0.450   7.748  0.00  0.00    +0.005 A 
ENDBRANCH   6  17
ENDBRANCH   2   8
ENDBRANCH   1   3
BRANCH   1  20
ATOM     20  S   UNL     1      -1.558   0.760  -1.566  0.00  0.00    -0.075 S 
BRANCH  20  21
ATOM     21  C   UNL     1      -0.109   0.357  -2.485  0.00  0.00    +0.209 A 
ATOM     22  N   UNL     1       1.105   0.209  -2.001  0.00  0.00    -0.121 NA
ATOM     23  N   UNL     1       1.923  -0.087  -2.947  0.00  0.00    -0.127 NA
ATOM     24  C   UNL     1       1.285  -0.136  -4.093  0.00  0.00    +0.182 A 
ATOM     25  N   UNL     1      -0.036   0.148  -3.832  0.00  0.00    -0.224 N 
BRANCH  24  26
ATOM     26  C   UNL     1       1.875  -0.437  -5.415  0.00  0.00    +0.021 A 
ATOM     27  C   UNL     1       3.123  -1.056  -5.501  0.00  0.00    +0.012 A 
ATOM     28  C   UNL     1       3.665  -1.339  -6.737  0.00  0.00    +0.005 A 
ATOM     29  C   UNL     1       2.979  -1.001  -7.891  0.00  0.00    -0.042 A 
ATOM     30  C   UNL     1       1.744  -0.383  -7.812  0.00  0.00    +0.005 A 
ATOM     31  C   UNL     1       1.188  -0.099  -6.582  0.00  0.00    +0.012 A 
BRANCH  29  32
ATOM     32  C   UNL     1       3.581  -1.308  -9.238  0.00  0.00    -0.013 C 
ATOM     33  C   UNL     1       3.766  -0.007 -10.022  0.00  0.00    +0.015 C 
ATOM     34  C   UNL     1       4.939  -1.987  -9.048  0.00  0.00    +0.015 C 
ATOM     35  C   UNL     1       2.648  -2.242 -10.012  0.00  0.00    +0.015 C 
ENDBRANCH  29  32
ENDBRANCH  24  26
BRANCH  25  36
ATOM     36  N   UNL     1      -1.061   0.206  -4.733  0.00  0.00    -0.295 N 
ATOM     37  H   UNL     1      -0.868   0.015  -5.799  0.00  0.00    +0.163 HD
ATOM     38  H   UNL     1      -2.079   0.444  -4.393  0.00  0.00    +0.163 HD
ENDBRANCH  25  36
ENDBRANCH  20  21
ENDBRANCH   1  20
TORSDOF 8
