REMARK  Name = ZINC01240346
REMARK  8 active torsions:
REMARK  status: ('A' for Active; 'I' for Inactive)
REMARK    1  A    between atoms: C_1  and  C_2
REMARK    2  A    between atoms: C_4  and  C_21
REMARK    3  A    between atoms: C_4  and  C_25
REMARK    4  A    between atoms: C_5  and  C_19
REMARK    5  A    between atoms: C_6  and  N_18
REMARK    6  A    between atoms: N_7  and  C_8
REMARK    7  A    between atoms: C_11  and  S_14
REMARK    8  A    between atoms: S_14  and  N_17
REMARK                            x       y       z     vdW  Elec       q    Type
REMARK                         _______ _______ _______ _____ _____    ______ ____
ROOT
ATOM      1  C   UNL     1      -1.508   4.942   5.073  0.00  0.00    +0.061 C 
ATOM      2  C   UNL     1      -2.807   4.251   5.401  0.00  0.00    +0.011 C 
ATOM      3  C   UNL     1      -3.591   4.750   6.331  0.00  0.00    +0.022 C 
ATOM      4  C   UNL     1      -4.896   4.110   6.704  0.00  0.00    +0.217 C 
ATOM      5  C   UNL     1      -4.973   2.702   6.186  0.00  0.00    +0.092 C 
ATOM      6  C   UNL     1      -4.121   2.258   5.223  0.00  0.00    +0.107 C 
ATOM      7  N   UNL     1      -3.160   3.098   4.710  0.00  0.00    -0.261 N 
ENDROOT
BRANCH   7   8
ATOM      8  C   UNL     1      -2.535   2.789   3.496  0.00  0.00    +0.040 A 
ATOM      9  C   UNL     1      -1.403   1.985   3.482  0.00  0.00    +0.026 A 
ATOM     10  C   UNL     1      -0.789   1.681   2.282  0.00  0.00    +0.030 A 
ATOM     11  C   UNL     1      -1.300   2.178   1.097  0.00  0.00    +0.105 A 
ATOM     12  C   UNL     1      -2.424   2.984   1.109  0.00  0.00    +0.030 A 
ATOM     13  C   UNL     1      -3.046   3.286   2.304  0.00  0.00    +0.026 A 
BRANCH  11  14
ATOM     14  S   UNL     1      -0.513   1.788  -0.431  0.00  0.00    +0.056 S 
ATOM     15  O   UNL     1       0.837   1.472  -0.123  0.00  0.00    -0.153 OA
ATOM     16  O   UNL     1      -0.865   2.820  -1.343  0.00  0.00    -0.153 OA
BRANCH  14  17
ATOM     17  N   UNL     1      -1.209   0.397  -0.999  0.00  0.00    -0.204 NA
ATOM     18  H   UNL     1      -1.914  -0.035  -0.492  0.00  0.00    +0.144 HD
ATOM     19  H   UNL     1      -0.910   0.013  -1.838  0.00  0.00    +0.144 HD
ENDBRANCH  14  17
ENDBRANCH  11  14
ENDBRANCH   7   8
BRANCH   4  20
ATOM     20  C   UNL     1      -6.044   4.927   6.109  0.00  0.00    +0.412 C 
ATOM     21  F   UNL     1      -7.266   4.355   6.482  0.00  0.00    -0.169 F 
ATOM     22  F   UNL     1      -5.979   6.240   6.587  0.00  0.00    -0.169 F 
ATOM     23  F   UNL     1      -5.939   4.933   4.714  0.00  0.00    -0.169 F 
ENDBRANCH   4  20
BRANCH   4  24
ATOM     24  C   UNL     1      -5.029   4.093   8.228  0.00  0.00    +0.412 C 
ATOM     25  F   UNL     1      -3.991   3.333   8.778  0.00  0.00    -0.169 F 
ATOM     26  F   UNL     1      -4.958   5.402   8.717  0.00  0.00    -0.169 F 
ATOM     27  F   UNL     1      -6.258   3.528   8.583  0.00  0.00    -0.169 F 
ENDBRANCH   4  24
BRANCH   6  28
ATOM     28  N   UNL     1      -4.221   0.967   4.761  0.00  0.00    -0.345 N 
ATOM     29  H   UNL     1      -3.554   0.617   4.150  0.00  0.00    +0.144 HD
ATOM     30  H   UNL     1      -4.960   0.406   5.046  0.00  0.00    +0.144 HD
ENDBRANCH   6  28
BRANCH   5  31
ATOM     31  C   UNL     1      -5.960   1.810   6.717  0.00  0.00    +0.099 C 
ATOM     32  N   UNL     1      -6.743   1.103   7.138  0.00  0.00    -0.191 NA
ENDBRANCH   5  31
TORSDOF 7
