REMARK  Name = ZINC36501783
REMARK  14 active torsions:
REMARK  status: ('A' for Active; 'I' for Inactive)
REMARK    1  A    between atoms: C_1  and  C_2
REMARK    2  A    between atoms: C_2  and  C_4
REMARK    3  A    between atoms: C_2  and  C_33
REMARK    4  A    between atoms: C_4  and  C_5
REMARK    5  A    between atoms: N_7  and  C_8
REMARK    6  A    between atoms: N_7  and  C_14
REMARK    7  A    between atoms: C_8  and  C_9
REMARK    8  A    between atoms: C_14  and  C_16
REMARK    9  A    between atoms: C_14  and  C_26
REMARK   10  A    between atoms: C_18  and  N_23
REMARK   11  A    between atoms: N_28  and  C_29
REMARK   12  A    between atoms: C_29  and  C_30
REMARK   13  A    between atoms: C_29  and  C_31
REMARK   14  A    between atoms: C_29  and  C_32
REMARK                            x       y       z     vdW  Elec       q    Type
REMARK                         _______ _______ _______ _____ _____    ______ ____
ROOT
ATOM      1  C   UNL     1      -4.135   0.024  -2.811  0.00  0.00    +0.194 C 
ENDROOT
BRANCH   1   2
ATOM      2  C   UNL     1      -3.984   1.523  -2.755  0.00  0.00    +0.002 A 
ATOM      3  C   UNL     1      -2.877   2.084  -2.147  0.00  0.00    +0.040 A 
ATOM      4  C   UNL     1      -2.739   3.458  -2.095  0.00  0.00    +0.127 A 
ATOM      5  C   UNL     1      -3.709   4.272  -2.652  0.00  0.00    +0.034 A 
ATOM      6  C   UNL     1      -4.816   3.712  -3.260  0.00  0.00    +0.022 A 
ATOM      7  C   UNL     1      -4.952   2.336  -3.317  0.00  0.00    +0.047 A 
ATOM      8 CL   UNL     1      -6.338   1.632  -4.088  0.00  0.00    -0.083 Cl
BRANCH   4   9
ATOM      9  N   UNL     1      -1.554   4.059  -1.444  0.00  0.00    +0.056 N 
ATOM     10  O   UNL     1      -0.707   3.348  -0.957  0.00  0.00    -0.126 OA
ATOM     11  O   UNL     1      -1.433   5.261  -1.398  0.00  0.00    -0.126 OA
ENDBRANCH   4   9
ENDBRANCH   1   2
BRANCH   1  12
ATOM     12  C   UNL     1      -3.570  -0.489  -4.110  0.00  0.00    +0.239 C 
ATOM     13  O   UNL     1      -2.721  -1.355  -4.102  0.00  0.00    -0.273 OA
ATOM     14  N   UNL     1      -4.008   0.014  -5.281  0.00  0.00    -0.309 N 
ATOM     15  H   UNL     1      -4.635   0.755  -5.287  0.00  0.00    +0.149 HD
BRANCH  14  16
ATOM     16  C   UNL     1      -3.540  -0.558  -6.546  0.00  0.00    +0.026 C 
ATOM     17  C   UNL     1      -3.974  -2.023  -6.635  0.00  0.00    +0.031 C 
ATOM     18  C   UNL     1      -4.142   0.224  -7.714  0.00  0.00    +0.031 C 
ATOM     19  C   UNL     1      -2.013  -0.474  -6.609  0.00  0.00    +0.031 C 
ENDBRANCH  14  16
ENDBRANCH   1  12
BRANCH   1  22
ATOM     20  C   UNL     1      -2.064  -0.534  -1.654  0.00  0.00    +0.217 C 
ATOM     21  O   UNL     1      -1.448  -0.075  -2.592  0.00  0.00    -0.276 OA
ATOM     22  N   UNL     1      -3.411  -0.581  -1.690  0.00  0.00    -0.279 N 
BRANCH  20  23
ATOM     23  C   UNL     1      -1.325  -1.051  -0.447  0.00  0.00    +0.104 C 
BRANCH  23  25
ATOM     24  C   UNL     1       0.521   0.609  -0.736  0.00  0.00    +0.013 C 
ATOM     25  C   UNL     1       0.181  -0.881  -0.660  0.00  0.00    +0.025 C 
BRANCH  25  26
ATOM     26  C   UNL     1       0.925  -1.508   0.490  0.00  0.00    -0.044 A 
ATOM     27  C   UNL     1       0.713  -1.056   1.780  0.00  0.00    +0.004 A 
ATOM     28  C   UNL     1       1.395  -1.632   2.835  0.00  0.00    +0.000 A 
ATOM     29  C   UNL     1       2.290  -2.659   2.601  0.00  0.00    +0.000 A 
ATOM     30  C   UNL     1       2.502  -3.112   1.312  0.00  0.00    +0.000 A 
ATOM     31  C   UNL     1       1.816  -2.539   0.258  0.00  0.00    +0.004 A 
ENDBRANCH  25  26
ENDBRANCH  23  25
ENDBRANCH  20  23
BRANCH  22  32
ATOM     32  C   UNL     1      -4.150  -1.239  -0.610  0.00  0.00    +0.183 C 
BRANCH  32  33
ATOM     33  C   UNL     1      -4.571  -0.211   0.408  0.00  0.00    +0.122 A 
ATOM     34  C   UNL     1      -5.682   0.545   0.350  0.00  0.00    +0.046 A 
ATOM     35  C   UNL     1      -5.681   1.365   1.502  0.00  0.00    +0.041 A 
ATOM     36  C   UNL     1      -4.569   1.061   2.195  0.00  0.00    +0.195 A 
ATOM     37  O   UNL     1      -3.904   0.102   1.531  0.00  0.00    -0.466 OA
ENDBRANCH  32  33
ENDBRANCH  22  32
ENDBRANCH   1  22
TORSDOF 10
