REMARK  Name = ZINC01261443
REMARK  12 active torsions:
REMARK  status: ('A' for Active; 'I' for Inactive)
REMARK    1  A    between atoms: C_1  and  C_2
REMARK    2  A    between atoms: C_2  and  C_3
REMARK    3  A    between atoms: C_9  and  S_13
REMARK    4  A    between atoms: S_13  and  C_14
REMARK    5  A    between atoms: C_14  and  C_15
REMARK    6  A    between atoms: N_17  and  C_18
REMARK    7  A    between atoms: C_18  and  C_20
REMARK    8  A    between atoms: C_18  and  C_21
REMARK    9  A    between atoms: C_21  and  C_22
REMARK   10  A    between atoms: C_22  and  C_23
REMARK   11  A    between atoms: C_33  and  C_36
REMARK   12  A    between atoms: C_33  and  C_37
REMARK                            x       y       z     vdW  Elec       q    Type
REMARK                         _______ _______ _______ _____ _____    ______ ____
ROOT
ATOM      1  C   UNL     1     -10.098   0.097   0.050  0.00  0.00    +0.048 A 
ATOM      2  C   UNL     1     -10.193   1.483   0.054  0.00  0.00    +0.003 A 
ATOM      3  C   UNL     1      -9.051   2.245   0.054  0.00  0.00    -0.026 A 
ATOM      4  C   UNL     1      -7.791   1.606   0.046  0.00  0.00    +0.037 A 
ATOM      5  C   UNL     1      -6.459   2.240   0.045  0.00  0.00    +0.092 A 
ATOM      6  C   UNL     1      -5.366   1.366   0.035  0.00  0.00    +0.072 A 
ATOM      7  C   UNL     1      -4.064   1.851   0.031  0.00  0.00    +0.115 A 
ATOM      8  N   UNL     1      -3.883   3.172   0.043  0.00  0.00    -0.228 NA
ATOM      9  C   UNL     1      -4.925   3.982   0.048  0.00  0.00    +0.223 A 
ATOM     10  N   UNL     1      -6.164   3.560   0.052  0.00  0.00    -0.234 NA
ATOM     11  S   UNL     1      -6.086  -0.253   0.029  0.00  0.00    -0.064 S 
ATOM     12  C   UNL     1      -7.803   0.200   0.040  0.00  0.00    +0.111 A 
ATOM     13  N   UNL     1      -8.921  -0.495   0.042  0.00  0.00    -0.244 NA
ATOM     14  C   UNL     1      -9.099   3.749   0.068  0.00  0.00    +0.070 C 
ATOM     15  C   UNL     1     -10.498   4.223  -0.336  0.00  0.00    +0.068 C 
ATOM     16  O   UNL     1     -11.462   3.493   0.431  0.00  0.00    -0.369 OA
ATOM     17  C   UNL     1     -11.560   2.119   0.055  0.00  0.00    +0.197 C 
ATOM     18  C   UNL     1     -10.637   5.719  -0.048  0.00  0.00    +0.041 C 
ATOM     19  C   UNL     1     -10.719   3.959  -1.827  0.00  0.00    +0.041 C 
ENDROOT
BRANCH   1  21
ATOM     20  C   UNL     1     -11.785  -1.016  -1.388  0.00  0.00    +0.010 C 
ATOM     21  C   UNL     1     -11.353  -0.738   0.053  0.00  0.00    +0.052 C 
ENDBRANCH   1  21
BRANCH   7  22
ATOM     22  S   UNL     1      -2.689   0.750   0.019  0.00  0.00    -0.095 S 
BRANCH  22  23
ATOM     23  C   UNL     1      -1.330   1.944   0.019  0.00  0.00    +0.171 C 
BRANCH  23  24
ATOM     24  C   UNL     1      -0.014   1.209   0.009  0.00  0.00    +0.223 C 
ATOM     25  O   UNL     1       0.002  -0.004   0.002  0.00  0.00    -0.275 OA
ATOM     26  N   UNL     1       1.143   1.898   0.001  0.00  0.00    -0.312 N 
ATOM     27  H   UNL     1       1.130   2.868   0.007  0.00  0.00    +0.149 HD
BRANCH  26  28
ATOM     28  C   UNL     1       2.422   1.183  -0.015  0.00  0.00    +0.070 C 
ATOM     29  C   UNL     1       2.819   0.817   1.417  0.00  0.00    +0.028 C 
BRANCH  28  30
ATOM     30  C   UNL     1       3.499   2.078  -0.630  0.00  0.00    +0.026 C 
BRANCH  30  31
ATOM     31  C   UNL     1       3.165   2.343  -2.099  0.00  0.00    +0.037 C 
BRANCH  31  32
ATOM     32  C   UNL     1       4.226   3.225  -2.705  0.00  0.00    -0.047 A 
ATOM     33  C   UNL     1       4.085   4.599  -2.671  0.00  0.00    +0.003 A 
ATOM     34  C   UNL     1       5.061   5.408  -3.222  0.00  0.00    +0.000 A 
ATOM     35  C   UNL     1       6.173   4.842  -3.817  0.00  0.00    +0.000 A 
ATOM     36  C   UNL     1       6.312   3.468  -3.856  0.00  0.00    +0.000 A 
ATOM     37  C   UNL     1       5.338   2.659  -3.300  0.00  0.00    +0.003 A 
ENDBRANCH  31  32
ENDBRANCH  30  31
ENDBRANCH  28  30
ENDBRANCH  26  28
ENDBRANCH  23  24
ENDBRANCH  22  23
ENDBRANCH   7  22
TORSDOF 8
