REMARK  Name = ZINC38850366
REMARK  6 active torsions:
REMARK  status: ('A' for Active; 'I' for Inactive)
REMARK    1  A    between atoms: C_3  and  S_26
REMARK    2  A    between atoms: C_6  and  N_7
REMARK    3  A    between atoms: C_8  and  C_10
REMARK    4  A    between atoms: N_15  and  C_17
REMARK    5  A    between atoms: C_17  and  C_18
REMARK    6  A    between atoms: S_26  and  N_29
REMARK                            x       y       z     vdW  Elec       q    Type
REMARK                         _______ _______ _______ _____ _____    ______ ____
ROOT
ATOM      1  N   UNL     1      -1.199  -0.722   0.010  0.00  0.00    -0.285 N 
ATOM      2  C   UNL     1      -1.183  -2.065  -0.099  0.00  0.00    +0.218 C 
ATOM      3  O   UNL     1      -0.125  -2.659  -0.113  0.00  0.00    -0.275 OA
ATOM      4  H   UNL     1      -2.044  -0.253   0.098  0.00  0.00    +0.155 HD
ENDROOT
BRANCH   2   5
ATOM      5  C   UNL     1      -2.478  -2.828  -0.204  0.00  0.00    +0.059 C 
ATOM      6  C   UNL     1      -3.244  -2.368  -1.447  0.00  0.00    +0.009 C 
ATOM      7  C   UNL     1      -4.519  -3.204  -1.588  0.00  0.00    -0.018 C 
ATOM      8  C   UNL     1      -4.146  -4.686  -1.652  0.00  0.00    -0.078 C 
ATOM      9  N   UNL     1      -3.440  -5.071  -0.424  0.00  0.00    +0.383 N 
ATOM     10  C   UNL     1      -2.180  -4.325  -0.319  0.00  0.00    -0.066 C 
ATOM     11  H   UNL     1      -4.020  -4.864   0.375  0.00  0.00    -0.081 HD
BRANCH   9  12
ATOM     12  C   UNL     1      -3.153  -6.511  -0.457  0.00  0.00    -0.043 C 
BRANCH  12  13
ATOM     13  C   UNL     1      -4.448  -7.282  -0.431  0.00  0.00    -0.062 A 
ATOM     14  C   UNL     1      -5.009  -7.651   0.778  0.00  0.00    +0.003 A 
ATOM     15  C   UNL     1      -6.196  -8.358   0.803  0.00  0.00    +0.021 A 
ATOM     16  C   UNL     1      -6.824  -8.697  -0.382  0.00  0.00    +0.059 A 
ATOM     17  C   UNL     1      -6.263  -8.328  -1.593  0.00  0.00    +0.059 A 
ATOM     18  C   UNL     1      -5.077  -7.615  -1.616  0.00  0.00    +0.023 A 
ATOM     19 CL   UNL     1      -7.049  -8.754  -3.081  0.00  0.00    -0.082 Cl
ATOM     20 CL   UNL     1      -8.315  -9.586  -0.351  0.00  0.00    -0.082 Cl
ENDBRANCH  12  13
ENDBRANCH   9  12
ENDBRANCH   2   5
BRANCH   1  26
ATOM     21  C   UNL     1       1.072  -0.453  -0.766  0.00  0.00    +0.025 A 
ATOM     22  C   UNL     1       2.256   0.259  -0.778  0.00  0.00    +0.030 A 
ATOM     23  C   UNL     1       2.376   1.416  -0.032  0.00  0.00    +0.106 A 
ATOM     24  C   UNL     1       1.312   1.866   0.728  0.00  0.00    +0.030 A 
ATOM     25  C   UNL     1       0.126   1.160   0.744  0.00  0.00    +0.025 A 
ATOM     26  C   UNL     1       0.002  -0.004  -0.004  0.00  0.00    +0.034 A 
BRANCH  23  27
ATOM     27  S   UNL     1       3.889   2.320  -0.049  0.00  0.00    +0.061 S 
ATOM     28  O   UNL     1       3.928   3.069   1.158  0.00  0.00    -0.153 OA
ATOM     29  O   UNL     1       4.909   1.398  -0.407  0.00  0.00    -0.153 OA
BRANCH  27  30
ATOM     30  N   UNL     1       3.789   3.419  -1.284  0.00  0.00    -0.177 NA
ATOM     31  C   UNL     1       4.236   3.065  -2.638  0.00  0.00    +0.109 C 
ATOM     32  C   UNL     1       3.097   3.349  -3.623  0.00  0.00    +0.017 C 
ATOM     33  C   UNL     1       2.646   4.803  -3.470  0.00  0.00    +0.003 C 
ATOM     34  C   UNL     1       2.124   5.030  -2.050  0.00  0.00    +0.017 C 
ATOM     35  C   UNL     1       3.246   4.763  -1.048  0.00  0.00    +0.109 C 
ENDBRANCH  27  30
ENDBRANCH  23  27
ENDBRANCH   1  26
TORSDOF 6
