REMARK  Name = ZINC57804016
REMARK  7 active torsions:
REMARK  status: ('A' for Active; 'I' for Inactive)
REMARK    1  A    between atoms: C_1  and  C_2
REMARK    2  A    between atoms: C_2  and  C_3
REMARK    3  A    between atoms: C_3  and  C_5
REMARK    4  A    between atoms: C_3  and  N_25
REMARK    5  A    between atoms: C_5  and  N_6
REMARK    6  A    between atoms: C_14  and  C_15
REMARK    7  A    between atoms: C_19  and  N_21
REMARK                            x       y       z     vdW  Elec       q    Type
REMARK                         _______ _______ _______ _____ _____    ______ ____
ROOT
ATOM      1  N   UNL     1       1.375  -2.788  -2.439  0.00  0.00    -0.325 N 
ATOM      2  C   UNL     1       0.883  -2.760  -3.730  0.00  0.00    +0.073 A 
ATOM      3  C   UNL     1      -0.395  -2.721  -4.270  0.00  0.00    +0.077 A 
ATOM      4  C   UNL     1      -0.565  -2.701  -5.641  0.00  0.00    +0.168 A 
ATOM      5  C   UNL     1       0.546  -2.719  -6.489  0.00  0.00    +0.168 A 
ATOM      6  C   UNL     1       1.821  -2.757  -5.965  0.00  0.00    +0.079 A 
ATOM      7  C   UNL     1       2.004  -2.778  -4.578  0.00  0.00    +0.093 A 
ATOM      8  N   UNL     1       3.104  -2.815  -3.786  0.00  0.00    -0.227 NA
ATOM      9  C   UNL     1       2.742  -2.815  -2.527  0.00  0.00    +0.142 A 
ATOM     10  O   UNL     1       0.106  -2.692  -7.783  0.00  0.00    -0.453 OA
ATOM     11  C   UNL     1      -1.282  -3.072  -7.724  0.00  0.00    +0.466 C 
ATOM     12  O   UNL     1      -1.695  -2.663  -6.407  0.00  0.00    -0.453 OA
ENDROOT
BRANCH   9  13
ATOM     13  C   UNL     1       3.669  -2.845  -1.375  0.00  0.00    +0.019 A 
ATOM     14  C   UNL     1       3.379  -2.110  -0.224  0.00  0.00    +0.011 A 
ATOM     15  C   UNL     1       4.246  -2.139   0.849  0.00  0.00    +0.002 A 
ATOM     16  C   UNL     1       5.402  -2.895   0.790  0.00  0.00    +0.023 A 
ATOM     17  C   UNL     1       5.698  -3.631  -0.351  0.00  0.00    +0.025 A 
ATOM     18  C   UNL     1       4.831  -3.613  -1.433  0.00  0.00    +0.034 A 
BRANCH  17  19
ATOM     19  N   UNL     1       6.867  -4.394  -0.405  0.00  0.00    -0.358 N 
ATOM     20  H   UNL     1       7.472  -4.410   0.353  0.00  0.00    +0.142 HD
ATOM     21  H   UNL     1       7.075  -4.908  -1.202  0.00  0.00    +0.142 HD
ENDBRANCH  17  19
ENDBRANCH   9  13
BRANCH   1  22
ATOM     22  C   UNL     1       0.584  -2.782  -1.206  0.00  0.00    +0.108 C 
BRANCH  22  23
ATOM     23  C   UNL     1       0.408  -4.217  -0.706  0.00  0.00    -0.055 C 
BRANCH  23  24
ATOM     24  N   UNL     1      -0.246  -5.021  -1.747  0.00  0.00    +0.381 N 
ATOM     25  H   UNL     1      -1.118  -4.587  -2.010  0.00  0.00    -0.090 HD
ATOM     26  H   UNL     1       0.357  -5.081  -2.554  0.00  0.00    -0.090 HD
ATOM     27  H   UNL     1      -0.426  -5.949  -1.393  0.00  0.00    -0.090 HD
ENDBRANCH  23  24
BRANCH  23  29
ATOM     28  C   UNL     1      -0.530  -5.634   1.126  0.00  0.00    +0.002 C 
ATOM     29  C   UNL     1      -0.457  -4.216   0.556  0.00  0.00    -0.018 C 
ENDBRANCH  23  29
ENDBRANCH  22  23
ENDBRANCH   1  22
TORSDOF 6
