REMARK  Name = ZINC58915398
REMARK  13 active torsions:
REMARK  status: ('A' for Active; 'I' for Inactive)
REMARK    1  A    between atoms: C_1  and  C_2
REMARK    2  A    between atoms: C_6  and  C_38
REMARK    3  A    between atoms: C_7  and  N_8
REMARK    4  A    between atoms: C_9  and  C_37
REMARK    5  A    between atoms: C_11  and  C_14
REMARK    6  A    between atoms: C_12  and  C_13
REMARK    7  A    between atoms: N_15  and  N_16
REMARK    8  A    between atoms: C_17  and  C_19
REMARK    9  A    between atoms: C_22  and  N_25
REMARK   10  A    between atoms: N_25  and  C_26
REMARK   11  A    between atoms: N_25  and  S_33
REMARK   12  A    between atoms: C_26  and  C_27
REMARK   13  A    between atoms: S_33  and  C_36
REMARK                            x       y       z     vdW  Elec       q    Type
REMARK                         _______ _______ _______ _____ _____    ______ ____
ROOT
ATOM      1  N   UNL     1      -3.763   2.237   5.986  0.00  0.00    -0.203 N 
ATOM      2  C   UNL     1      -5.035   1.813   6.123  0.00  0.00    +0.263 C 
ATOM      3  O   UNL     1      -5.464   0.934   5.400  0.00  0.00    -0.268 OA
ATOM      4  H   UNL     1      -3.420   2.938   6.562  0.00  0.00    +0.178 HD
ENDROOT
BRANCH   2   5
ATOM      5  C   UNL     1      -5.906   2.414   7.150  0.00  0.00    +0.038 A 
ATOM      6  C   UNL     1      -5.416   3.428   7.978  0.00  0.00    +0.015 A 
ATOM      7  C   UNL     1      -6.231   3.988   8.934  0.00  0.00    +0.025 A 
ATOM      8  C   UNL     1      -7.543   3.545   9.079  0.00  0.00    +0.051 A 
ATOM      9  C   UNL     1      -8.034   2.535   8.256  0.00  0.00    +0.025 A 
ATOM     10  C   UNL     1      -7.226   1.975   7.293  0.00  0.00    +0.015 A 
BRANCH   8  11
ATOM     11  N   UNL     1      -8.364   4.112  10.047  0.00  0.00    -0.203 N 
BRANCH  11  12
ATOM     12  S   UNL     1      -7.835   4.238  11.611  0.00  0.00    +0.043 S 
ATOM     13  O   UNL     1      -9.013   4.154  12.401  0.00  0.00    -0.155 OA
ATOM     14  O   UNL     1      -6.813   3.258  11.728  0.00  0.00    -0.155 OA
ATOM     15  C   UNL     1      -7.122   5.902  11.728  0.00  0.00    +0.218 C 
ENDBRANCH  11  12
BRANCH  11  16
ATOM     16  C   UNL     1      -9.698   4.596   9.684  0.00  0.00    +0.166 C 
BRANCH  16  17
ATOM     17  C   UNL     1      -9.585   5.972   9.079  0.00  0.00    -0.028 A 
ATOM     18  C   UNL     1      -9.530   7.085   9.898  0.00  0.00    +0.005 A 
ATOM     19  C   UNL     1      -9.427   8.347   9.343  0.00  0.00    +0.000 A 
ATOM     20  C   UNL     1      -9.377   8.496   7.969  0.00  0.00    +0.000 A 
ATOM     21  C   UNL     1      -9.431   7.383   7.151  0.00  0.00    +0.000 A 
ATOM     22  C   UNL     1      -9.531   6.121   7.706  0.00  0.00    +0.005 A 
ENDBRANCH  16  17
ENDBRANCH  11  16
ENDBRANCH   8  11
ENDBRANCH   2   5
BRANCH   1  24
ATOM     23  C   UNL     1      -1.710   2.074   4.878  0.00  0.00    +0.140 C 
ATOM     24  N   UNL     1      -2.935   1.665   5.010  0.00  0.00    -0.187 NA
BRANCH  23  28
ATOM     25  N   UNL     1      -0.086   0.219   2.196  0.00  0.00    -0.317 N 
ATOM     26  C   UNL     1       0.956   1.022   2.562  0.00  0.00    +0.022 A 
ATOM     27  C   UNL     1       0.559   1.816   3.574  0.00  0.00    +0.032 A 
ATOM     28  C   UNL     1      -0.839   1.473   3.852  0.00  0.00    +0.016 A 
ATOM     29  C   UNL     1      -1.175   0.488   2.967  0.00  0.00    +0.030 A 
ATOM     30  C   UNL     1      -2.518  -0.186   2.864  0.00  0.00    +0.064 C 
ATOM     31  C   UNL     1       2.326   1.020   1.936  0.00  0.00    +0.064 C 
BRANCH  25  38
ATOM     32  C   UNL     1      -0.786   1.033  -0.440  0.00  0.00    +0.046 C 
ATOM     33  C   UNL     1      -0.376  -0.383  -0.126  0.00  0.00    -0.026 A 
ATOM     34  C   UNL     1      -0.327  -1.328  -1.133  0.00  0.00    +0.005 A 
ATOM     35  C   UNL     1       0.049  -2.627  -0.846  0.00  0.00    +0.001 A 
ATOM     36  C   UNL     1       0.377  -2.985   0.449  0.00  0.00    +0.005 A 
ATOM     37  C   UNL     1       0.330  -2.045   1.460  0.00  0.00    -0.026 A 
ATOM     38  C   UNL     1      -0.042  -0.739   1.174  0.00  0.00    +0.052 A 
ATOM     39  C   UNL     1       0.687  -2.437   2.870  0.00  0.00    +0.046 C 
ENDBRANCH  25  38
ENDBRANCH  23  28
ENDBRANCH   1  24
TORSDOF 8
