REMARK  Name = ZINC13152247
REMARK  4 active torsions:
REMARK  status: ('A' for Active; 'I' for Inactive)
REMARK    1  A    between atoms: C_6  and  N_7
REMARK    2  A    between atoms: C_9  and  C_16
REMARK    3  A    between atoms: C_10  and  N_15
REMARK    4  A    between atoms: N_17  and  C_18
REMARK                            x       y       z     vdW  Elec       q    Type
REMARK                         _______ _______ _______ _____ _____    ______ ____
ROOT
ATOM      1  N   UNL     1      -1.107  -0.753  -0.688  0.00  0.00    -0.299 N 
ATOM      2  C   UNL     1      -1.136  -2.114  -0.450  0.00  0.00    +0.138 A 
ATOM      3  C   UNL     1      -2.340  -2.839  -0.578  0.00  0.00    +0.073 A 
ATOM      4  C   UNL     1      -2.308  -4.227  -0.323  0.00  0.00    +0.132 A 
ATOM      5  N   UNL     1      -1.155  -4.788   0.025  0.00  0.00    -0.199 NA
ATOM      6  C   UNL     1      -0.049  -4.066   0.133  0.00  0.00    +0.216 A 
ATOM      7  N   UNL     1      -0.030  -2.762  -0.102  0.00  0.00    -0.199 NA
ATOM      8  N   UNL     1       1.125  -4.695   0.497  0.00  0.00    -0.327 N 
ATOM      9  H   UNL     1      -1.932  -0.275  -0.866  0.00  0.00    +0.154 HD
ATOM     10  H   UNL     1       1.130  -5.650   0.670  0.00  0.00    +0.145 HD
ATOM     11  H   UNL     1       1.944  -4.183   0.581  0.00  0.00    +0.145 HD
ENDROOT
BRANCH   1  17
ATOM     12  C   UNL     1       1.273  -0.702  -1.090  0.00  0.00    +0.024 A 
ATOM     13  C   UNL     1       2.475  -0.021  -1.074  0.00  0.00    +0.017 A 
ATOM     14  C   UNL     1       2.521   1.293  -0.642  0.00  0.00    +0.018 A 
ATOM     15  C   UNL     1       1.364   1.928  -0.227  0.00  0.00    +0.017 A 
ATOM     16  C   UNL     1       0.160   1.252  -0.240  0.00  0.00    +0.024 A 
ATOM     17  C   UNL     1       0.111  -0.067  -0.673  0.00  0.00    +0.032 A 
ATOM     18 BR   UNL     1       4.168   2.221  -0.621  0.00  0.00    -0.050 Br
ENDBRANCH   1  17
BRANCH   4  19
ATOM     19  N   UNL     1      -3.454  -4.987  -0.432  0.00  0.00    -0.342 N 
ATOM     20  H   UNL     1      -4.325  -4.565  -0.357  0.00  0.00    +0.144 HD
ATOM     21  H   UNL     1      -3.390  -5.943  -0.584  0.00  0.00    +0.144 HD
ENDBRANCH   4  19
BRANCH   3  22
ATOM     22  C   UNL     1      -3.584  -2.172  -0.965  0.00  0.00    +0.126 C 
ATOM     23  N   UNL     1      -4.707  -2.841  -0.979  0.00  0.00    -0.255 NA
BRANCH  23  24
ATOM     24  C   UNL     1      -5.871  -2.218  -1.340  0.00  0.00    +0.064 A 
ATOM     25  C   UNL     1      -6.175  -0.952  -0.833  0.00  0.00    +0.029 A 
ATOM     26  C   UNL     1      -7.349  -0.329  -1.202  0.00  0.00    +0.017 A 
ATOM     27  C   UNL     1      -8.225  -0.956  -2.071  0.00  0.00    +0.018 A 
ATOM     28  C   UNL     1      -7.930  -2.211  -2.577  0.00  0.00    +0.017 A 
ATOM     29  C   UNL     1      -6.757  -2.842  -2.221  0.00  0.00    +0.029 A 
ATOM     30 BR   UNL     1      -9.833  -0.094  -2.570  0.00  0.00    -0.050 Br
ENDBRANCH  23  24
ENDBRANCH   3  22
TORSDOF 4
