REMARK  Name = ZINC35924710
REMARK  8 active torsions:
REMARK  status: ('A' for Active; 'I' for Inactive)
REMARK    1  A    between atoms: C_1  and  C_2
REMARK    2  A    between atoms: C_5  and  C_8
REMARK    3  A    between atoms: C_8  and  C_9
REMARK    4  A    between atoms: C_13  and  C_22
REMARK    5  A    between atoms: N_15  and  C_16
REMARK    6  A    between atoms: C_23  and  N_25
REMARK    7  A    between atoms: N_29  and  C_32
REMARK    8  A    between atoms: C_32  and  C_33
REMARK                            x       y       z     vdW  Elec       q    Type
REMARK                         _______ _______ _______ _____ _____    ______ ____
ROOT
ATOM      1  C   UNL     1       1.427  -4.787  -0.019  0.00  0.00    +0.138 A 
ATOM      2  N   UNL     1       2.040  -4.952  -1.171  0.00  0.00    -0.212 NA
ATOM      3  C   UNL     1       3.310  -5.351  -1.214  0.00  0.00    +0.169 A 
ATOM      4  C   UNL     1       3.987  -5.593  -0.002  0.00  0.00    +0.082 A 
ATOM      5  C   UNL     1       5.298  -5.997  -0.335  0.00  0.00    +0.073 A 
ATOM      6  N   UNL     1       5.413  -6.002  -1.633  0.00  0.00    -0.169 NA
ATOM      7  N   UNL     1       4.202  -5.607  -2.216  0.00  0.00    -0.214 N 
ATOM      8  C   UNL     1       6.383  -6.362   0.646  0.00  0.00    +0.068 C 
ATOM      9  C   UNL     1       3.286  -5.402   1.204  0.00  0.00    +0.136 A 
ATOM     10  N   UNL     1       2.022  -4.997   1.141  0.00  0.00    -0.216 NA
ENDROOT
BRANCH   9  11
ATOM     11  N   UNL     1       3.899  -5.624   2.421  0.00  0.00    -0.316 N 
ATOM     12  C   UNL     1       3.909  -6.993   2.974  0.00  0.00    +0.104 C 
ATOM     13  C   UNL     1       3.632  -6.981   4.488  0.00  0.00    +0.000 C 
ATOM     14  C   UNL     1       2.562  -5.957   4.797  0.00  0.00    -0.077 C 
ATOM     15  N   UNL     1       3.195  -4.687   5.145  0.00  0.00    +0.383 N 
ATOM     16  C   UNL     1       3.475  -3.841   4.049  0.00  0.00    -0.059 C 
ATOM     17  C   UNL     1       4.513  -4.506   3.108  0.00  0.00    +0.088 C 
ATOM     18  H   UNL     1       4.061  -4.885   5.624  0.00  0.00    -0.081 HD
BRANCH  15  19
ATOM     19  C   UNL     1       2.312  -3.968   6.073  0.00  0.00    -0.043 C 
BRANCH  19  20
ATOM     20  C   UNL     1       2.996  -2.711   6.545  0.00  0.00    -0.064 A 
ATOM     21  C   UNL     1       3.789  -2.739   7.677  0.00  0.00    +0.002 A 
ATOM     22  C   UNL     1       4.416  -1.585   8.110  0.00  0.00    +0.000 A 
ATOM     23  C   UNL     1       4.251  -0.404   7.410  0.00  0.00    +0.000 A 
ATOM     24  C   UNL     1       3.459  -0.377   6.277  0.00  0.00    +0.000 A 
ATOM     25  C   UNL     1       2.835  -1.531   5.842  0.00  0.00    +0.002 A 
ENDBRANCH  19  20
ENDBRANCH  15  19
ENDBRANCH   9  11
BRANCH   7  26
ATOM     26  C   UNL     1       3.950  -5.494  -3.589  0.00  0.00    +0.068 A 
ATOM     27  C   UNL     1       2.694  -5.805  -4.093  0.00  0.00    +0.028 A 
ATOM     28  C   UNL     1       2.448  -5.692  -5.447  0.00  0.00    +0.002 A 
ATOM     29  C   UNL     1       3.451  -5.271  -6.301  0.00  0.00    +0.000 A 
ATOM     30  C   UNL     1       4.703  -4.962  -5.802  0.00  0.00    +0.002 A 
ATOM     31  C   UNL     1       4.954  -5.066  -4.448  0.00  0.00    +0.028 A 
ENDBRANCH   7  26
BRANCH   1  32
ATOM     32  C   UNL     1      -0.011  -4.335  -0.024  0.00  0.00    +0.111 C 
BRANCH  32  37
ATOM     33  C   UNL     1      -0.216   1.440   0.071  0.00  0.00    +0.044 C 
ATOM     34  C   UNL     1      -0.162  -0.066   0.046  0.00  0.00    -0.050 A 
ATOM     35  C   UNL     1      -0.126  -0.737  -1.162  0.00  0.00    +0.003 A 
ATOM     36  C   UNL     1      -0.077  -2.118  -1.185  0.00  0.00    +0.004 A 
ATOM     37  C   UNL     1      -0.063  -2.829   0.001  0.00  0.00    -0.040 A 
ATOM     38  C   UNL     1      -0.098  -2.158   1.209  0.00  0.00    +0.004 A 
ATOM     39  C   UNL     1      -0.143  -0.777   1.232  0.00  0.00    +0.003 A 
ENDBRANCH  32  37
ENDBRANCH   1  32
TORSDOF 6
