REMARK  Name = ZINC58950991
REMARK  6 active torsions:
REMARK  status: ('A' for Active; 'I' for Inactive)
REMARK    1  A    between atoms: C_1  and  O_2
REMARK    2  A    between atoms: O_2  and  C_3
REMARK    3  A    between atoms: C_3  and  C_5
REMARK    4  A    between atoms: C_6  and  N_24
REMARK    5  A    between atoms: C_10  and  N_23
REMARK    6  A    between atoms: C_14  and  C_16
REMARK                            x       y       z     vdW  Elec       q    Type
REMARK                         _______ _______ _______ _____ _____    ______ ____
ROOT
ATOM      1  C   UNL     1      -1.245  -2.035   0.031  0.00  0.00    +0.105 C 
ATOM      2  C   UNL     1      -2.450  -2.655   0.109  0.00  0.00    +0.195 C 
ATOM      3  O   UNL     1      -2.564  -3.992   0.080  0.00  0.00    -0.441 OA
ATOM      4  C   UNL     1      -1.552  -4.747  -0.415  0.00  0.00    +0.136 A 
ATOM      5  C   UNL     1      -1.810  -6.051  -0.815  0.00  0.00    +0.069 A 
ATOM      6  C   UNL     1      -0.787  -6.837  -1.323  0.00  0.00    +0.028 A 
ATOM      7  C   UNL     1       0.497  -6.316  -1.431  0.00  0.00    +0.023 A 
ATOM      8  C   UNL     1       0.751  -5.019  -1.031  0.00  0.00    +0.010 A 
ATOM      9  C   UNL     1      -0.269  -4.234  -0.523  0.00  0.00    +0.007 A 
ATOM     10  C   UNL     1       0.029  -2.822  -0.098  0.00  0.00    +0.094 C 
ENDROOT
BRANCH  10  11
ATOM     11  C   UNL     1       0.739  -2.845   1.231  0.00  0.00    -0.034 A 
ATOM     12  C   UNL     1       0.118  -3.399   2.336  0.00  0.00    +0.004 A 
ATOM     13  C   UNL     1       0.768  -3.420   3.556  0.00  0.00    +0.002 A 
ATOM     14  C   UNL     1       2.038  -2.888   3.672  0.00  0.00    +0.020 A 
ATOM     15  C   UNL     1       2.659  -2.334   2.567  0.00  0.00    +0.041 A 
ATOM     16  C   UNL     1       2.011  -2.318   1.345  0.00  0.00    +0.024 A 
ATOM     17 CL   UNL     1       4.255  -1.665   2.712  0.00  0.00    -0.084 Cl
ENDBRANCH  10  11
BRANCH   6  18
ATOM     18  N   UNL     1      -1.046  -8.149  -1.726  0.00  0.00    -0.358 N 
ATOM     19  H   UNL     1      -1.942  -8.511  -1.651  0.00  0.00    +0.142 HD
ATOM     20  H   UNL     1      -0.329  -8.697  -2.082  0.00  0.00    +0.142 HD
ENDBRANCH   6  18
BRANCH   2  21
ATOM     21  N   UNL     1      -3.583  -1.893   0.221  0.00  0.00    -0.329 N 
ATOM     22  H   UNL     1      -3.527  -0.928   0.151  0.00  0.00    +0.145 HD
ATOM     23  H   UNL     1      -4.441  -2.320   0.370  0.00  0.00    +0.145 HD
ENDBRANCH   2  21
BRANCH   1  24
ATOM     24  C   UNL     1      -1.188  -0.635   0.066  0.00  0.00    +0.341 C 
ATOM     25  O   UNL     1      -1.031  -0.005  -0.965  0.00  0.00    -0.245 OA
BRANCH  24  27
ATOM     26  C   UNL     1      -1.240   1.444   1.204  0.00  0.00    +0.280 C 
ATOM     27  O   UNL     1      -1.307   0.017   1.243  0.00  0.00    -0.465 OA
ENDBRANCH  24  27
ENDBRANCH   1  24
TORSDOF 5
