REMARK  Name = ZINC15103871
REMARK  12 active torsions:
REMARK  status: ('A' for Active; 'I' for Inactive)
REMARK    1  A    between atoms: C_1  and  N_2
REMARK    2  A    between atoms: N_2  and  C_3
REMARK    3  A    between atoms: N_2  and  S_4
REMARK    4  A    between atoms: S_4  and  C_7
REMARK    5  A    between atoms: C_11  and  N_13
REMARK    6  A    between atoms: C_14  and  C_16
REMARK    7  A    between atoms: C_16  and  C_17
REMARK    8  A    between atoms: C_17  and  N_66
REMARK    9  A    between atoms: C_18  and  N_66
REMARK   10  A    between atoms: C_19  and  C_20
REMARK   11  A    between atoms: C_19  and  N_66
REMARK   12  A    between atoms: C_25  and  N_26
REMARK                            x       y       z     vdW  Elec       q    Type
REMARK                         _______ _______ _______ _____ _____    ______ ____
ROOT
ATOM      1  C   UNL     1       2.182  -0.130   1.111  0.00  0.00    +0.077 C 
ENDROOT
BRANCH   1   3
ATOM      2  N   UNL     1       4.229  -0.462   2.459  0.00  0.00    -0.284 N 
ATOM      3  C   UNL     1       2.907  -0.677   2.313  0.00  0.00    +0.215 C 
ATOM      4  O   UNL     1       2.300  -1.311   3.150  0.00  0.00    -0.276 OA
ATOM      5  H   UNL     1       4.730  -0.025   1.752  0.00  0.00    +0.155 HD
BRANCH   2  10
ATOM      6  C   UNL     1       4.808  -1.412   5.964  0.00  0.00    +0.107 A 
ATOM      7  C   UNL     1       6.166  -1.672   5.945  0.00  0.00    +0.030 A 
ATOM      8  C   UNL     1       6.883  -1.532   4.772  0.00  0.00    +0.024 A 
ATOM      9  C   UNL     1       6.244  -1.131   3.613  0.00  0.00    +0.062 A 
ATOM     10  C   UNL     1       4.880  -0.869   3.630  0.00  0.00    +0.054 A 
ATOM     11  C   UNL     1       4.164  -1.006   4.812  0.00  0.00    +0.053 A 
ATOM     12 CL   UNL     1       7.145  -0.955   2.140  0.00  0.00    -0.082 Cl
BRANCH   6  13
ATOM     13  S   UNL     1       3.898  -1.592   7.463  0.00  0.00    +0.060 S 
ATOM     14  O   UNL     1       2.545  -1.816   7.092  0.00  0.00    -0.153 OA
ATOM     15  O   UNL     1       4.627  -2.505   8.273  0.00  0.00    -0.153 OA
BRANCH  13  17
ATOM     16  C   UNL     1       2.899   0.866   7.983  0.00  0.00    +0.131 C 
ATOM     17  N   UNL     1       3.941  -0.131   8.240  0.00  0.00    -0.183 NA
ATOM     18  C   UNL     1       5.020   0.165   9.186  0.00  0.00    +0.131 C 
ENDBRANCH  13  17
ENDBRANCH   6  13
ENDBRANCH   2  10
ENDBRANCH   1   3
BRANCH   1  19
ATOM     19  C   UNL     1       0.703  -0.512   1.188  0.00  0.00    -0.070 C 
BRANCH  19  21
ATOM     20  C   UNL     1      -0.021   1.490   0.035  0.00  0.00    -0.096 C 
ATOM     21  N   UNL     1       0.011   0.013  -0.008  0.00  0.00    +0.381 N 
ATOM     22  H   UNL     1       0.523  -0.286  -0.847  0.00  0.00    -0.082 HD
BRANCH  21  23
ATOM     23  C   UNL     1      -1.366  -0.521  -0.070  0.00  0.00    -0.042 C 
BRANCH  23  24
ATOM     24  C   UNL     1      -1.970  -0.152  -1.400  0.00  0.00    -0.043 A 
ATOM     25  C   UNL     1      -2.852   0.908  -1.489  0.00  0.00    +0.003 A 
ATOM     26  C   UNL     1      -3.403   1.250  -2.710  0.00  0.00    +0.000 A 
ATOM     27  C   UNL     1      -3.083   0.526  -3.844  0.00  0.00    +0.002 A 
ATOM     28  C   UNL     1      -2.207  -0.538  -3.761  0.00  0.00    +0.023 A 
ATOM     29  C   UNL     1      -1.647  -0.881  -2.537  0.00  0.00    +0.031 A 
BRANCH  29  30
ATOM     30  N   UNL     1      -0.761  -1.957  -2.450  0.00  0.00    -0.330 N 
ATOM     31  C   UNL     1       0.461  -1.697  -3.222  0.00  0.00    +0.105 C 
ATOM     32  C   UNL     1       1.465  -2.827  -2.986  0.00  0.00    +0.019 C 
ATOM     33  C   UNL     1       0.840  -4.157  -3.418  0.00  0.00    +0.003 C 
ATOM     34  C   UNL     1      -0.456  -4.381  -2.634  0.00  0.00    +0.019 C 
ATOM     35  C   UNL     1      -1.405  -3.205  -2.879  0.00  0.00    +0.105 C 
ENDBRANCH  29  30
ENDBRANCH  23  24
ENDBRANCH  21  23
ENDBRANCH  19  21
ENDBRANCH   1  19
TORSDOF 9
