REMARK  Name = ZINC35305389
REMARK  17 active torsions:
REMARK  status: ('A' for Active; 'I' for Inactive)
REMARK    1  A    between atoms: C_1  and  C_2
REMARK    2  A    between atoms: C_2  and  N_3
REMARK    3  A    between atoms: N_3  and  C_4
REMARK    4  A    between atoms: N_3  and  C_6
REMARK    5  A    between atoms: C_4  and  C_5
REMARK    6  A    between atoms: C_6  and  C_7
REMARK    7  A    between atoms: C_7  and  C_8
REMARK    8  A    between atoms: C_8  and  C_9
REMARK    9  A    between atoms: C_9  and  C_11
REMARK   10  A    between atoms: C_9  and  N_12
REMARK   11  A    between atoms: C_13  and  C_15
REMARK   12  A    between atoms: C_15  and  S_16
REMARK   13  A    between atoms: S_16  and  C_17
REMARK   14  A    between atoms: C_30  and  C_32
REMARK   15  A    between atoms: C_32  and  C_33
REMARK   16  A    between atoms: C_32  and  C_34
REMARK   17  A    between atoms: C_32  and  C_35
REMARK                            x       y       z     vdW  Elec       q    Type
REMARK                         _______ _______ _______ _____ _____    ______ ____
ROOT
ATOM      1  C   UNL     1       9.514  -1.434  -3.325  0.00  0.00    +0.192 A 
ATOM      2  N   UNL     1      10.122  -0.936  -4.392  0.00  0.00    -0.207 NA
ATOM      3  C   UNL     1      11.249  -0.242  -4.267  0.00  0.00    +0.127 A 
ATOM      4  C   UNL     1      11.786  -0.045  -2.994  0.00  0.00    +0.083 A 
ATOM      5  C   UNL     1      11.120  -0.582  -1.906  0.00  0.00    +0.135 A 
ATOM      6  N   UNL     1       9.997  -1.259  -2.104  0.00  0.00    -0.210 NA
ATOM      7 CL   UNL     1      11.744  -0.365  -0.301  0.00  0.00    -0.062 Cl
ATOM      8  N   UNL     1      11.882   0.277  -5.385  0.00  0.00    -0.312 N 
ATOM      9  C   UNL     1      11.213   0.271  -6.693  0.00  0.00    +0.125 C 
ATOM     10  C   UNL     1      11.186   1.706  -7.236  0.00  0.00    +0.126 C 
ATOM     11  N   UNL     1      12.539   2.272  -7.134  0.00  0.00    -0.298 N 
ATOM     12  C   UNL     1      13.208   2.277  -5.825  0.00  0.00    +0.126 C 
ATOM     13  C   UNL     1      13.232   0.848  -5.282  0.00  0.00    +0.125 C 
ATOM     14  C   UNL     1      13.155   2.776  -8.221  0.00  0.00    +0.221 C 
ATOM     15  O   UNL     1      12.556   2.862  -9.272  0.00  0.00    -0.275 OA
ENDROOT
BRANCH  14  16
ATOM     16  C   UNL     1      14.587   3.235  -8.130  0.00  0.00    +0.039 C 
ATOM     17  C   UNL     1      15.066   3.687  -9.512  0.00  0.00    +0.020 C 
ATOM     18  C   UNL     1      14.687   4.404  -7.149  0.00  0.00    +0.020 C 
ATOM     19  C   UNL     1      15.463   2.080  -7.639  0.00  0.00    +0.020 C 
ENDBRANCH  14  16
BRANCH   1  20
ATOM     20  S   UNL     1       8.021  -2.347  -3.535  0.00  0.00    -0.077 S 
BRANCH  20  21
ATOM     21  C   UNL     1       7.552  -2.816  -1.847  0.00  0.00    +0.173 C 
BRANCH  21  23
ATOM     22  N   UNL     1       5.732  -4.071  -0.738  0.00  0.00    -0.312 N 
ATOM     23  C   UNL     1       6.274  -3.613  -1.883  0.00  0.00    +0.224 C 
ATOM     24  O   UNL     1       5.732  -3.842  -2.944  0.00  0.00    -0.275 OA
ATOM     25  H   UNL     1       6.165  -3.888   0.111  0.00  0.00    +0.149 HD
BRANCH  22  26
ATOM     26  C   UNL     1       4.489  -4.846  -0.773  0.00  0.00    +0.070 C 
ATOM     27  C   UNL     1       4.813  -6.318  -1.037  0.00  0.00    +0.028 C 
BRANCH  26  28
ATOM     28  C   UNL     1       3.768  -4.715   0.570  0.00  0.00    +0.020 C 
BRANCH  28  29
ATOM     29  C   UNL     1       3.334  -3.262   0.776  0.00  0.00    -0.017 C 
BRANCH  29  30
ATOM     30  C   UNL     1       2.613  -3.132   2.119  0.00  0.00    -0.079 C 
BRANCH  30  31
ATOM     31  N   UNL     1       2.196  -1.737   2.317  0.00  0.00    +0.379 N 
ATOM     32  H   UNL     1       2.998  -1.131   2.231  0.00  0.00    -0.082 HD
BRANCH  31  34
ATOM     33  C   UNL     1       0.856   0.111   1.430  0.00  0.00    -0.017 C 
ATOM     34  C   UNL     1       1.197  -1.375   1.303  0.00  0.00    -0.082 C 
ENDBRANCH  31  34
BRANCH  31  35
ATOM     35  C   UNL     1       1.611  -1.586   3.656  0.00  0.00    -0.082 C 
ATOM     36  C   UNL     1       2.687  -1.838   4.714  0.00  0.00    -0.017 C 
ENDBRANCH  31  35
ENDBRANCH  30  31
ENDBRANCH  29  30
ENDBRANCH  28  29
ENDBRANCH  26  28
ENDBRANCH  22  26
ENDBRANCH  21  23
ENDBRANCH  20  21
ENDBRANCH   1  20
TORSDOF 11
