REMARK  Name = ZINC36493999
REMARK  14 active torsions:
REMARK  status: ('A' for Active; 'I' for Inactive)
REMARK    1  A    between atoms: C_1  and  C_2
REMARK    2  A    between atoms: C_2  and  C_3
REMARK    3  A    between atoms: C_3  and  C_4
REMARK    4  A    between atoms: C_4  and  N_5
REMARK    5  A    between atoms: C_6  and  C_8
REMARK    6  A    between atoms: C_8  and  C_10
REMARK    7  A    between atoms: C_8  and  N_17
REMARK    8  A    between atoms: C_13  and  O_16
REMARK    9  A    between atoms: N_17  and  C_18
REMARK   10  A    between atoms: C_18  and  C_19
REMARK   11  A    between atoms: C_24  and  C_26
REMARK   12  A    between atoms: C_32  and  O_34
REMARK   13  A    between atoms: O_34  and  C_35
REMARK   14  A    between atoms: C_35  and  C_36
REMARK                            x       y       z     vdW  Elec       q    Type
REMARK                         _______ _______ _______ _____ _____    ______ ____
ROOT
ATOM      1  N   UNL     1       1.851  -5.769  -4.925  0.00  0.00    -0.277 N 
ATOM      2  C   UNL     1       0.720  -6.495  -5.033  0.00  0.00    +0.237 C 
ATOM      3  O   UNL     1      -0.347  -5.938  -5.181  0.00  0.00    -0.274 OA
ENDROOT
BRANCH   2   4
ATOM      4  C   UNL     1       0.782  -8.000  -4.970  0.00  0.00    +0.165 C 
ATOM      5  C   UNL     1       0.431  -8.480  -3.546  0.00  0.00    +0.033 C 
ATOM      6  C   UNL     1      -0.405  -9.760  -3.807  0.00  0.00    +0.021 C 
ATOM      7  C   UNL     1      -1.174  -9.372  -5.095  0.00  0.00    +0.112 C 
ATOM      8  N   UNL     1      -0.210  -8.580  -5.886  0.00  0.00    -0.256 N 
ATOM      9  C   UNL     1      -0.235  -8.415  -7.223  0.00  0.00    +0.404 C 
ATOM     10  O   UNL     1       0.613  -7.736  -7.768  0.00  0.00    -0.226 OA
BRANCH   9  11
ATOM     11  O   UNL     1      -1.201  -9.001  -7.956  0.00  0.00    -0.445 OA
BRANCH  11  12
ATOM     12  C   UNL     1      -1.167  -8.783  -9.368  0.00  0.00    +0.269 C 
BRANCH  12  13
ATOM     13  C   UNL     1      -2.315  -9.511 -10.017  0.00  0.00    -0.010 A 
ATOM     14  C   UNL     1      -2.154 -10.816 -10.442  0.00  0.00    +0.007 A 
ATOM     15  C   UNL     1      -3.208 -11.485 -11.038  0.00  0.00    +0.000 A 
ATOM     16  C   UNL     1      -4.423 -10.848 -11.207  0.00  0.00    +0.000 A 
ATOM     17  C   UNL     1      -4.584  -9.543 -10.781  0.00  0.00    +0.000 A 
ATOM     18  C   UNL     1      -3.532  -8.876 -10.181  0.00  0.00    +0.007 A 
ENDBRANCH  12  13
ENDBRANCH  11  12
ENDBRANCH   9  11
ENDBRANCH   2   4
BRANCH   1  19
ATOM     19  C   UNL     1       1.779  -4.307  -4.858  0.00  0.00    +0.193 C 
BRANCH  19  20
ATOM     20  C   UNL     1       2.413  -3.716  -6.091  0.00  0.00    -0.018 A 
ATOM     21  C   UNL     1       3.779  -3.820  -6.281  0.00  0.00    +0.009 A 
ATOM     22  C   UNL     1       4.363  -3.279  -7.410  0.00  0.00    +0.046 A 
ATOM     23  C   UNL     1       3.578  -2.631  -8.353  0.00  0.00    +0.117 A 
ATOM     24  C   UNL     1       2.208  -2.529  -8.159  0.00  0.00    +0.046 A 
ATOM     25  C   UNL     1       1.628  -3.076  -7.032  0.00  0.00    +0.009 A 
BRANCH  23  26
ATOM     26  O   UNL     1       4.151  -2.097  -9.464  0.00  0.00    -0.507 OA
ATOM     27  H   UNL     1       4.199  -2.707 -10.213  0.00  0.00    +0.292 HD
ENDBRANCH  23  26
ENDBRANCH  19  20
BRANCH  19  29
ATOM     28  N   UNL     1       2.494  -2.516  -3.310  0.00  0.00    -0.313 N 
ATOM     29  C   UNL     1       2.513  -3.824  -3.634  0.00  0.00    +0.238 C 
ATOM     30  O   UNL     1       3.120  -4.612  -2.941  0.00  0.00    -0.273 OA
ATOM     31  H   UNL     1       2.008  -1.886  -3.865  0.00  0.00    +0.149 HD
BRANCH  28  32
ATOM     32  C   UNL     1       3.207  -2.046  -2.120  0.00  0.00    +0.104 C 
BRANCH  32  33
ATOM     33  C   UNL     1       3.027  -0.533  -1.982  0.00  0.00    +0.018 C 
BRANCH  33  35
ATOM     34  C   UNL     1       3.591   1.471  -0.600  0.00  0.00    +0.004 C 
ATOM     35  C   UNL     1       3.772  -0.042  -0.739  0.00  0.00    -0.002 C 
ENDBRANCH  33  35
ENDBRANCH  32  33
ENDBRANCH  28  32
ENDBRANCH  19  29
ENDBRANCH   1  19
BRANCH   1  36
ATOM     36  C   UNL     1       3.151  -6.442  -4.875  0.00  0.00    +0.183 C 
BRANCH  36  37
ATOM     37  C   UNL     1       3.564  -6.843  -6.267  0.00  0.00    +0.122 A 
ATOM     38  C   UNL     1       4.697  -6.471  -6.890  0.00  0.00    +0.046 A 
ATOM     39  C   UNL     1       4.676  -7.072  -8.170  0.00  0.00    +0.041 A 
ATOM     40  C   UNL     1       3.532  -7.774  -8.253  0.00  0.00    +0.195 A 
ATOM     41  O   UNL     1       2.865  -7.637  -7.095  0.00  0.00    -0.466 OA
ENDBRANCH  36  37
ENDBRANCH   1  36
TORSDOF 13
