REMARK  Name = ZINC36743251
REMARK  4 active torsions:
REMARK  status: ('A' for Active; 'I' for Inactive)
REMARK    1  A    between atoms: C_4  and  N_8
REMARK    2  A    between atoms: C_6  and  N_7
REMARK    3  A    between atoms: N_8  and  S_9
REMARK    4  A    between atoms: S_9  and  N_12
REMARK                            x       y       z     vdW  Elec       q    Type
REMARK                         _______ _______ _______ _____ _____    ______ ____
ROOT
ATOM      1  C   UNL     1      -0.023   1.372   0.059  0.00  0.00    +0.024 A 
ATOM      2  C   UNL     1       0.003  -0.009   0.005  0.00  0.00    +0.024 A 
ATOM      3  C   UNL     1       1.211  -0.679  -0.027  0.00  0.00    +0.066 A 
ATOM      4  C   UNL     1       2.404   0.034  -0.005  0.00  0.00    +0.095 A 
ATOM      5  C   UNL     1       2.381   1.420   0.049  0.00  0.00    +0.051 A 
ATOM      6  C   UNL     1       1.166   2.091   0.081  0.00  0.00    +0.026 A 
ATOM      7 CL   UNL     1       1.239  -2.414  -0.094  0.00  0.00    -0.082 Cl
ENDROOT
BRANCH   6   8
ATOM      8  N   UNL     1       1.138   3.486   0.135  0.00  0.00    -0.358 N 
ATOM      9  H   UNL     1       0.289   3.954   0.157  0.00  0.00    +0.142 HD
ATOM     10  H   UNL     1       1.969   3.988   0.151  0.00  0.00    +0.142 HD
ENDBRANCH   6   8
BRANCH   4  11
ATOM     11  N   UNL     1       3.626  -0.644  -0.036  0.00  0.00    -0.086 NA
BRANCH  11  12
ATOM     12  S   UNL     1       5.041   0.205  -0.171  0.00  0.00    +0.131 S 
ATOM     13  O   UNL     1       4.987   0.891  -1.414  0.00  0.00    -0.136 OA
ATOM     14  O   UNL     1       5.228   0.881   1.065  0.00  0.00    -0.136 OA
BRANCH  12  15
ATOM     15  N   UNL     1       6.266  -0.902  -0.295  0.00  0.00    -0.162 NA
ATOM     16  C   UNL     1       6.939  -1.412   0.908  0.00  0.00    +0.111 C 
ATOM     17  C   UNL     1       6.893  -2.943   0.886  0.00  0.00    +0.017 C 
ATOM     18  C   UNL     1       7.490  -3.449  -0.429  0.00  0.00    +0.003 C 
ATOM     19  C   UNL     1       6.659  -2.925  -1.603  0.00  0.00    +0.017 C 
ATOM     20  C   UNL     1       6.698  -1.398  -1.609  0.00  0.00    +0.111 C 
ENDBRANCH  12  15
ENDBRANCH  11  12
ENDBRANCH   4  11
TORSDOF 4
