REMARK  Name = ZINC06443995
REMARK  13 active torsions:
REMARK  status: ('A' for Active; 'I' for Inactive)
REMARK    1  A    between atoms: C_1  and  C_2
REMARK    2  A    between atoms: C_12  and  C_14
REMARK    3  A    between atoms: C_14  and  C_16
REMARK    4  A    between atoms: C_14  and  N_67
REMARK    5  A    between atoms: N_20  and  C_21
REMARK    6  A    between atoms: C_21  and  C_22
REMARK    7  A    between atoms: C_22  and  O_23
REMARK    8  A    between atoms: O_23  and  C_24
REMARK    9  A    between atoms: C_25  and  C_26
REMARK   10  A    between atoms: C_25  and  N_67
REMARK   11  A    between atoms: C_26  and  C_27
REMARK   12  A    between atoms: C_33  and  C_34
REMARK   13  A    between atoms: C_33  and  N_67
REMARK                            x       y       z     vdW  Elec       q    Type
REMARK                         _______ _______ _______ _____ _____    ______ ____
ROOT
ATOM      1  C   UNL     1       0.085  -2.800   5.049  0.00  0.00    +0.039 C 
ENDROOT
BRANCH   1  13
ATOM      2  C   UNL     1       0.522   0.710  -0.491  0.00  0.00    +0.046 C 
ATOM      3  C   UNL     1       0.151  -0.732  -0.253  0.00  0.00    -0.026 A 
ATOM      4  C   UNL     1      -0.178  -1.546  -1.315  0.00  0.00    +0.005 A 
ATOM      5  C   UNL     1      -0.516  -2.877  -1.109  0.00  0.00    +0.001 A 
ATOM      6  C   UNL     1      -0.541  -3.401   0.153  0.00  0.00    +0.010 A 
ATOM      7  C   UNL     1      -0.216  -2.591   1.246  0.00  0.00    -0.001 A 
ATOM      8  C   UNL     1       0.133  -1.243   1.041  0.00  0.00    +0.052 A 
ATOM      9  N   UNL     1       0.452  -0.449   2.122  0.00  0.00    -0.322 N 
ATOM     10  H   UNL     1       0.693   0.480   1.979  0.00  0.00    +0.169 HD
ATOM     11  C   UNL     1       0.435  -0.944   3.372  0.00  0.00    +0.251 A 
ATOM     12  O   UNL     1       0.722  -0.213   4.304  0.00  0.00    -0.268 OA
ATOM     13  C   UNL     1       0.091  -2.288   3.632  0.00  0.00    +0.011 A 
ATOM     14  C   UNL     1      -0.232  -3.120   2.611  0.00  0.00    +0.017 A 
ENDBRANCH   1  13
BRANCH   1  15
ATOM     15  C   UNL     1      -1.078  -2.199   5.795  0.00  0.00    +0.143 A 
ATOM     16  N   UNL     1      -1.169  -0.970   6.243  0.00  0.00    -0.115 NA
ATOM     17  N   UNL     1      -2.312  -0.842   6.824  0.00  0.00    -0.023 NA
ATOM     18  N   UNL     1      -2.953  -1.957   6.758  0.00  0.00    -0.044 NA
ATOM     19  N   UNL     1      -2.227  -2.817   6.126  0.00  0.00    -0.228 N 
BRANCH  19  20
ATOM     20  C   UNL     1      -2.585  -4.206   5.828  0.00  0.00    +0.175 C 
BRANCH  20  21
ATOM     21  C   UNL     1      -2.124  -5.108   6.975  0.00  0.00    +0.183 C 
BRANCH  21  22
ATOM     22  O   UNL     1      -2.473  -6.463   6.685  0.00  0.00    -0.381 OA
ATOM     23  C   UNL     1      -2.086  -7.393   7.698  0.00  0.00    +0.194 C 
ENDBRANCH  21  22
ENDBRANCH  20  21
ENDBRANCH  19  20
ENDBRANCH   1  15
BRANCH   1  24
ATOM     24  N   UNL     1       1.346  -2.396   5.706  0.00  0.00    +0.392 N 
ATOM     25  H   UNL     1       1.538  -1.413   5.481  0.00  0.00    -0.080 HD
BRANCH  24  26
ATOM     26  C   UNL     1       1.220  -2.537   7.172  0.00  0.00    -0.072 C 
BRANCH  26  27
ATOM     27  C   UNL     1       2.445  -1.906   7.836  0.00  0.00    +0.016 C 
BRANCH  27  28
ATOM     28  C   UNL     1       2.321  -2.023   9.333  0.00  0.00    -0.049 A 
ATOM     29  C   UNL     1       1.706  -1.018  10.056  0.00  0.00    +0.003 A 
ATOM     30  C   UNL     1       1.588  -1.128  11.429  0.00  0.00    +0.000 A 
ATOM     31  C   UNL     1       2.095  -2.238  12.080  0.00  0.00    +0.000 A 
ATOM     32  C   UNL     1       2.715  -3.240  11.357  0.00  0.00    +0.000 A 
ATOM     33  C   UNL     1       2.828  -3.132   9.984  0.00  0.00    +0.003 A 
ENDBRANCH  27  28
ENDBRANCH  26  27
ENDBRANCH  24  26
BRANCH  24  34
ATOM     34  C   UNL     1       2.462  -3.228   5.212  0.00  0.00    -0.034 C 
BRANCH  34  35
ATOM     35  C   UNL     1       2.918  -2.685   3.882  0.00  0.00    -0.027 A 
ATOM     36  C   UNL     1       3.736  -1.635   3.624  0.00  0.00    +0.009 A 
ATOM     37  C   UNL     1       4.020  -1.314   2.310  0.00  0.00    +0.008 A 
ATOM     38  C   UNL     1       3.472  -2.057   1.319  0.00  0.00    +0.045 A 
ATOM     39  S   UNL     1       2.526  -3.260   2.238  0.00  0.00    -0.103 S 
ENDBRANCH  34  35
ENDBRANCH  24  34
ENDBRANCH   1  24
TORSDOF 11
