REMARK  Name = ZINC40357630
REMARK  11 active torsions:
REMARK  status: ('A' for Active; 'I' for Inactive)
REMARK    1  A    between atoms: C_1  and  C_2
REMARK    2  A    between atoms: C_2  and  C_4
REMARK    3  A    between atoms: C_2  and  C_18
REMARK    4  A    between atoms: C_4  and  C_5
REMARK    5  A    between atoms: N_7  and  C_8
REMARK    6  A    between atoms: C_8  and  C_15
REMARK    7  A    between atoms: C_15  and  N_17
REMARK    8  A    between atoms: C_18  and  C_19
REMARK    9  A    between atoms: C_19  and  C_20
REMARK   10  A    between atoms: C_19  and  C_21
REMARK   11  A    between atoms: C_19  and  C_22
REMARK                            x       y       z     vdW  Elec       q    Type
REMARK                         _______ _______ _______ _____ _____    ______ ____
ROOT
ATOM      1  C   UNL     1       0.019  -0.147  -2.434  0.00  0.00    +0.214 C 
ATOM      2  O   UNL     1      -0.892   0.646  -2.323  0.00  0.00    -0.276 OA
ATOM      3  N   UNL     1       0.334  -0.646  -3.646  0.00  0.00    -0.304 N 
ATOM      4  H   UNL     1       1.009  -1.338  -3.725  0.00  0.00    +0.150 HD
ENDROOT
BRANCH   3   5
ATOM      5  C   UNL     1      -0.344  -0.144  -4.844  0.00  0.00    +0.079 C 
ATOM      6  C   UNL     1       0.281  -0.751  -6.070  0.00  0.00    +0.032 C 
ATOM      7  C   UNL     1       1.745  -1.173  -5.838  0.00  0.00    +0.002 C 
ATOM      8  C   UNL     1       2.543  -0.138  -5.022  0.00  0.00    +0.000 C 
ATOM      9  C   UNL     1       2.244   1.277  -5.439  0.00  0.00    +0.000 C 
ATOM     10  C   UNL     1       1.136   1.834  -4.522  0.00  0.00    +0.002 C 
ATOM     11  C   UNL     1      -0.191   1.388  -4.922  0.00  0.00    +0.032 C 
BRANCH   5  12
ATOM     12  C   UNL     1      -1.807  -0.504  -4.786  0.00  0.00    +0.070 C 
ATOM     13  S   UNL     1      -2.915   0.593  -5.139  0.00  0.00    -0.038 S 
BRANCH  12  14
ATOM     14  N   UNL     1      -2.180  -1.751  -4.436  0.00  0.00    -0.354 N 
ATOM     15  H   UNL     1      -1.514  -2.395  -4.151  0.00  0.00    +0.143 HD
ATOM     16  H   UNL     1      -3.116  -2.004  -4.468  0.00  0.00    +0.143 HD
ENDBRANCH  12  14
ENDBRANCH   5  12
ENDBRANCH   3   5
BRANCH   1  17
ATOM     17  C   UNL     1       0.799  -0.574  -1.217  0.00  0.00    +0.099 C 
BRANCH  17  19
ATOM     18  C   UNL     1       0.481   1.641  -0.106  0.00  0.00    +0.008 C 
ATOM     19  C   UNL     1       0.243   0.135   0.019  0.00  0.00    -0.005 C 
BRANCH  19  20
ATOM     20  C   UNL     1       0.950  -0.391   1.270  0.00  0.00    +0.010 C 
BRANCH  20  21
ATOM     21  C   UNL     1       0.077  -0.129   2.498  0.00  0.00    -0.037 C 
ATOM     22  C   UNL     1      -1.209  -0.952   2.395  0.00  0.00    +0.010 C 
ATOM     23  C   UNL     1       0.840  -0.531   3.762  0.00  0.00    +0.010 C 
ATOM     24  C   UNL     1      -0.275   1.359   2.567  0.00  0.00    +0.010 C 
ENDBRANCH  20  21
ENDBRANCH  19  20
ENDBRANCH  17  19
ENDBRANCH   1  17
TORSDOF 7
