REMARK  Name = ZINC36548773
REMARK  12 active torsions:
REMARK  status: ('A' for Active; 'I' for Inactive)
REMARK    1  A    between atoms: C_1  and  C_2
REMARK    2  A    between atoms: C_5  and  S_8
REMARK    3  A    between atoms: S_8  and  C_11
REMARK    4  A    between atoms: C_11  and  N_12
REMARK    5  A    between atoms: C_13  and  C_15
REMARK    6  A    between atoms: C_15  and  C_17
REMARK    7  A    between atoms: C_15  and  N_25
REMARK    8  A    between atoms: C_21  and  O_23
REMARK    9  A    between atoms: O_23  and  C_24
REMARK   10  A    between atoms: N_25  and  C_26
REMARK   11  A    between atoms: C_33  and  C_35
REMARK   12  A    between atoms: C_35  and  C_37
REMARK                            x       y       z     vdW  Elec       q    Type
REMARK                         _______ _______ _______ _____ _____    ______ ____
ROOT
ATOM      1  C   UNL     1       3.354  -5.428   3.778  0.00  0.00    +0.198 C 
ENDROOT
BRANCH   1   2
ATOM      2  C   UNL     1       2.545  -4.517   4.665  0.00  0.00    -0.014 A 
ATOM      3  C   UNL     1       1.784  -5.049   5.690  0.00  0.00    +0.006 A 
ATOM      4  C   UNL     1       1.040  -4.216   6.505  0.00  0.00    +0.004 A 
ATOM      5  C   UNL     1       1.056  -2.850   6.297  0.00  0.00    +0.045 A 
ATOM      6  C   UNL     1       1.818  -2.314   5.270  0.00  0.00    +0.120 A 
ATOM      7  C   UNL     1       2.568  -3.152   4.457  0.00  0.00    +0.051 A 
BRANCH   6   8
ATOM      8  O   UNL     1       1.835  -0.971   5.064  0.00  0.00    -0.495 OA
ATOM      9  C   UNL     1       1.043  -0.170   5.943  0.00  0.00    +0.277 C 
ENDBRANCH   6   8
ENDBRANCH   1   2
BRANCH   1  11
ATOM     10  N   UNL     1       1.641  -6.111   2.129  0.00  0.00    -0.294 N 
ATOM     11  C   UNL     1       2.447  -6.456   3.153  0.00  0.00    +0.240 C 
ATOM     12  O   UNL     1       2.442  -7.595   3.571  0.00  0.00    -0.273 OA
ATOM     13  H   UNL     1       1.645  -5.200   1.795  0.00  0.00    +0.150 HD
BRANCH  10  14
ATOM     14  C   UNL     1       0.759  -7.111   1.522  0.00  0.00    +0.278 C 
BRANCH  14  15
ATOM     15  S   UNL     1      -0.884  -7.009   2.282  0.00  0.00    +0.013 S 
ATOM     16  O   UNL     1      -0.767  -6.962   3.697  0.00  0.00    -0.168 OA
ATOM     17  O   UNL     1      -1.769  -7.930   1.659  0.00  0.00    -0.168 OA
BRANCH  15  22
ATOM     18  C   UNL     1      -2.982  -1.569   0.729  0.00  0.00    +0.044 C 
ATOM     19  C   UNL     1      -2.458  -2.928   1.117  0.00  0.00    -0.050 A 
ATOM     20  C   UNL     1      -2.703  -4.020   0.306  0.00  0.00    +0.005 A 
ATOM     21  C   UNL     1      -2.222  -5.267   0.662  0.00  0.00    +0.027 A 
ATOM     22  C   UNL     1      -1.496  -5.420   1.828  0.00  0.00    +0.090 A 
ATOM     23  C   UNL     1      -1.250  -4.328   2.638  0.00  0.00    +0.027 A 
ATOM     24  C   UNL     1      -1.727  -3.080   2.280  0.00  0.00    +0.005 A 
ENDBRANCH  15  22
ENDBRANCH  14  15
ENDBRANCH  10  14
ENDBRANCH   1  11
BRANCH   1  25
ATOM     25  N   UNL     1       4.380  -6.103   4.577  0.00  0.00    -0.250 N 
ATOM     26  C   UNL     1       5.446  -6.663   3.972  0.00  0.00    +0.247 C 
ATOM     27  O   UNL     1       5.610  -6.520   2.775  0.00  0.00    -0.270 OA
BRANCH  25  28
ATOM     28  C   UNL     1       4.253  -6.166   5.969  0.00  0.00    +0.056 A 
ATOM     29  C   UNL     1       3.540  -7.203   6.556  0.00  0.00    +0.025 A 
ATOM     30  C   UNL     1       3.417  -7.263   7.931  0.00  0.00    +0.002 A 
ATOM     31  C   UNL     1       4.002  -6.291   8.722  0.00  0.00    +0.002 A 
ATOM     32  C   UNL     1       4.712  -5.257   8.142  0.00  0.00    +0.022 A 
ATOM     33  C   UNL     1       4.845  -5.194   6.767  0.00  0.00    +0.062 A 
ATOM     34 CL   UNL     1       5.743  -3.900   6.038  0.00  0.00    -0.082 Cl
ENDBRANCH  25  28
BRANCH  26  35
ATOM     35  C   UNL     1       6.410  -7.447   4.758  0.00  0.00    +0.005 C 
ATOM     36  C   UNL     1       7.536  -7.876   4.194  0.00  0.00    +0.017 C 
ATOM     37  C   UNL     1       6.122  -7.766   6.202  0.00  0.00    +0.048 C 
ENDBRANCH  26  35
ENDBRANCH   1  25
TORSDOF 9
