REMARK  Name = ZINC12170588
REMARK  12 active torsions:
REMARK  status: ('A' for Active; 'I' for Inactive)
REMARK    1  A    between atoms: C_1  and  C_2
REMARK    2  A    between atoms: C_2  and  C_3
REMARK    3  A    between atoms: C_2  and  C_4
REMARK    4  A    between atoms: C_2  and  C_5
REMARK    5  A    between atoms: C_8  and  O_11
REMARK    6  A    between atoms: O_11  and  C_12
REMARK    7  A    between atoms: C_12  and  C_13
REMARK    8  A    between atoms: C_13  and  C_15
REMARK    9  A    between atoms: C_13  and  O_38
REMARK   10  A    between atoms: C_15  and  N_16
REMARK   11  A    between atoms: C_19  and  C_22
REMARK   12  A    between atoms: C_22  and  N_23
REMARK                            x       y       z     vdW  Elec       q    Type
REMARK                         _______ _______ _______ _____ _____    ______ ____
ROOT
ATOM      1  N   UNL     1      -1.669   3.976   0.148  0.00  0.00    +0.381 N 
ATOM      2  C   UNL     1      -0.836   3.414  -0.923  0.00  0.00    -0.078 C 
ATOM      3  C   UNL     1      -0.903   1.886  -0.874  0.00  0.00    -0.014 C 
ATOM      4  C   UNL     1      -0.406   1.401   0.491  0.00  0.00    +0.003 C 
ATOM      5  C   UNL     1      -1.259   2.039   1.592  0.00  0.00    -0.014 C 
ATOM      6  C   UNL     1      -1.183   3.563   1.471  0.00  0.00    -0.078 C 
ATOM      7  H   UNL     1      -2.687   3.577   0.025  0.00  0.00    -0.082 HD
ENDROOT
BRANCH   1   8
ATOM      8  C   UNL     1      -1.740   5.440   0.047  0.00  0.00    -0.044 C 
BRANCH   8   9
ATOM      9  C   UNL     1      -2.684   5.827  -1.093  0.00  0.00    +0.135 C 
BRANCH   9  10
ATOM     10  O   UNL     1      -4.001   5.358  -0.800  0.00  0.00    -0.390 OA
ATOM     11  H   UNL     1      -4.183   4.282  -0.659  0.00  0.00    +0.210 HD
ENDBRANCH   9  10
BRANCH   9  12
ATOM     12  C   UNL     1      -2.706   7.350  -1.242  0.00  0.00    +0.258 C 
BRANCH  12  13
ATOM     13  O   UNL     1      -3.495   7.706  -2.378  0.00  0.00    -0.489 OA
BRANCH  13  17
ATOM     14  C   UNL     1      -3.869  11.729  -3.213  0.00  0.00    -0.042 A 
ATOM     15  C   UNL     1      -4.494  10.796  -4.020  0.00  0.00    +0.008 A 
ATOM     16  C   UNL     1      -4.370   9.448  -3.742  0.00  0.00    +0.046 A 
ATOM     17  C   UNL     1      -3.618   9.031  -2.653  0.00  0.00    +0.121 A 
ATOM     18  C   UNL     1      -2.997   9.970  -1.842  0.00  0.00    +0.046 A 
ATOM     19  C   UNL     1      -3.119  11.316  -2.127  0.00  0.00    +0.008 A 
BRANCH  14  21
ATOM     20  C   UNL     1      -5.482  13.595  -3.467  0.00  0.00    +0.015 C 
ATOM     21  C   UNL     1      -4.005  13.198  -3.518  0.00  0.00    -0.013 C 
ATOM     22  C   UNL     1      -3.224  14.009  -2.482  0.00  0.00    +0.015 C 
ATOM     23  C   UNL     1      -3.448  13.483  -4.914  0.00  0.00    +0.015 C 
ENDBRANCH  14  21
ENDBRANCH  13  17
ENDBRANCH  12  13
ENDBRANCH   9  12
ENDBRANCH   8   9
ENDBRANCH   1   8
BRANCH   4  24
ATOM     24  C   UNL     1      -0.528  -0.122   0.568  0.00  0.00    +0.120 C 
BRANCH  24  25
ATOM     25  N   UNL     1       0.054  -0.595   1.826  0.00  0.00    -0.234 N 
ATOM     26  C   UNL     1       1.360  -0.920   1.855  0.00  0.00    +0.254 C 
ATOM     27  O   UNL     1       2.031  -0.817   0.846  0.00  0.00    -0.270 OA
ATOM     28  C   UNL     1       1.981  -1.395   3.101  0.00  0.00    +0.046 A 
ATOM     29  C   UNL     1       3.323  -1.734   3.177  0.00  0.00    +0.014 A 
ATOM     30  C   UNL     1       3.863  -2.182   4.377  0.00  0.00    +0.001 A 
ATOM     31  C   UNL     1       3.102  -2.300   5.504  0.00  0.00    +0.008 A 
ATOM     32  C   UNL     1       1.737  -1.966   5.470  0.00  0.00    -0.016 A 
ATOM     33  C   UNL     1       1.177  -1.510   4.258  0.00  0.00    +0.006 A 
ATOM     34  C   UNL     1      -0.192  -1.166   4.191  0.00  0.00    +0.046 A 
ATOM     35  C   UNL     1      -0.972  -1.282   5.332  0.00  0.00    +0.014 A 
ATOM     36  C   UNL     1      -0.409  -1.733   6.520  0.00  0.00    +0.001 A 
ATOM     37  C   UNL     1       0.912  -2.070   6.603  0.00  0.00    +0.008 A 
ATOM     38  C   UNL     1      -0.739  -0.694   2.910  0.00  0.00    +0.254 C 
ATOM     39  O   UNL     1      -1.915  -0.393   2.829  0.00  0.00    -0.270 OA
ENDBRANCH  24  25
ENDBRANCH   4  24
TORSDOF 9
