REMARK  Name = ZINC13031114
REMARK  11 active torsions:
REMARK  status: ('A' for Active; 'I' for Inactive)
REMARK    1  A    between atoms: C_1  and  C_2
REMARK    2  A    between atoms: C_2  and  C_3
REMARK    3  A    between atoms: C_2  and  C_4
REMARK    4  A    between atoms: C_4  and  C_5
REMARK    5  A    between atoms: C_5  and  N_6
REMARK    6  A    between atoms: C_7  and  C_9
REMARK    7  A    between atoms: C_9  and  C_11
REMARK    8  A    between atoms: C_9  and  N_17
REMARK    9  A    between atoms: N_17  and  C_18
REMARK   10  A    between atoms: C_28  and  C_30
REMARK   11  A    between atoms: C_30  and  N_31
REMARK                            x       y       z     vdW  Elec       q    Type
REMARK                         _______ _______ _______ _____ _____    ______ ____
ROOT
ATOM      1  N   UNL     1      -5.301   3.078  -1.666  0.00  0.00    -0.253 N 
ATOM      2  C   UNL     1      -4.000   3.429  -1.637  0.00  0.00    +0.242 C 
ATOM      3  O   UNL     1      -3.478   3.904  -2.624  0.00  0.00    -0.273 OA
ENDROOT
BRANCH   1   4
ATOM      4  C   UNL     1      -5.902   2.532  -0.530  0.00  0.00    +0.045 A 
ATOM      5  C   UNL     1      -6.478   3.353   0.414  0.00  0.00    +0.024 A 
ATOM      6  C   UNL     1      -7.080   2.819   1.550  0.00  0.00    +0.002 A 
ATOM      7  C   UNL     1      -7.117   1.474   1.759  0.00  0.00    +0.008 A 
ATOM      8  C   UNL     1      -6.540   0.602   0.820  0.00  0.00    -0.016 A 
ATOM      9  C   UNL     1      -5.930   1.134  -0.343  0.00  0.00    +0.004 A 
ATOM     10  C   UNL     1      -5.351   0.262  -1.278  0.00  0.00    +0.010 A 
ATOM     11  C   UNL     1      -5.391  -1.082  -1.062  0.00  0.00    +0.001 A 
ATOM     12  C   UNL     1      -5.996  -1.607   0.079  0.00  0.00    +0.001 A 
ATOM     13  C   UNL     1      -6.563  -0.791   1.010  0.00  0.00    +0.008 A 
ENDBRANCH   1   4
BRANCH   1  14
ATOM     14  C   UNL     1      -6.085   3.270  -2.889  0.00  0.00    +0.197 C 
BRANCH  14  15
ATOM     15  C   UNL     1      -7.451   2.659  -2.711  0.00  0.00    -0.015 A 
ATOM     16  C   UNL     1      -8.350   3.183  -1.795  0.00  0.00    +0.025 A 
ATOM     17  C   UNL     1      -9.595   2.598  -1.663  0.00  0.00    +0.111 A 
ATOM     18  N   UNL     1      -9.927   1.549  -2.388  0.00  0.00    -0.263 NA
ATOM     19  C   UNL     1      -9.097   1.020  -3.265  0.00  0.00    +0.111 A 
ATOM     20  C   UNL     1      -7.836   1.554  -3.456  0.00  0.00    +0.025 A 
ENDBRANCH  14  15
BRANCH  14  22
ATOM     21  N   UNL     1      -6.914   5.162  -4.250  0.00  0.00    -0.313 N 
ATOM     22  C   UNL     1      -6.227   4.744  -3.168  0.00  0.00    +0.238 C 
ATOM     23  O   UNL     1      -5.723   5.554  -2.420  0.00  0.00    -0.273 OA
ATOM     24  H   UNL     1      -7.316   4.513  -4.849  0.00  0.00    +0.149 HD
BRANCH  21  25
ATOM     25  C   UNL     1      -7.052   6.595  -4.522  0.00  0.00    +0.104 C 
BRANCH  25  26
ATOM     26  C   UNL     1      -7.870   6.795  -5.799  0.00  0.00    +0.022 C 
BRANCH  26  28
ATOM     27  C   UNL     1      -8.724   8.490  -7.424  0.00  0.00    +0.007 C 
ATOM     28  C   UNL     1      -8.014   8.291  -6.083  0.00  0.00    -0.016 C 
ATOM     29  C   UNL     1      -8.835   8.945  -4.970  0.00  0.00    +0.007 C 
ENDBRANCH  26  28
ENDBRANCH  25  26
ENDBRANCH  21  25
ENDBRANCH  14  22
ENDBRANCH   1  14
BRANCH   2  30
ATOM     30  C   UNL     1      -3.194   3.232  -0.379  0.00  0.00    +0.242 C 
BRANCH  30  31
ATOM     31  N   UNL     1      -1.820   3.688  -0.604  0.00  0.00    -0.235 N 
ATOM     32  C   UNL     1      -0.768   2.933  -1.068  0.00  0.00    +0.090 A 
ATOM     33  C   UNL     1      -0.630   1.606  -1.460  0.00  0.00    +0.029 A 
ATOM     34  C   UNL     1       0.586   1.146  -1.882  0.00  0.00    +0.002 A 
ATOM     35  C   UNL     1       1.684   1.994  -1.932  0.00  0.00    +0.002 A 
ATOM     36  C   UNL     1       1.573   3.302  -1.558  0.00  0.00    +0.032 A 
ATOM     37  C   UNL     1       0.339   3.797  -1.116  0.00  0.00    +0.113 A 
ATOM     38  N   UNL     1      -0.069   5.010  -0.692  0.00  0.00    -0.129 NA
ATOM     39  N   UNL     1      -1.318   4.979  -0.387  0.00  0.00    -0.064 NA
ENDBRANCH  30  31
ENDBRANCH   2  30
TORSDOF 9
