REMARK  Name = ZINC53045633
REMARK  9 active torsions:
REMARK  status: ('A' for Active; 'I' for Inactive)
REMARK    1  A    between atoms: C_1  and  C_2
REMARK    2  A    between atoms: C_2  and  C_3
REMARK    3  A    between atoms: C_3  and  C_4
REMARK    4  A    between atoms: C_3  and  C_6
REMARK    5  A    between atoms: C_3  and  N_8
REMARK    6  A    between atoms: C_4  and  C_5
REMARK    7  A    between atoms: C_6  and  O_7
REMARK    8  A    between atoms: N_8  and  C_9
REMARK    9  A    between atoms: C_18  and  N_19
REMARK                            x       y       z     vdW  Elec       q    Type
REMARK                         _______ _______ _______ _____ _____    ______ ____
ROOT
ATOM      1  C   UNL     1       1.976   1.174   3.180  0.00  0.00    +0.059 A 
ATOM      2  C   UNL     1       1.783   2.249   2.284  0.00  0.00    +0.022 A 
ATOM      3  C   UNL     1       1.542   2.027   0.920  0.00  0.00    +0.027 A 
ATOM      4  C   UNL     1       1.360   3.090   0.086  0.00  0.00    +0.019 A 
ATOM      5  C   UNL     1       1.411   4.395   0.573  0.00  0.00    +0.017 A 
ATOM      6  C   UNL     1       1.642   4.645   1.890  0.00  0.00    +0.027 A 
ATOM      7  C   UNL     1       1.835   3.574   2.781  0.00  0.00    +0.048 A 
ATOM      8  N   UNL     1       2.063   3.794   4.080  0.00  0.00    -0.359 N 
ATOM      9  C   UNL     1       2.244   2.807   4.926  0.00  0.00    +0.107 A 
ATOM     10  C   UNL     1       2.204   1.475   4.518  0.00  0.00    +0.063 A 
ATOM     11 BR   UNL     1       1.036   2.790  -1.752  0.00  0.00    -0.050 Br
ATOM     12  H   UNL     1       2.095   4.707   4.406  0.00  0.00    +0.165 HD
ENDROOT
BRANCH  10  13
ATOM     13  N   UNL     1       2.395   0.445   5.451  0.00  0.00    -0.355 N 
ATOM     14  H   UNL     1       2.442  -0.477   5.152  0.00  0.00    +0.142 HD
ATOM     15  H   UNL     1       2.481   0.655   6.394  0.00  0.00    +0.142 HD
ENDBRANCH  10  13
BRANCH   1  16
ATOM     16  N   UNL     1       1.934  -0.145   2.738  0.00  0.00    -0.334 N 
ATOM     17  H   UNL     1       2.497  -0.815   3.157  0.00  0.00    +0.147 HD
BRANCH  16  18
ATOM     18  C   UNL     1       1.041  -0.521   1.640  0.00  0.00    +0.055 C 
BRANCH  18  20
ATOM     19  C   UNL     1      -0.445  -2.319   0.744  0.00  0.00    +0.006 C 
ATOM     20  C   UNL     1       0.487  -1.926   1.891  0.00  0.00    +0.024 C 
ENDBRANCH  18  20
BRANCH  18  21
ATOM     21  C   UNL     1       1.819  -0.508   0.322  0.00  0.00    +0.024 C 
ATOM     22  C   UNL     1       2.300  -1.924  -0.001  0.00  0.00    +0.006 C 
ENDBRANCH  18  21
BRANCH  18  23
ATOM     23  C   UNL     1      -0.116   0.476   1.559  0.00  0.00    +0.181 C 
BRANCH  23  24
ATOM     24  O   UNL     1      -1.321  -0.156   1.996  0.00  0.00    -0.393 OA
ATOM     25  H   UNL     1      -2.098   0.419   1.971  0.00  0.00    +0.209 HD
ENDBRANCH  23  24
ENDBRANCH  18  23
ENDBRANCH  16  18
ENDBRANCH   1  16
TORSDOF 7
