REMARK  Name = ZINC08372552
REMARK  10 active torsions:
REMARK  status: ('A' for Active; 'I' for Inactive)
REMARK    1  A    between atoms: C_1  and  C_2
REMARK    2  A    between atoms: C_5  and  C_8
REMARK    3  A    between atoms: C_8  and  N_9
REMARK    4  A    between atoms: N_9  and  C_10
REMARK    5  A    between atoms: C_10  and  N_12
REMARK    6  A    between atoms: N_12  and  N_13
REMARK    7  A    between atoms: C_14  and  C_16
REMARK    8  A    between atoms: C_16  and  C_17
REMARK    9  A    between atoms: C_16  and  C_23
REMARK   10  A    between atoms: C_16  and  O_29
REMARK                            x       y       z     vdW  Elec       q    Type
REMARK                         _______ _______ _______ _____ _____    ______ ____
ROOT
ATOM      1  N   UNL     1       1.690  -3.090  -3.986  0.00  0.00    -0.232 N 
ATOM      2  C   UNL     1       1.651  -3.717  -5.179  0.00  0.00    +0.270 C 
ATOM      3  O   UNL     1       1.999  -4.876  -5.267  0.00  0.00    -0.270 OA
ATOM      4  H   UNL     1       1.413  -2.164  -3.916  0.00  0.00    +0.173 HD
ENDROOT
BRANCH   1   5
ATOM      5  N   UNL     1       2.132  -3.777  -2.848  0.00  0.00    -0.246 N 
ATOM      6  H   UNL     1       2.410  -4.704  -2.918  0.00  0.00    +0.172 HD
BRANCH   5   7
ATOM      7  C   UNL     1       2.171  -3.151  -1.655  0.00  0.00    +0.147 C 
ATOM      8  S   UNL     1       2.710  -3.990  -0.264  0.00  0.00    -0.017 S 
BRANCH   7   9
ATOM      9  N   UNL     1       1.785  -1.863  -1.558  0.00  0.00    -0.321 N 
ATOM     10  H   UNL     1       1.479  -1.387  -2.346  0.00  0.00    +0.148 HD
BRANCH   9  11
ATOM     11  C   UNL     1       1.827  -1.182  -0.261  0.00  0.00    +0.138 C 
BRANCH  11  16
ATOM     12  C   UNL     1      -0.009   4.262  -0.882  0.00  0.00    +0.044 C 
ATOM     13  C   UNL     1       0.469   2.842  -0.720  0.00  0.00    -0.050 A 
ATOM     14  C   UNL     1      -0.433   1.838  -0.425  0.00  0.00    +0.003 A 
ATOM     15  C   UNL     1       0.006   0.535  -0.276  0.00  0.00    +0.005 A 
ATOM     16  C   UNL     1       1.348   0.237  -0.424  0.00  0.00    -0.030 A 
ATOM     17  C   UNL     1       2.251   1.242  -0.720  0.00  0.00    +0.005 A 
ATOM     18  C   UNL     1       1.811   2.544  -0.869  0.00  0.00    +0.003 A 
ENDBRANCH  11  16
ENDBRANCH   9  11
ENDBRANCH   7   9
ENDBRANCH   5   7
ENDBRANCH   1   5
BRANCH   2  19
ATOM     19  C   UNL     1       1.177  -2.978  -6.403  0.00  0.00    +0.194 C 
BRANCH  19  20
ATOM     20  C   UNL     1       2.326  -2.212  -7.005  0.00  0.00    -0.003 A 
ATOM     21  C   UNL     1       3.585  -2.782  -7.056  0.00  0.00    +0.007 A 
ATOM     22  C   UNL     1       4.639  -2.082  -7.612  0.00  0.00    +0.000 A 
ATOM     23  C   UNL     1       4.436  -0.808  -8.110  0.00  0.00    +0.000 A 
ATOM     24  C   UNL     1       3.179  -0.236  -8.055  0.00  0.00    +0.000 A 
ATOM     25  C   UNL     1       2.124  -0.939  -7.503  0.00  0.00    +0.007 A 
ENDBRANCH  19  20
BRANCH  19  26
ATOM     26  C   UNL     1       0.647  -3.965  -7.412  0.00  0.00    -0.003 A 
ATOM     27  C   UNL     1       1.500  -4.884  -7.993  0.00  0.00    +0.007 A 
ATOM     28  C   UNL     1       1.013  -5.793  -8.914  0.00  0.00    +0.000 A 
ATOM     29  C   UNL     1      -0.325  -5.774  -9.262  0.00  0.00    +0.000 A 
ATOM     30  C   UNL     1      -1.177  -4.851  -8.685  0.00  0.00    +0.000 A 
ATOM     31  C   UNL     1      -0.691  -3.946  -7.760  0.00  0.00    +0.007 A 
ENDBRANCH  19  26
BRANCH  19  32
ATOM     32  O   UNL     1       0.138  -2.067  -6.037  0.00  0.00    -0.371 OA
ATOM     33  H   UNL     1      -0.636  -2.492  -5.642  0.00  0.00    +0.212 HD
ENDBRANCH  19  32
ENDBRANCH   2  19
TORSDOF 9
