REMARK  Name = ZINC20822813
REMARK  11 active torsions:
REMARK  status: ('A' for Active; 'I' for Inactive)
REMARK    1  A    between atoms: C_1  and  C_2
REMARK    2  A    between atoms: C_5  and  S_9
REMARK    3  A    between atoms: C_7  and  C_8
REMARK    4  A    between atoms: S_9  and  N_12
REMARK    5  A    between atoms: N_12  and  C_13
REMARK    6  A    between atoms: C_13  and  C_14
REMARK    7  A    between atoms: C_14  and  O_16
REMARK    8  A    between atoms: O_16  and  C_17
REMARK    9  A    between atoms: C_17  and  C_18
REMARK   10  A    between atoms: N_20  and  C_21
REMARK   11  A    between atoms: C_22  and  C_29
REMARK                            x       y       z     vdW  Elec       q    Type
REMARK                         _______ _______ _______ _____ _____    ______ ____
ROOT
ATOM      1  C   UNL     1      -1.330   1.944   0.019  0.00  0.00    +0.328 C 
ENDROOT
BRANCH   1   2
ATOM      2  C   UNL     1      -0.014   1.209   0.009  0.00  0.00    +0.255 C 
ATOM      3  O   UNL     1       0.002  -0.004   0.002  0.00  0.00    -0.272 OA
ATOM      4  N   UNL     1       1.143   1.898   0.001  0.00  0.00    -0.277 N 
ATOM      5  H   UNL     1       1.129   2.998   0.007  0.00  0.00    +0.155 HD
BRANCH   4   6
ATOM      6  C   UNL     1       2.354   1.221  -0.014  0.00  0.00    +0.084 A 
ATOM      7  C   UNL     1       3.634   1.748  -0.029  0.00  0.00    +0.068 A 
ATOM      8  C   UNL     1       4.753   0.807  -0.039  0.00  0.00    -0.023 A 
ATOM      9  C   UNL     1       4.406  -0.493  -0.043  0.00  0.00    -0.004 A 
ATOM     10  S   UNL     1       2.630  -0.487  -0.026  0.00  0.00    -0.077 S 
ATOM     11  C   UNL     1       5.609  -1.397  -0.056  0.00  0.00    +0.043 C 
ATOM     12  C   UNL     1       6.782  -0.491   0.376  0.00  0.00    +0.010 C 
ATOM     13  C   UNL     1       6.279   0.901  -0.055  0.00  0.00    +0.037 C 
BRANCH   7  14
ATOM     14  C   UNL     1       3.859   3.197  -0.030  0.00  0.00    +0.244 C 
ATOM     15  O   UNL     1       3.966   3.797   1.023  0.00  0.00    -0.270 OA
ATOM     16  N   UNL     1       3.948   3.864  -1.198  0.00  0.00    -0.325 N 
ATOM     17  H   UNL     1       4.118   4.951  -1.199  0.00  0.00    +0.145 HD
ATOM     18  H   UNL     1       3.852   3.321  -2.150  0.00  0.00    +0.145 HD
ENDBRANCH   7  14
ENDBRANCH   4   6
ENDBRANCH   1   2
BRANCH   1  19
ATOM     19  O   UNL     1      -2.420   0.986   0.019  0.00  0.00    -0.454 OA
BRANCH  19  20
ATOM     20  C   UNL     1      -3.667   1.482   0.028  0.00  0.00    +0.323 C 
ATOM     21  O   UNL     1      -3.842   2.678   0.035  0.00  0.00    -0.249 OA
BRANCH  20  22
ATOM     22  C   UNL     1      -4.850   0.548   0.028  0.00  0.00    +0.226 C 
BRANCH  22  23
ATOM     23  N   UNL     1      -6.089   1.329   0.038  0.00  0.00    -0.179 NA
ATOM     24  H   UNL     1      -6.092   2.350   0.447  0.00  0.00    +0.149 HD
BRANCH  23  25
ATOM     25  S   UNL     1      -7.530   0.601  -0.330  0.00  0.00    +0.059 S 
ATOM     26  O   UNL     1      -8.533   1.600  -0.209  0.00  0.00    -0.153 OA
ATOM     27  O   UNL     1      -7.322  -0.127  -1.533  0.00  0.00    -0.153 OA
BRANCH  25  32
ATOM     28  C   UNL     1      -8.623  -3.474   3.984  0.00  0.00    +0.044 C 
ATOM     29  C   UNL     1      -8.351  -2.456   2.906  0.00  0.00    -0.047 A 
ATOM     30  C   UNL     1      -7.643  -2.820   1.775  0.00  0.00    +0.005 A 
ATOM     31  C   UNL     1      -7.397  -1.888   0.785  0.00  0.00    +0.029 A 
ATOM     32  C   UNL     1      -7.849  -0.589   0.930  0.00  0.00    +0.106 A 
ATOM     33  C   UNL     1      -8.557  -0.226   2.060  0.00  0.00    +0.032 A 
ATOM     34  C   UNL     1      -8.808  -1.160   3.048  0.00  0.00    -0.046 A 
ATOM     35  C   UNL     1      -9.579  -0.763   4.281  0.00  0.00    +0.044 C 
ENDBRANCH  25  32
ENDBRANCH  23  25
ENDBRANCH  22  23
ENDBRANCH  20  22
ENDBRANCH  19  20
ENDBRANCH   1  19
TORSDOF 9
