REMARK  Name = ZINC45201644
REMARK  9 active torsions:
REMARK  status: ('A' for Active; 'I' for Inactive)
REMARK    1  A    between atoms: C_3  and  C_8
REMARK    2  A    between atoms: C_8  and  O_9
REMARK    3  A    between atoms: O_9  and  C_10
REMARK    4  A    between atoms: C_13  and  N_17
REMARK    5  A    between atoms: C_25  and  N_26
REMARK    6  A    between atoms: N_26  and  C_27
REMARK    7  A    between atoms: C_27  and  C_28
REMARK    8  A    between atoms: C_28  and  C_29
REMARK    9  A    between atoms: C_29  and  N_30
REMARK                            x       y       z     vdW  Elec       q    Type
REMARK                         _______ _______ _______ _____ _____    ______ ____
ROOT
ATOM      1  N   UNL     1       7.912   6.754  -0.037  0.00  0.00    -0.301 N 
ATOM      2  C   UNL     1       8.987   6.627   0.806  0.00  0.00    +0.094 A 
ATOM      3  C   UNL     1       9.893   7.581   0.535  0.00  0.00    +0.033 A 
ATOM      4  C   UNL     1       9.353   8.378  -0.566  0.00  0.00    +0.059 A 
ATOM      5  C   UNL     1       8.107   7.808  -0.889  0.00  0.00    +0.150 A 
ATOM      6  N   UNL     1       7.398   8.349  -1.878  0.00  0.00    -0.217 NA
ATOM      7  C   UNL     1       7.853   9.391  -2.540  0.00  0.00    +0.225 A 
ATOM      8  N   UNL     1       9.017   9.954  -2.272  0.00  0.00    -0.220 NA
ATOM      9  C   UNL     1       9.794   9.491  -1.297  0.00  0.00    +0.131 A 
ENDROOT
BRANCH   1  13
ATOM     10  C   UNL     1       4.553   4.280  -0.018  0.00  0.00    +0.139 A 
ATOM     11  C   UNL     1       5.823   3.724  -0.039  0.00  0.00    +0.049 A 
ATOM     12  C   UNL     1       6.935   4.542  -0.046  0.00  0.00    +0.030 A 
ATOM     13  C   UNL     1       6.782   5.922  -0.031  0.00  0.00    +0.050 A 
ATOM     14  C   UNL     1       5.511   6.479  -0.010  0.00  0.00    +0.049 A 
ATOM     15  C   UNL     1       4.398   5.659  -0.009  0.00  0.00    +0.084 A 
ATOM     16 CL   UNL     1       2.808   6.354   0.009  0.00  0.00    -0.080 Cl
BRANCH  10  17
ATOM     17  O   UNL     1       3.458   3.473  -0.012  0.00  0.00    -0.484 OA
BRANCH  17  18
ATOM     18  C   UNL     1       3.691   2.063  -0.022  0.00  0.00    +0.284 C 
BRANCH  18  21
ATOM     19  C   UNL     1      -0.017   1.381   0.010  0.00  0.00    +0.006 A 
ATOM     20  C   UNL     1       1.194   2.058   0.002  0.00  0.00    +0.027 A 
ATOM     21  C   UNL     1       2.371   1.336  -0.013  0.00  0.00    +0.082 A 
ATOM     22  N   UNL     1       2.354   0.017  -0.021  0.00  0.00    -0.221 NA
ATOM     23  C   UNL     1       1.221  -0.662  -0.014  0.00  0.00    +0.214 A 
ATOM     24  C   UNL     1       0.002  -0.004   0.002  0.00  0.00    +0.059 A 
ATOM     25  F   UNL     1       1.252  -2.013  -0.022  0.00  0.00    -0.184 F 
ENDBRANCH  18  21
ENDBRANCH  17  18
ENDBRANCH  10  17
ENDBRANCH   1  13
BRANCH   9  26
ATOM     26  N   UNL     1      11.014  10.083  -1.020  0.00  0.00    -0.328 N 
ATOM     27  H   UNL     1      11.576   9.729  -0.314  0.00  0.00    +0.147 HD
BRANCH  26  28
ATOM     28  C   UNL     1      11.456  11.244  -1.796  0.00  0.00    +0.104 C 
BRANCH  28  29
ATOM     29  C   UNL     1      12.827  11.701  -1.292  0.00  0.00    +0.040 C 
BRANCH  29  30
ATOM     30  C   UNL     1      13.290  12.914  -2.102  0.00  0.00    +0.124 C 
BRANCH  30  31
ATOM     31  N   UNL     1      14.602  13.351  -1.620  0.00  0.00    -0.338 N 
ATOM     32  C   UNL     1      14.840  14.259  -0.624  0.00  0.00    +0.104 A 
ATOM     33  C   UNL     1      16.178  14.365  -0.504  0.00  0.00    +0.101 A 
ATOM     34  N   UNL     1      16.741  13.543  -1.403  0.00  0.00    -0.352 N 
ATOM     35  C   UNL     1      15.803  12.929  -2.071  0.00  0.00    +0.173 A 
ATOM     36  H   UNL     1      17.694  13.422  -1.533  0.00  0.00    +0.166 HD
ENDBRANCH  30  31
ENDBRANCH  29  30
ENDBRANCH  28  29
ENDBRANCH  26  28
ENDBRANCH   9  26
TORSDOF 9
