REMARK  Name = ZINC39675890
REMARK  9 active torsions:
REMARK  status: ('A' for Active; 'I' for Inactive)
REMARK    1  A    between atoms: C_1  and  N_2
REMARK    2  A    between atoms: N_2  and  C_3
REMARK    3  A    between atoms: N_2  and  C_4
REMARK    4  A    between atoms: C_4  and  C_6
REMARK    5  A    between atoms: C_4  and  C_34
REMARK    6  A    between atoms: C_6  and  N_7
REMARK    7  A    between atoms: C_8  and  C_10
REMARK    8  A    between atoms: C_21  and  C_23
REMARK    9  A    between atoms: C_26  and  C_28
REMARK                            x       y       z     vdW  Elec       q    Type
REMARK                         _______ _______ _______ _____ _____    ______ ____
ROOT
ATOM      1  C   UNL     1      -2.947   3.443  -3.090  0.00  0.00    +0.100 C 
ATOM      2  C   UNL     1      -3.743   4.154  -1.973  0.00  0.00    +0.121 C 
ATOM      3  N   UNL     1      -4.495   5.224  -2.671  0.00  0.00    -0.294 N 
ATOM      4  C   UNL     1      -4.932   4.597  -3.942  0.00  0.00    +0.115 C 
ATOM      5  C   UNL     1      -3.731   3.735  -4.380  0.00  0.00    -0.004 C 
ATOM      6  C   UNL     1      -2.859   4.508  -5.365  0.00  0.00    -0.010 C 
ATOM      7  C   UNL     1      -3.640   4.737  -6.662  0.00  0.00    -0.082 C 
ATOM      8  N   UNL     1      -4.032   3.443  -7.234  0.00  0.00    +0.379 N 
ATOM      9  C   UNL     1      -4.946   2.747  -6.321  0.00  0.00    -0.082 C 
ATOM     10  C   UNL     1      -4.219   2.434  -5.010  0.00  0.00    -0.010 C 
ATOM     11  C   UNL     1      -4.728   6.481  -2.247  0.00  0.00    +0.282 C 
ATOM     12  O   UNL     1      -5.369   7.249  -2.942  0.00  0.00    -0.267 OA
ATOM     13  H   UNL     1      -4.494   3.594  -8.119  0.00  0.00    -0.086 HD
ATOM     14  H   UNL     1      -3.209   2.878  -7.380  0.00  0.00    -0.086 HD
ENDROOT
BRANCH  11  15
ATOM     15  C   UNL     1      -4.211   6.925  -0.950  0.00  0.00    +0.190 A 
ATOM     16  C   UNL     1      -4.380   8.175  -0.397  0.00  0.00    +0.055 A 
ATOM     17  C   UNL     1      -3.726   8.161   0.840  0.00  0.00    +0.050 A 
ATOM     18  C   UNL     1      -3.186   6.917   0.994  0.00  0.00    +0.136 A 
ATOM     19  O   UNL     1      -3.490   6.179  -0.087  0.00  0.00    -0.450 OA
BRANCH  18  20
ATOM     20  C   UNL     1      -2.404   6.456   2.159  0.00  0.00    +0.017 A 
ATOM     21  C   UNL     1      -2.166   7.319   3.230  0.00  0.00    +0.011 A 
ATOM     22  C   UNL     1      -1.435   6.882   4.315  0.00  0.00    +0.001 A 
ATOM     23  C   UNL     1      -0.939   5.591   4.344  0.00  0.00    +0.000 A 
ATOM     24  C   UNL     1      -1.170   4.730   3.286  0.00  0.00    +0.001 A 
ATOM     25  C   UNL     1      -1.904   5.152   2.197  0.00  0.00    +0.011 A 
ENDBRANCH  18  20
ENDBRANCH  11  15
BRANCH   1  27
ATOM     26  N   UNL     1      -1.845   1.236  -3.270  0.00  0.00    -0.316 N 
ATOM     27  C   UNL     1      -2.895   1.959  -2.833  0.00  0.00    +0.218 C 
ATOM     28  O   UNL     1      -3.798   1.415  -2.233  0.00  0.00    -0.275 OA
ATOM     29  H   UNL     1      -1.123   1.671  -3.750  0.00  0.00    +0.149 HD
BRANCH  26  30
ATOM     30  C   UNL     1      -1.794  -0.207  -3.020  0.00  0.00    +0.093 C 
BRANCH  30  31
ATOM     31  C   UNL     1      -0.577  -0.804  -3.729  0.00  0.00    -0.021 C 
BRANCH  31  32
ATOM     32  C   UNL     1      -0.755  -0.683  -5.221  0.00  0.00    -0.059 A 
ATOM     33  C   UNL     1      -0.485   0.516  -5.854  0.00  0.00    +0.002 A 
ATOM     34  C   UNL     1      -0.648   0.628  -7.222  0.00  0.00    +0.000 A 
ATOM     35  C   UNL     1      -1.081  -0.459  -7.957  0.00  0.00    +0.000 A 
ATOM     36  C   UNL     1      -1.351  -1.659  -7.324  0.00  0.00    +0.000 A 
ATOM     37  C   UNL     1      -1.183  -1.772  -5.957  0.00  0.00    +0.002 A 
ENDBRANCH  31  32
BRANCH  31  39
ATOM     38  C   UNL     1       0.777  -0.152  -1.860  0.00  0.00    -0.096 C 
ATOM     39  N   UNL     1       0.634  -0.080  -3.320  0.00  0.00    +0.382 N 
ATOM     40  C   UNL     1       1.808  -0.689  -3.958  0.00  0.00    -0.096 C 
ATOM     41  H   UNL     1       0.559   0.886  -3.603  0.00  0.00    -0.082 HD
ENDBRANCH  31  39
ENDBRANCH  30  31
ENDBRANCH  26  30
ENDBRANCH   1  27
TORSDOF 7
