REMARK  Name = ZINC40911551
REMARK  12 active torsions:
REMARK  status: ('A' for Active; 'I' for Inactive)
REMARK    1  A    between atoms: C_1  and  C_2
REMARK    2  A    between atoms: C_5  and  O_9
REMARK    3  A    between atoms: O_9  and  C_10
REMARK    4  A    between atoms: C_10  and  C_11
REMARK    5  A    between atoms: N_13  and  N_14
REMARK    6  A    between atoms: C_15  and  C_16
REMARK    7  A    between atoms: C_19  and  O_24
REMARK    8  A    between atoms: C_20  and  O_22
REMARK    9  A    between atoms: O_22  and  C_23
REMARK   10  A    between atoms: O_24  and  C_25
REMARK   11  A    between atoms: C_25  and  C_26
REMARK   12  A    between atoms: C_31  and  C_32
REMARK                            x       y       z     vdW  Elec       q    Type
REMARK                         _______ _______ _______ _____ _____    ______ ____
ROOT
ATOM      1  C   UNL     1       0.127 -10.717  -2.859  0.00  0.00    -0.002 A 
ATOM      2  C   UNL     1       0.135 -11.261  -1.572  0.00  0.00    +0.013 A 
ATOM      3  C   UNL     1       0.154 -12.629  -1.401  0.00  0.00    +0.050 A 
ATOM      4  C   UNL     1       0.165 -13.469  -2.506  0.00  0.00    +0.162 A 
ATOM      5  C   UNL     1       0.158 -12.934  -3.792  0.00  0.00    +0.162 A 
ATOM      6  C   UNL     1       0.133 -11.564  -3.971  0.00  0.00    +0.059 A 
ENDROOT
BRANCH   1   8
ATOM      7  N   UNL     1       0.103  -8.470  -2.009  0.00  0.00    -0.188 NA
ATOM      8  C   UNL     1       0.107  -9.255  -3.043  0.00  0.00    +0.138 C 
BRANCH   7  11
ATOM      9  C   UNL     1       0.079  -6.266  -1.111  0.00  0.00    +0.270 C 
ATOM     10  O   UNL     1       0.090  -6.736   0.007  0.00  0.00    -0.270 OA
ATOM     11  N   UNL     1       0.084  -7.081  -2.185  0.00  0.00    -0.204 N 
ATOM     12  H   UNL     1       0.074  -6.705  -3.079  0.00  0.00    +0.177 HD
BRANCH   9  13
ATOM     13  C   UNL     1       0.058  -4.771  -1.300  0.00  0.00    +0.326 C 
BRANCH  13  14
ATOM     14  O   UNL     1       0.057  -4.130  -0.022  0.00  0.00    -0.482 OA
BRANCH  14  19
ATOM     15  C   UNL     1      -0.018   1.503   0.010  0.00  0.00    +0.044 C 
ATOM     16  C   UNL     1       0.002  -0.004   0.002  0.00  0.00    -0.049 A 
ATOM     17  C   UNL     1       0.006  -0.688  -1.200  0.00  0.00    +0.007 A 
ATOM     18  C   UNL     1       0.024  -2.069  -1.211  0.00  0.00    +0.047 A 
ATOM     19  C   UNL     1       0.039  -2.771  -0.014  0.00  0.00    +0.135 A 
ATOM     20  C   UNL     1       0.036  -2.083   1.191  0.00  0.00    +0.060 A 
ATOM     21  C   UNL     1       0.023  -0.700   1.196  0.00  0.00    +0.022 A 
ATOM     22 BR   UNL     1       0.056  -3.035   2.825  0.00  0.00    -0.047 Br
ENDBRANCH  14  19
ENDBRANCH  13  14
ENDBRANCH   9  13
ENDBRANCH   7  11
ENDBRANCH   1   8
BRANCH   5  23
ATOM     23  O   UNL     1       0.169 -13.761  -4.872  0.00  0.00    -0.491 OA
ATOM     24  C   UNL     1       0.160 -13.144  -6.161  0.00  0.00    +0.277 C 
ENDBRANCH   5  23
BRANCH   4  25
ATOM     25  O   UNL     1       0.184 -14.817  -2.332  0.00  0.00    -0.484 OA
BRANCH  25  26
ATOM     26  C   UNL     1       0.192 -15.298  -0.986  0.00  0.00    +0.265 C 
BRANCH  26  27
ATOM     27  C   UNL     1       0.213 -16.805  -0.992  0.00  0.00    -0.007 A 
ATOM     28  C   UNL     1       0.228 -17.492  -2.191  0.00  0.00    +0.007 A 
ATOM     29  C   UNL     1       0.248 -18.874  -2.196  0.00  0.00    +0.000 A 
ATOM     30  C   UNL     1       0.253 -19.569  -1.001  0.00  0.00    +0.000 A 
ATOM     31  C   UNL     1       0.239 -18.882   0.199  0.00  0.00    +0.004 A 
ATOM     32  C   UNL     1       0.224 -17.500   0.203  0.00  0.00    -0.044 A 
ATOM     33  C   UNL     1       0.214 -16.751   1.511  0.00  0.00    +0.044 C 
ENDBRANCH  26  27
ENDBRANCH  25  26
ENDBRANCH   4  25
TORSDOF 9
