REMARK  Name = ZINC01181982
REMARK  7 active torsions:
REMARK  status: ('A' for Active; 'I' for Inactive)
REMARK    1  A    between atoms: C_6  and  C_7
REMARK    2  A    between atoms: N_9  and  C_10
REMARK    3  A    between atoms: C_10  and  C_12
REMARK    4  A    between atoms: C_10  and  N_16
REMARK    5  A    between atoms: N_16  and  C_17
REMARK    6  A    between atoms: C_17  and  N_19
REMARK    7  A    between atoms: N_19  and  C_20
REMARK                            x       y       z     vdW  Elec       q    Type
REMARK                         _______ _______ _______ _____ _____    ______ ____
ROOT
ATOM      1  C   UNL     1       0.001   1.312  -0.804  0.00  0.00    +0.211 C 
ENDROOT
BRANCH   1   4
ATOM      2  C   UNL     1      -0.448   1.576  -3.185  0.00  0.00    +0.246 C 
ATOM      3  O   UNL     1      -0.134   0.412  -3.343  0.00  0.00    -0.270 OA
ATOM      4  N   UNL     1      -0.414   2.122  -1.953  0.00  0.00    -0.290 N 
ATOM      5  H   UNL     1      -0.665   3.050  -1.827  0.00  0.00    +0.151 HD
BRANCH   2  11
ATOM      6  C   UNL     1      -1.232   3.727  -4.164  0.00  0.00    +0.016 A 
ATOM      7  C   UNL     1      -1.615   4.486  -5.249  0.00  0.00    +0.039 A 
ATOM      8  C   UNL     1      -1.649   3.922  -6.515  0.00  0.00    +0.123 A 
ATOM      9  C   UNL     1      -1.292   2.595  -6.698  0.00  0.00    +0.039 A 
ATOM     10  C   UNL     1      -0.901   1.829  -5.620  0.00  0.00    +0.016 A 
ATOM     11  C   UNL     1      -0.866   2.392  -4.343  0.00  0.00    +0.037 A 
ATOM     12  F   UNL     1      -2.031   4.668  -7.574  0.00  0.00    -0.205 F 
ENDBRANCH   2  11
ENDBRANCH   1   4
BRANCH   1  13
ATOM     13  C   UNL     1      -0.961   1.551   0.361  0.00  0.00    +0.225 C 
ATOM     14 CL   UNL     1      -0.935   3.296   0.815  0.00  0.00    -0.080 Cl
ATOM     15 CL   UNL     1      -2.631   1.083  -0.132  0.00  0.00    -0.080 Cl
ATOM     16 CL   UNL     1      -0.451   0.555   1.775  0.00  0.00    -0.080 Cl
ENDBRANCH   1  13
BRANCH   1  17
ATOM     17  N   UNL     1       1.357   1.693  -0.404  0.00  0.00    -0.305 N 
ATOM     18  H   UNL     1       1.508   2.524   0.073  0.00  0.00    +0.150 HD
BRANCH  17  19
ATOM     19  C   UNL     1       2.397   0.887  -0.697  0.00  0.00    +0.136 C 
ATOM     20  S   UNL     1       2.132  -0.581  -1.538  0.00  0.00    -0.019 S 
BRANCH  19  21
ATOM     21  N   UNL     1       3.646   1.237  -0.328  0.00  0.00    -0.297 N 
ATOM     22  H   UNL     1       3.804   2.096   0.093  0.00  0.00    +0.154 HD
BRANCH  21  23
ATOM     23  C   UNL     1       4.714   0.360  -0.554  0.00  0.00    +0.033 A 
ATOM     24  C   UNL     1       5.649   0.132   0.447  0.00  0.00    +0.026 A 
ATOM     25  C   UNL     1       6.699  -0.738   0.224  0.00  0.00    +0.040 A 
ATOM     26  C   UNL     1       6.824  -1.374  -0.999  0.00  0.00    +0.124 A 
ATOM     27  C   UNL     1       5.896  -1.144  -2.000  0.00  0.00    +0.040 A 
ATOM     28  C   UNL     1       4.842  -0.279  -1.780  0.00  0.00    +0.026 A 
ATOM     29  F   UNL     1       7.854  -2.221  -1.216  0.00  0.00    -0.205 F 
ENDBRANCH  21  23
ENDBRANCH  19  21
ENDBRANCH  17  19
ENDBRANCH   1  17
TORSDOF 7
