REMARK  Name = ZINC38756962
REMARK  9 active torsions:
REMARK  status: ('A' for Active; 'I' for Inactive)
REMARK    1  A    between atoms: C_1  and  S_2
REMARK    2  A    between atoms: S_2  and  N_5
REMARK    3  A    between atoms: N_5  and  C_6
REMARK    4  A    between atoms: N_5  and  C_26
REMARK    5  A    between atoms: C_6  and  C_7
REMARK    6  A    between atoms: N_9  and  C_10
REMARK    7  A    between atoms: C_13  and  S_16
REMARK    8  A    between atoms: S_16  and  N_19
REMARK    9  A    between atoms: N_19  and  C_20
REMARK                            x       y       z     vdW  Elec       q    Type
REMARK                         _______ _______ _______ _____ _____    ______ ____
ROOT
ATOM      1  C   UNL     1       2.109  -2.279  -1.581  0.00  0.00    +0.236 C 
ATOM      2  O   UNL     1       1.177  -3.028  -1.380  0.00  0.00    -0.274 OA
ATOM      3  N   UNL     1       3.370  -2.755  -1.571  0.00  0.00    -0.284 N 
ATOM      4  H   UNL     1       4.111  -2.171  -1.796  0.00  0.00    +0.155 HD
ENDROOT
BRANCH   3   5
ATOM      5  C   UNL     1       3.610  -4.092  -1.237  0.00  0.00    +0.034 A 
ATOM      6  C   UNL     1       4.683  -4.769  -1.803  0.00  0.00    +0.025 A 
ATOM      7  C   UNL     1       4.917  -6.089  -1.471  0.00  0.00    +0.030 A 
ATOM      8  C   UNL     1       4.086  -6.737  -0.575  0.00  0.00    +0.109 A 
ATOM      9  C   UNL     1       3.017  -6.065  -0.010  0.00  0.00    +0.030 A 
ATOM     10  C   UNL     1       2.781  -4.744  -0.333  0.00  0.00    +0.025 A 
BRANCH   8  11
ATOM     11  S   UNL     1       4.388  -8.421  -0.154  0.00  0.00    +0.072 S 
ATOM     12  O   UNL     1       3.149  -8.958   0.286  0.00  0.00    -0.150 OA
ATOM     13  O   UNL     1       5.123  -8.983  -1.233  0.00  0.00    -0.150 OA
BRANCH  11  14
ATOM     14  N   UNL     1       5.398  -8.423   1.158  0.00  0.00    -0.215 N 
ATOM     15  H   UNL     1       6.294  -8.787   1.080  0.00  0.00    +0.174 HD
BRANCH  14  16
ATOM     16  C   UNL     1       4.959  -7.902   2.378  0.00  0.00    +0.066 A 
ATOM     17  C   UNL     1       5.778  -7.052   3.119  0.00  0.00    +0.027 A 
ATOM     18  C   UNL     1       5.298  -6.561   4.322  0.00  0.00    +0.022 A 
ATOM     19  C   UNL     1       4.034  -6.927   4.745  0.00  0.00    +0.111 A 
ATOM     20  N   UNL     1       3.284  -7.733   4.021  0.00  0.00    -0.261 NA
ATOM     21  C   UNL     1       3.698  -8.218   2.867  0.00  0.00    +0.135 A 
ENDBRANCH  14  16
ENDBRANCH  11  14
ENDBRANCH   8  11
ENDBRANCH   3   5
BRANCH   1  22
ATOM     22  C   UNL     1       1.858  -0.816  -1.841  0.00  0.00    +0.227 C 
BRANCH  22  23
ATOM     23  N   UNL     1       0.418  -0.553  -1.800  0.00  0.00    -0.198 N 
BRANCH  23  24
ATOM     24  C   UNL     1      -0.360  -0.752  -2.938  0.00  0.00    +0.059 A 
ATOM     25  C   UNL     1      -0.869  -2.001  -3.223  0.00  0.00    +0.025 A 
ATOM     26  C   UNL     1      -1.647  -2.211  -4.357  0.00  0.00    +0.002 A 
ATOM     27  C   UNL     1      -1.928  -1.191  -5.215  0.00  0.00    +0.008 A 
ATOM     28  C   UNL     1      -1.429   0.098  -4.961  0.00  0.00    -0.016 A 
ATOM     29  C   UNL     1      -0.640   0.325  -3.806  0.00  0.00    +0.005 A 
ATOM     30  C   UNL     1      -0.147   1.614  -3.551  0.00  0.00    +0.010 A 
ATOM     31  C   UNL     1      -0.437   2.629  -4.411  0.00  0.00    +0.001 A 
ATOM     32  C   UNL     1      -1.218   2.408  -5.544  0.00  0.00    +0.001 A 
ATOM     33  C   UNL     1      -1.703   1.169  -5.829  0.00  0.00    +0.008 A 
ENDBRANCH  23  24
BRANCH  23  35
ATOM     34  C   UNL     1      -0.029   1.778  -0.404  0.00  0.00    +0.218 C 
ATOM     35  S   UNL     1      -0.286  -0.018  -0.399  0.00  0.00    +0.043 S 
ATOM     36  O   UNL     1       0.474  -0.619   0.641  0.00  0.00    -0.155 OA
ATOM     37  O   UNL     1      -1.667  -0.315  -0.551  0.00  0.00    -0.155 OA
ENDBRANCH  23  35
ENDBRANCH  22  23
ENDBRANCH   1  22
TORSDOF 8
