REMARK  Name = ZINC32408443
REMARK  12 active torsions:
REMARK  status: ('A' for Active; 'I' for Inactive)
REMARK    1  A    between atoms: C_1  and  C_2
REMARK    2  A    between atoms: C_5  and  S_9
REMARK    3  A    between atoms: S_9  and  N_12
REMARK    4  A    between atoms: N_12  and  C_13
REMARK    5  A    between atoms: C_13  and  C_15
REMARK    6  A    between atoms: C_13  and  C_22
REMARK    7  A    between atoms: C_15  and  C_16
REMARK    8  A    between atoms: C_16  and  O_18
REMARK    9  A    between atoms: O_18  and  C_19
REMARK   10  A    between atoms: C_19  and  C_20
REMARK   11  A    between atoms: C_19  and  C_21
REMARK   12  A    between atoms: C_27  and  N_28
REMARK                            x       y       z     vdW  Elec       q    Type
REMARK                         _______ _______ _______ _____ _____    ______ ____
ROOT
ATOM      1  C   UNL     1       2.511  -4.700   1.112  0.00  0.00    +0.119 C 
ENDROOT
BRANCH   1   2
ATOM      2  C   UNL     1       3.261  -3.418   0.857  0.00  0.00    +0.002 A 
ATOM      3  C   UNL     1       3.402  -2.946  -0.435  0.00  0.00    +0.007 A 
ATOM      4  C   UNL     1       4.090  -1.770  -0.670  0.00  0.00    +0.000 A 
ATOM      5  C   UNL     1       4.637  -1.066   0.387  0.00  0.00    +0.002 A 
ATOM      6  C   UNL     1       4.495  -1.538   1.679  0.00  0.00    +0.033 A 
ATOM      7  C   UNL     1       3.803  -2.712   1.914  0.00  0.00    +0.131 A 
BRANCH   7   8
ATOM      8  N   UNL     1       3.647  -3.214   3.297  0.00  0.00    +0.057 N 
ATOM      9  O   UNL     1       4.121  -2.596   4.222  0.00  0.00    -0.126 OA
ATOM     10  O   UNL     1       3.045  -4.242   3.502  0.00  0.00    -0.126 OA
ENDBRANCH   7   8
ENDBRANCH   1   2
BRANCH   1  11
ATOM     11  N   UNL     1       1.651  -5.000  -0.035  0.00  0.00    -0.182 NA
ATOM     12  H   UNL     1       2.012  -5.473  -0.801  0.00  0.00    +0.149 HD
BRANCH  11  13
ATOM     13  S   UNL     1       0.063  -4.531  -0.024  0.00  0.00    +0.059 S 
ATOM     14  O   UNL     1      -0.476  -4.952   1.221  0.00  0.00    -0.153 OA
ATOM     15  O   UNL     1      -0.489  -4.937  -1.270  0.00  0.00    -0.153 OA
BRANCH  13  20
ATOM     16  C   UNL     1      -0.018   1.503   0.010  0.00  0.00    +0.045 C 
ATOM     17  C   UNL     1       0.002  -0.004   0.002  0.00  0.00    -0.032 A 
ATOM     18  C   UNL     1       0.006  -0.689  -1.199  0.00  0.00    +0.007 A 
ATOM     19  C   UNL     1       0.025  -2.071  -1.207  0.00  0.00    +0.029 A 
ATOM     20  C   UNL     1       0.040  -2.769  -0.013  0.00  0.00    +0.107 A 
ATOM     21  C   UNL     1       0.036  -2.086   1.188  0.00  0.00    +0.048 A 
ATOM     22  C   UNL     1       0.023  -0.702   1.196  0.00  0.00    +0.046 A 
ATOM     23 CL   UNL     1       0.025   0.157   2.704  0.00  0.00    -0.083 Cl
ENDBRANCH  13  20
ENDBRANCH  11  13
ENDBRANCH   1  11
BRANCH   1  24
ATOM     24  C   UNL     1       3.508  -5.842   1.315  0.00  0.00    +0.145 C 
BRANCH  24  25
ATOM     25  C   UNL     1       2.764  -7.098   1.692  0.00  0.00    +0.309 C 
ATOM     26  O   UNL     1       1.560  -7.080   1.788  0.00  0.00    -0.251 OA
BRANCH  25  27
ATOM     27  O   UNL     1       3.439  -8.235   1.920  0.00  0.00    -0.462 OA
BRANCH  27  28
ATOM     28  C   UNL     1       2.670  -9.386   2.273  0.00  0.00    +0.170 C 
ATOM     29  C   UNL     1       2.278 -10.147   1.004  0.00  0.00    +0.052 C 
ATOM     30  C   UNL     1       3.501 -10.298   3.178  0.00  0.00    +0.052 C 
ENDBRANCH  27  28
ENDBRANCH  25  27
ENDBRANCH  24  25
ENDBRANCH   1  24
TORSDOF 9
