REMARK  Name = ZINC28374348
REMARK  8 active torsions:
REMARK  status: ('A' for Active; 'I' for Inactive)
REMARK    1  A    between atoms: C_1  and  N_2
REMARK    2  A    between atoms: N_2  and  C_3
REMARK    3  A    between atoms: C_4  and  C_6
REMARK    4  A    between atoms: C_9  and  C_12
REMARK    5  A    between atoms: N_14  and  C_15
REMARK    6  A    between atoms: C_15  and  C_17
REMARK    7  A    between atoms: C_15  and  C_28
REMARK    8  A    between atoms: C_17  and  C_18
REMARK                            x       y       z     vdW  Elec       q    Type
REMARK                         _______ _______ _______ _____ _____    ______ ____
ROOT
ATOM      1  C   UNL     1      -0.793   5.347  -0.211  0.00  0.00    +0.168 C 
ENDROOT
BRANCH   1   2
ATOM      2  C   UNL     1      -0.293   4.011   0.273  0.00  0.00    +0.236 C 
ATOM      3  O   UNL     1      -1.049   3.247   0.835  0.00  0.00    -0.274 OA
ATOM      4  N   UNL     1       0.996   3.664   0.082  0.00  0.00    -0.300 N 
ATOM      5  C   UNL     1       1.517   2.398   0.614  0.00  0.00    +0.108 C 
ATOM      6  C   UNL     1       2.181   1.620  -0.527  0.00  0.00    +0.019 C 
ATOM      7  C   UNL     1       3.238   2.504  -1.194  0.00  0.00    +0.003 C 
ATOM      8  C   UNL     1       2.567   3.747  -1.783  0.00  0.00    +0.019 C 
ATOM      9  C   UNL     1       1.907   4.549  -0.656  0.00  0.00    +0.108 C 
ENDBRANCH   1   2
BRANCH   1  12
ATOM     10  C   UNL     1      -3.022   4.892  -1.083  0.00  0.00    +0.245 C 
ATOM     11  O   UNL     1      -2.505   4.403  -2.068  0.00  0.00    -0.270 OA
ATOM     12  N   UNL     1      -2.253   5.393  -0.096  0.00  0.00    -0.300 N 
ATOM     13  H   UNL     1      -2.721   5.836   0.795  0.00  0.00    +0.150 HD
BRANCH  10  17
ATOM     14  C   UNL     1      -7.260   5.024  -0.749  0.00  0.00    +0.013 A 
ATOM     15  C   UNL     1      -6.667   4.463  -1.880  0.00  0.00    +0.012 A 
ATOM     16  C   UNL     1      -5.294   4.420  -1.989  0.00  0.00    +0.014 A 
ATOM     17  C   UNL     1      -4.496   4.938  -0.967  0.00  0.00    +0.037 A 
ATOM     18  C   UNL     1      -5.090   5.495   0.167  0.00  0.00    +0.014 A 
ATOM     19  C   UNL     1      -6.463   5.542   0.272  0.00  0.00    +0.012 A 
BRANCH  14  23
ATOM     20  C   UNL     1     -10.778   5.261   0.730  0.00  0.00    +0.130 C 
ATOM     21  N   UNL     1      -9.329   5.079   0.611  0.00  0.00    -0.323 N 
ATOM     22  C   UNL     1      -8.511   4.906   1.814  0.00  0.00    +0.130 C 
ATOM     23  C   UNL     1      -8.736   5.070  -0.633  0.00  0.00    +0.099 C 
ATOM     24  N   UNL     1      -9.473   5.102  -1.706  0.00  0.00    -0.386 N 
ATOM     25  H   UNL     1      -8.999   5.095  -2.699  0.00  0.00    +0.157 HD
ATOM     26  H   UNL     1     -10.569   5.136  -1.620  0.00  0.00    +0.157 HD
ENDBRANCH  14  23
ENDBRANCH  10  17
ENDBRANCH   1  12
BRANCH   1  27
ATOM     27  C   UNL     1      -0.179   6.461   0.640  0.00  0.00    +0.128 C 
BRANCH  27  28
ATOM     28  C   UNL     1      -0.594   7.801   0.089  0.00  0.00    +0.221 C 
ATOM     29  O   UNL     1      -1.310   7.859  -0.888  0.00  0.00    -0.275 OA
ATOM     30  N   UNL     1      -0.169   8.934   0.683  0.00  0.00    -0.270 N 
ATOM     31  C   UNL     1      -0.637  10.170   0.240  0.00  0.00    +0.125 A 
ATOM     32  C   UNL     1      -0.110  11.339   0.778  0.00  0.00    +0.045 A 
ATOM     33  C   UNL     1      -0.580  12.560   0.327  0.00  0.00    +0.025 A 
ATOM     34  C   UNL     1      -1.573  12.569  -0.645  0.00  0.00    +0.059 A 
ATOM     35  C   UNL     1      -2.055  11.369  -1.131  0.00  0.00    +0.132 A 
ATOM     36  N   UNL     1      -1.583  10.220  -0.685  0.00  0.00    -0.239 NA
ATOM     37 CL   UNL     1      -2.202  14.073  -1.242  0.00  0.00    -0.082 Cl
ATOM     38  H   UNL     1       0.547   8.883   1.516  0.00  0.00    +0.156 HD
ENDBRANCH  27  28
ENDBRANCH   1  27
TORSDOF 6
