REMARK  Name = ZINC65056607
REMARK  9 active torsions:
REMARK  status: ('A' for Active; 'I' for Inactive)
REMARK    1  A    between atoms: C_1  and  C_2
REMARK    2  A    between atoms: C_2  and  O_3
REMARK    3  A    between atoms: O_3  and  C_4
REMARK    4  A    between atoms: C_9  and  C_10
REMARK    5  A    between atoms: C_10  and  N_11
REMARK    6  A    between atoms: C_12  and  C_14
REMARK    7  A    between atoms: C_14  and  C_15
REMARK    8  A    between atoms: C_15  and  C_16
REMARK    9  A    between atoms: C_20  and  C_25
REMARK                            x       y       z     vdW  Elec       q    Type
REMARK                         _______ _______ _______ _____ _____    ______ ____
ROOT
ATOM      1  C   UNL     1       7.155   1.760  -3.671  0.00  0.00    +0.135 A 
ATOM      2  N   UNL     1       7.161   2.820  -2.885  0.00  0.00    -0.216 NA
ATOM      3  C   UNL     1       8.297   3.288  -2.375  0.00  0.00    +0.138 A 
ATOM      4  C   UNL     1       9.494   2.624  -2.692  0.00  0.00    +0.103 A 
ATOM      5  C   UNL     1      10.900   2.815  -2.348  0.00  0.00    +0.093 A 
ATOM      6  N   UNL     1      11.575   1.878  -2.944  0.00  0.00    -0.080 NA
ATOM      7  O   UNL     1      10.694   1.053  -3.681  0.00  0.00    -0.334 OA
ATOM      8  C   UNL     1       9.436   1.499  -3.533  0.00  0.00    +0.263 A 
ATOM      9  N   UNL     1       8.251   1.105  -3.990  0.00  0.00    -0.195 NA
ATOM     10  C   UNL     1      11.464   3.899  -1.466  0.00  0.00    +0.070 C 
ATOM     11  N   UNL     1       8.300   4.398  -1.554  0.00  0.00    -0.314 N 
ATOM     12  C   UNL     1       8.289   4.201  -0.122  0.00  0.00    +0.106 C 
ATOM     13  C   UNL     1       6.826   4.122   0.381  0.00  0.00    +0.019 C 
ATOM     14  C   UNL     1       6.190   5.447   0.310  0.00  0.00    +0.002 C 
ATOM     15  C   UNL     1       6.074   6.014  -1.101  0.00  0.00    +0.002 C 
ATOM     16  C   UNL     1       7.359   6.715  -1.466  0.00  0.00    +0.019 C 
ATOM     17  C   UNL     1       8.319   5.737  -2.175  0.00  0.00    +0.106 C 
ENDROOT
BRANCH   1  18
ATOM     18  C   UNL     1       5.838   1.275  -4.219  0.00  0.00    +0.085 C 
BRANCH  18  19
ATOM     19  C   UNL     1       5.223   0.263  -3.250  0.00  0.00    +0.103 C 
BRANCH  19  21
ATOM     20  N   UNL     1       3.179  -1.124  -3.109  0.00  0.00    -0.311 N 
ATOM     21  C   UNL     1       3.905  -0.222  -3.798  0.00  0.00    +0.214 C 
ATOM     22  O   UNL     1       3.499   0.200  -4.860  0.00  0.00    -0.276 OA
ATOM     23  H   UNL     1       3.505  -1.461  -2.260  0.00  0.00    +0.149 HD
BRANCH  20  24
ATOM     24  C   UNL     1       1.899  -1.595  -3.642  0.00  0.00    +0.143 C 
BRANCH  24  30
ATOM     25  C   UNL     1       0.620  -2.150  -1.558  0.00  0.00    +0.125 A 
ATOM     26  C   UNL     1       0.059  -3.069  -0.683  0.00  0.00    +0.046 A 
ATOM     27  C   UNL     1       0.176  -4.422  -0.936  0.00  0.00    +0.004 A 
ATOM     28  C   UNL     1       0.852  -4.860  -2.060  0.00  0.00    +0.001 A 
ATOM     29  C   UNL     1       1.413  -3.946  -2.933  0.00  0.00    +0.009 A 
ATOM     30  C   UNL     1       1.293  -2.592  -2.687  0.00  0.00    +0.011 A 
BRANCH  25  31
ATOM     31  O   UNL     1       0.506  -0.818  -1.311  0.00  0.00    -0.492 OA
BRANCH  31  33
ATOM     32  C   UNL     1      -0.226   1.091  -0.021  0.00  0.00    +0.048 C 
ATOM     33  C   UNL     1      -0.201  -0.435  -0.129  0.00  0.00    +0.225 C 
ENDBRANCH  31  33
ENDBRANCH  25  31
ENDBRANCH  24  30
ENDBRANCH  20  24
ENDBRANCH  19  21
ENDBRANCH  18  19
ENDBRANCH   1  18
TORSDOF 7
