REMARK  Name = ZINC21219204
REMARK  4 active torsions:
REMARK  status: ('A' for Active; 'I' for Inactive)
REMARK    1  A    between atoms: C_4  and  C_7
REMARK    2  A    between atoms: C_12  and  C_22
REMARK    3  A    between atoms: C_25  and  O_31
REMARK    4  A    between atoms: C_26  and  N_28
REMARK                            x       y       z     vdW  Elec       q    Type
REMARK                         _______ _______ _______ _____ _____    ______ ____
ROOT
ATOM      1  C   UNL     1      -1.209  -1.992   4.130  0.00  0.00    +0.032 C 
ATOM      2  C   UNL     1      -1.664  -3.084   3.164  0.00  0.00    +0.059 C 
ATOM      3  C   UNL     1      -1.424  -2.643   1.730  0.00  0.00    +0.017 C 
ATOM      4  C   UNL     1      -1.502  -1.344   1.392  0.00  0.00    +0.036 C 
ATOM      5  C   UNL     1      -1.293  -0.774   0.010  0.00  0.00    +0.136 C 
ATOM      6  N   UNL     1      -1.247  -1.761  -1.048  0.00  0.00    -0.331 N 
ATOM      7  C   UNL     1      -0.222  -2.706  -1.103  0.00  0.00    +0.049 A 
ATOM      8  C   UNL     1       0.728  -2.684  -2.111  0.00  0.00    +0.025 A 
ATOM      9  C   UNL     1       1.792  -3.568  -2.062  0.00  0.00    +0.002 A 
ATOM     10  C   UNL     1       1.906  -4.468  -1.017  0.00  0.00    +0.002 A 
ATOM     11  C   UNL     1       0.946  -4.507  -0.020  0.00  0.00    +0.025 A 
ATOM     12  C   UNL     1      -0.127  -3.635  -0.078  0.00  0.00    +0.052 A 
ATOM     13  N   UNL     1      -1.150  -3.651   0.863  0.00  0.00    -0.316 N 
ATOM     14  C   UNL     1      -1.799  -0.370   2.375  0.00  0.00    +0.163 C 
ATOM     15  O   UNL     1      -1.883   0.795   2.039  0.00  0.00    -0.292 OA
ATOM     16  C   UNL     1      -2.015  -0.726   3.816  0.00  0.00    +0.088 C 
ATOM     17  H   UNL     1      -2.027  -1.773  -1.823  0.00  0.00    +0.147 HD
ATOM     18  H   UNL     1      -1.760  -4.567   0.874  0.00  0.00    +0.152 HD
ENDROOT
BRANCH   1  22
ATOM     19  C   UNL     1      -1.950  -3.218   8.154  0.00  0.00    +0.000 A 
ATOM     20  C   UNL     1      -0.661  -2.934   7.745  0.00  0.00    +0.000 A 
ATOM     21  C   UNL     1      -0.421  -2.537   6.442  0.00  0.00    +0.004 A 
ATOM     22  C   UNL     1      -1.470  -2.425   5.550  0.00  0.00    -0.044 A 
ATOM     23  C   UNL     1      -2.760  -2.704   5.961  0.00  0.00    +0.004 A 
ATOM     24  C   UNL     1      -2.999  -3.106   7.261  0.00  0.00    +0.000 A 
ENDBRANCH   1  22
BRANCH   5  25
ATOM     25  C   UNL     1       0.002  -0.004   0.002  0.00  0.00    -0.020 A 
ATOM     26  C   UNL     1       1.197  -0.661   0.231  0.00  0.00    +0.009 A 
ATOM     27  C   UNL     1       2.386   0.042   0.224  0.00  0.00    +0.048 A 
ATOM     28  C   UNL     1       2.380   1.409  -0.013  0.00  0.00    +0.147 A 
ATOM     29  C   UNL     1       1.180   2.066  -0.243  0.00  0.00    +0.168 A 
ATOM     30  C   UNL     1      -0.006   1.358  -0.234  0.00  0.00    +0.042 A 
BRANCH  29  31
ATOM     31  N   UNL     1       1.171   3.524  -0.496  0.00  0.00    +0.060 N 
ATOM     32  O   UNL     1       0.117   4.100  -0.698  0.00  0.00    -0.126 OA
ATOM     33  O   UNL     1       2.217   4.148  -0.503  0.00  0.00    -0.126 OA
ENDBRANCH  29  31
BRANCH  28  34
ATOM     34  O   UNL     1       3.548   2.104  -0.020  0.00  0.00    -0.504 OA
ATOM     35  H   UNL     1       3.543   3.188  -0.208  0.00  0.00    +0.292 HD
ENDBRANCH  28  34
ENDBRANCH   5  25
TORSDOF 4
