REMARK  Name = ZINC38040121
REMARK  3 active torsions:
REMARK  status: ('A' for Active; 'I' for Inactive)
REMARK    1  A    between atoms: C_1  and  C_2
REMARK    2  A    between atoms: N_8  and  C_9
REMARK    3  A    between atoms: C_12  and  N_16
REMARK                            x       y       z     vdW  Elec       q    Type
REMARK                         _______ _______ _______ _____ _____    ______ ____
ROOT
ATOM      1  C   UNL     1       1.407   0.382   2.037  0.00  0.00    +0.101 A 
ATOM      2  C   UNL     1       2.749   0.646   1.794  0.00  0.00    +0.149 A 
ATOM      3  C   UNL     1       3.443   1.512   2.620  0.00  0.00    +0.063 A 
ATOM      4  C   UNL     1       2.799   2.116   3.692  0.00  0.00    +0.030 A 
ATOM      5  C   UNL     1       1.457   1.852   3.934  0.00  0.00    +0.063 A 
ATOM      6  C   UNL     1       0.761   0.991   3.105  0.00  0.00    +0.149 A 
ATOM      7  F   UNL     1      -0.546   0.738   3.338  0.00  0.00    -0.203 F 
ATOM      8  F   UNL     1       3.377   0.058   0.752  0.00  0.00    -0.203 F 
ENDROOT
BRANCH   1  15
ATOM      9  C   UNL     1      -0.019   1.526   0.010  0.00  0.00    +0.030 C 
ATOM     10  C   UNL     1       0.002  -0.004   0.002  0.00  0.00    +0.096 C 
ATOM     11  C   UNL     1      -1.434  -0.540   0.026  0.00  0.00    +0.182 C 
ATOM     12  O   UNL     1      -1.404  -1.958   0.205  0.00  0.00    -0.376 OA
ATOM     13  C   UNL     1      -0.827  -2.379   1.443  0.00  0.00    +0.178 C 
ATOM     14  C   UNL     1       0.640  -1.938   1.492  0.00  0.00    +0.133 C 
ATOM     15  N   UNL     1       0.702  -0.497   1.199  0.00  0.00    -0.318 N 
ENDBRANCH   1  15
BRANCH   4  16
ATOM     16  N   UNL     1       3.502   2.991   4.528  0.00  0.00    -0.358 N 
ATOM     17  H   UNL     1       4.439   3.176   4.359  0.00  0.00    +0.142 HD
ATOM     18  H   UNL     1       3.052   3.413   5.276  0.00  0.00    +0.142 HD
ENDBRANCH   4  16
TORSDOF 2
