REMARK  Name = ZINC37538596
REMARK  13 active torsions:
REMARK  status: ('A' for Active; 'I' for Inactive)
REMARK    1  A    between atoms: CD1_1  and  CG_2
REMARK    2  A    between atoms: CG_2  and  CD2_3
REMARK    3  A    between atoms: CG_2  and  CB_4
REMARK    4  A    between atoms: CB_4  and  CA_5
REMARK    5  A    between atoms: N_9  and  C_43
REMARK    6  A    between atoms: CA_10  and  CB_36
REMARK    7  A    between atoms: N_14  and  C_35
REMARK    8  A    between atoms: CA_15  and  CB_28
REMARK    9  A    between atoms: CA_20  and  CB_25
REMARK   10  A    between atoms: CB_25  and  CG1_26
REMARK   11  A    between atoms: CB_25  and  CG2_27
REMARK   12  A    between atoms: CB_28  and  CG_29
REMARK   13  A    between atoms: CB_36  and  CG_37
REMARK                            x       y       z     vdW  Elec       q    Type
REMARK                         _______ _______ _______ _____ _____    ______ ____
ROOT
ATOM      1  CA  LEU A   4      -1.427  -2.610  -0.562  0.00  0.00    +0.159 C 
ATOM      2  C   LEU A   4      -2.838  -3.050  -0.372  0.00  0.00    +0.236 C 
ATOM      3  O   LEU A   4      -2.991  -4.130   0.223  0.00  0.00    -0.274 OA
ATOM      4  N   PHE A   1      -3.986  -2.433  -0.748  0.00  0.00    -0.291 N 
ATOM      5  CA  PHE A   1      -5.118  -3.422  -0.883  0.00  0.00    +0.166 C 
ATOM      6  C   PHE A   1      -4.759  -4.273  -2.070  0.00  0.00    +0.237 C 
ATOM      7  O   PHE A   1      -4.592  -3.730  -3.152  0.00  0.00    -0.274 OA
ATOM      8  N   PHE A   2      -4.627  -5.623  -1.991  0.00  0.00    -0.291 N 
ATOM      9  CA  PHE A   2      -3.889  -6.232  -3.134  0.00  0.00    +0.166 C 
ATOM     10  C   PHE A   2      -2.580  -5.477  -3.220  0.00  0.00    +0.234 C 
ATOM     11  O   PHE A   2      -1.812  -5.531  -2.283  0.00  0.00    -0.274 OA
ATOM     12  N   VAL A   3      -2.300  -4.764  -4.350  0.00  0.00    -0.302 N 
ATOM     13  CA  VAL A   3      -1.200  -3.768  -4.221  0.00  0.00    +0.161 C 
ATOM     14  C   VAL A   3      -1.486  -2.971  -2.972  0.00  0.00    +0.234 C 
ATOM     15  O   VAL A   3      -2.272  -2.043  -3.068  0.00  0.00    -0.274 OA
ATOM     16  N   LEU A   4      -0.897  -3.261  -1.789  0.00  0.00    -0.302 N 
ATOM     17  C   ACE A   0      -5.163  -6.442  -0.902  0.00  0.00    +0.133 C 
ATOM     18  C   ACE A   0      -4.227  -1.008  -0.979  0.00  0.00    +0.133 C 
ATOM     19  H   VAL A   3      -2.788  -4.899  -5.187  0.00  0.00    +0.150 HD
ATOM     20  H   LEU A   4      -0.140  -3.877  -1.711  0.00  0.00    +0.150 HD
ENDROOT
BRANCH  13  21
ATOM     21  CB  VAL A   3       0.166  -4.439  -4.186  0.00  0.00    +0.012 C 
ATOM     22  CG1 VAL A   3       0.387  -5.212  -5.488  0.00  0.00    +0.009 C 
ATOM     23  CG2 VAL A   3       1.254  -3.375  -4.034  0.00  0.00    +0.009 C 
ENDBRANCH  13  21
BRANCH   1  24
ATOM     24  CB  LEU A   4      -1.183  -1.113  -0.557  0.00  0.00    +0.034 C 
BRANCH  24  26
ATOM     25  CD1 LEU A   4       0.564   0.664  -0.739  0.00  0.00    +0.007 C 
ATOM     26  CG  LEU A   4       0.322  -0.842  -0.618  0.00  0.00    -0.015 C 
ATOM     27  CD2 LEU A   4       0.987  -1.365   0.657  0.00  0.00    +0.007 C 
ENDBRANCH  24  26
ENDBRANCH   1  24
BRANCH   9  28
ATOM     28  CB  PHE A   2      -3.623  -7.711  -2.859  0.00  0.00    +0.067 C 
BRANCH  28  29
ATOM     29  CG  PHE A   2      -2.994  -8.343  -4.073  0.00  0.00    -0.045 A 
ATOM     30  CD2 PHE A   2      -3.790  -8.797  -5.108  0.00  0.00    +0.004 A 
ATOM     31  CE2 PHE A   2      -3.212  -9.377  -6.222  0.00  0.00    +0.000 A 
ATOM     32  CZ  PHE A   2      -1.838  -9.502  -6.301  0.00  0.00    +0.000 A 
ATOM     33  CE1 PHE A   2      -1.042  -9.048  -5.267  0.00  0.00    +0.000 A 
ATOM     34  CD1 PHE A   2      -1.619  -8.464  -4.155  0.00  0.00    +0.004 A 
ENDBRANCH  28  29
ENDBRANCH   9  28
BRANCH   5  35
ATOM     35  CB  PHE A   1      -6.418  -2.659  -1.153  0.00  0.00    +0.067 C 
BRANCH  35  36
ATOM     36  CG  PHE A   1      -7.575  -3.624  -1.154  0.00  0.00    -0.045 A 
ATOM     37  CD2 PHE A   1      -7.912  -4.297  -2.314  0.00  0.00    +0.004 A 
ATOM     38  CE2 PHE A   1      -8.974  -5.182  -2.315  0.00  0.00    +0.000 A 
ATOM     39  CZ  PHE A   1      -9.699  -5.395  -1.157  0.00  0.00    +0.000 A 
ATOM     40  CE1 PHE A   1      -9.361  -4.722   0.002  0.00  0.00    +0.000 A 
ATOM     41  CD1 PHE A   1      -8.296  -3.840   0.005  0.00  0.00    +0.004 A 
ENDBRANCH  35  36
ENDBRANCH   5  35
TORSDOF 7
