REMARK  Name = ZINC66235202
REMARK  9 active torsions:
REMARK  status: ('A' for Active; 'I' for Inactive)
REMARK    1  A    between atoms: C_1  and  C_2
REMARK    2  A    between atoms: C_2  and  C_4
REMARK    3  A    between atoms: C_2  and  N_14
REMARK    4  A    between atoms: C_4  and  C_6
REMARK    5  A    between atoms: C_4  and  O_13
REMARK    6  A    between atoms: N_17  and  C_18
REMARK    7  A    between atoms: C_18  and  C_19
REMARK    8  A    between atoms: C_19  and  C_20
REMARK    9  A    between atoms: C_24  and  O_26
REMARK                            x       y       z     vdW  Elec       q    Type
REMARK                         _______ _______ _______ _____ _____    ______ ____
ROOT
ATOM      1  N   UNL     1      -1.372  -0.511   0.012  0.00  0.00    -0.294 N 
ATOM      2  C   UNL     1      -2.051  -0.643  -1.145  0.00  0.00    +0.300 C 
ATOM      3  O   UNL     1      -1.522  -0.341  -2.197  0.00  0.00    -0.253 OA
ATOM      4  N   UNL     1      -3.315  -1.109  -1.135  0.00  0.00    -0.299 N 
ATOM      5  H   UNL     1      -1.794  -0.752   0.852  0.00  0.00    +0.151 HD
ATOM      6  H   UNL     1      -3.737  -1.350  -0.295  0.00  0.00    +0.150 HD
ENDROOT
BRANCH   1   8
ATOM      7  C   UNL     1      -0.019   1.526   0.010  0.00  0.00    +0.031 C 
ATOM      8  C   UNL     1       0.002  -0.004   0.002  0.00  0.00    +0.104 C 
BRANCH   8   9
ATOM      9  C   UNL     1       0.742  -0.511   1.242  0.00  0.00    +0.164 C 
BRANCH   9  10
ATOM     10  C   UNL     1       2.188  -0.092   1.170  0.00  0.00    -0.017 A 
ATOM     11  C   UNL     1       2.569   1.157   1.623  0.00  0.00    +0.007 A 
ATOM     12  C   UNL     1       3.895   1.541   1.557  0.00  0.00    +0.015 A 
ATOM     13  C   UNL     1       4.841   0.676   1.038  0.00  0.00    +0.018 A 
ATOM     14  C   UNL     1       4.459  -0.574   0.585  0.00  0.00    +0.015 A 
ATOM     15  C   UNL     1       3.134  -0.960   0.656  0.00  0.00    +0.007 A 
ATOM     16 BR   UNL     1       6.655   1.201   0.948  0.00  0.00    -0.050 Br
ENDBRANCH   9  10
BRANCH   9  17
ATOM     17  O   UNL     1       0.143   0.044   2.414  0.00  0.00    -0.385 OA
ATOM     18  H   UNL     1       0.162   1.011   2.446  0.00  0.00    +0.210 HD
ENDBRANCH   9  17
ENDBRANCH   8   9
ENDBRANCH   1   8
BRANCH   4  19
ATOM     19  C   UNL     1      -4.053  -1.252  -2.393  0.00  0.00    +0.110 C 
BRANCH  19  20
ATOM     20  C   UNL     1      -5.453  -1.797  -2.104  0.00  0.00    +0.054 C 
BRANCH  20  21
ATOM     21  C   UNL     1      -6.212  -1.944  -3.398  0.00  0.00    -0.042 A 
ATOM     22  C   UNL     1      -6.967  -0.891  -3.879  0.00  0.00    +0.004 A 
ATOM     23  C   UNL     1      -7.664  -1.023  -5.066  0.00  0.00    +0.004 A 
ATOM     24  C   UNL     1      -7.608  -2.208  -5.773  0.00  0.00    +0.045 A 
ATOM     25  C   UNL     1      -6.851  -3.266  -5.292  0.00  0.00    +0.117 A 
ATOM     26  C   UNL     1      -6.147  -3.129  -4.104  0.00  0.00    +0.049 A 
BRANCH  25  27
ATOM     27  O   UNL     1      -6.794  -4.433  -5.986  0.00  0.00    -0.507 OA
ATOM     28  H   UNL     1      -6.076  -4.472  -6.633  0.00  0.00    +0.292 HD
ENDBRANCH  25  27
ENDBRANCH  20  21
ENDBRANCH  19  20
ENDBRANCH   4  19
TORSDOF 8
