REMARK  Name = ZINC21355777
REMARK  5 active torsions:
REMARK  status: ('A' for Active; 'I' for Inactive)
REMARK    1  A    between atoms: C_10  and  C_24
REMARK    2  A    between atoms: N_12  and  C_13
REMARK    3  A    between atoms: C_13  and  C_14
REMARK    4  A    between atoms: N_16  and  C_17
REMARK    5  A    between atoms: C_17  and  C_18
REMARK                            x       y       z     vdW  Elec       q    Type
REMARK                         _______ _______ _______ _____ _____    ______ ____
ROOT
ATOM      1  C   UNL     1      -0.277   1.334   0.806  0.00  0.00    +0.002 A 
ATOM      2  C   UNL     1       1.071   1.027   0.776  0.00  0.00    +0.002 A 
ATOM      3  C   UNL     1       1.490  -0.245   0.459  0.00  0.00    +0.025 A 
ATOM      4  C   UNL     1       0.568  -1.256   0.162  0.00  0.00    +0.052 A 
ATOM      5  C   UNL     1      -0.791  -0.956   0.300  0.00  0.00    +0.052 A 
ATOM      6  C   UNL     1      -1.206   0.340   0.567  0.00  0.00    +0.025 A 
ATOM      7  N   UNL     1      -1.741  -1.981   0.338  0.00  0.00    -0.316 N 
ATOM      8  C   UNL     1      -1.883  -2.874  -0.680  0.00  0.00    +0.017 C 
ATOM      9  C   UNL     1      -0.893  -3.734  -0.915  0.00  0.00    +0.037 C 
ATOM     10  C   UNL     1       0.354  -3.666  -0.071  0.00  0.00    +0.146 C 
ATOM     11  N   UNL     1       1.094  -2.451  -0.309  0.00  0.00    -0.308 N 
ATOM     12  C   UNL     1      -0.980  -4.701  -1.929  0.00  0.00    +0.163 C 
ATOM     13  O   UNL     1      -0.058  -5.471  -2.112  0.00  0.00    -0.292 OA
ATOM     14  C   UNL     1      -2.213  -4.789  -2.790  0.00  0.00    +0.080 C 
ATOM     15  C   UNL     1      -2.845  -3.398  -2.904  0.00  0.00    +0.014 C 
ATOM     16  C   UNL     1      -3.152  -2.878  -1.497  0.00  0.00    +0.051 C 
ATOM     17  H   UNL     1      -2.404  -2.084   1.210  0.00  0.00    +0.152 HD
ENDROOT
BRANCH  10  18
ATOM     18  C   UNL     1      -0.035  -3.728   1.384  0.00  0.00    +0.015 A 
ATOM     19  C   UNL     1       0.032  -4.776   2.241  0.00  0.00    +0.013 A 
ATOM     20  C   UNL     1      -0.384  -4.601   3.548  0.00  0.00    +0.008 A 
ATOM     21  C   UNL     1      -0.847  -3.386   3.933  0.00  0.00    +0.045 A 
ATOM     22  S   UNL     1      -0.697  -2.439   2.426  0.00  0.00    -0.099 S 
ENDBRANCH  10  18
BRANCH  11  23
ATOM     23  C   UNL     1       2.499  -2.603   0.094  0.00  0.00    +0.201 C 
BRANCH  23  24
ATOM     24  C   UNL     1       2.610  -2.464   1.591  0.00  0.00    +0.231 C 
ATOM     25  O   UNL     1       1.648  -2.113   2.240  0.00  0.00    -0.274 OA
ATOM     26  N   UNL     1       3.779  -2.731   2.207  0.00  0.00    -0.310 N 
ATOM     27  H   UNL     1       4.651  -3.050   1.617  0.00  0.00    +0.149 HD
BRANCH  26  28
ATOM     28  C   UNL     1       3.887  -2.597   3.662  0.00  0.00    +0.141 C 
BRANCH  28  29
ATOM     29  C   UNL     1       5.286  -2.951   4.096  0.00  0.00    -0.012 A 
ATOM     30  C   UNL     1       5.606  -4.257   4.434  0.00  0.00    +0.008 A 
ATOM     31  C   UNL     1       6.907  -4.537   4.824  0.00  0.00    +0.020 A 
ATOM     32  C   UNL     1       7.832  -3.511   4.871  0.00  0.00    +0.111 A 
ATOM     33  N   UNL     1       7.490  -2.279   4.548  0.00  0.00    -0.263 NA
ATOM     34  C   UNL     1       6.263  -1.977   4.168  0.00  0.00    +0.115 A 
ENDBRANCH  28  29
ENDBRANCH  26  28
ENDBRANCH  23  24
ENDBRANCH  11  23
TORSDOF 5
