REMARK  Name = ZINC09715896
REMARK  11 active torsions:
REMARK  status: ('A' for Active; 'I' for Inactive)
REMARK    1  A    between atoms: C_1  and  C_2
REMARK    2  A    between atoms: C_2  and  N_3
REMARK    3  A    between atoms: N_3  and  C_4
REMARK    4  A    between atoms: N_3  and  S_10
REMARK    5  A    between atoms: S_10  and  C_13
REMARK    6  A    between atoms: C_16  and  O_33
REMARK    7  A    between atoms: C_17  and  N_19
REMARK    8  A    between atoms: C_20  and  C_22
REMARK    9  A    between atoms: C_22  and  S_23
REMARK   10  A    between atoms: S_23  and  C_24
REMARK   11  A    between atoms: O_33  and  C_34
REMARK                            x       y       z     vdW  Elec       q    Type
REMARK                         _______ _______ _______ _____ _____    ______ ____
ROOT
ATOM      1  C   UNL     1      -3.561  -0.898   0.204  0.00  0.00    +0.111 A 
ATOM      2  C   UNL     1      -3.487  -2.276   0.290  0.00  0.00    +0.032 A 
ATOM      3  C   UNL     1      -2.257  -2.907   0.280  0.00  0.00    +0.049 A 
ATOM      4  C   UNL     1      -1.095  -2.159   0.178  0.00  0.00    +0.141 A 
ATOM      5  C   UNL     1      -1.169  -0.771   0.096  0.00  0.00    +0.077 A 
ATOM      6  C   UNL     1      -2.407  -0.144   0.107  0.00  0.00    +0.055 A 
ENDROOT
BRANCH   5   7
ATOM      7  N   UNL     1       0.003  -0.009  -0.002  0.00  0.00    -0.282 N 
ATOM      8  C   UNL     1       0.070   1.203   0.584  0.00  0.00    +0.228 C 
ATOM      9  O   UNL     1      -0.911   1.672   1.121  0.00  0.00    -0.275 OA
ATOM     10  H   UNL     1       0.766  -0.354  -0.491  0.00  0.00    +0.155 HD
BRANCH   8  11
ATOM     11  C   UNL     1       1.362   1.978   0.565  0.00  0.00    +0.175 C 
BRANCH  11  12
ATOM     12  S   UNL     1       1.133   3.554   1.426  0.00  0.00    -0.058 S 
BRANCH  12  13
ATOM     13  C   UNL     1       2.750   4.233   1.257  0.00  0.00    +0.258 A 
ATOM     14  N   UNL     1       3.752   3.644   0.654  0.00  0.00    -0.203 NA
ATOM     15  C   UNL     1       4.839   4.461   0.715  0.00  0.00    +0.110 A 
ATOM     16  C   UNL     1       6.151   4.356   0.250  0.00  0.00    +0.031 A 
ATOM     17  C   UNL     1       7.043   5.380   0.483  0.00  0.00    +0.002 A 
ATOM     18  C   UNL     1       6.644   6.513   1.176  0.00  0.00    +0.004 A 
ATOM     19  C   UNL     1       5.349   6.630   1.640  0.00  0.00    +0.048 A 
ATOM     20  C   UNL     1       4.440   5.610   1.415  0.00  0.00    +0.156 A 
ATOM     21  O   UNL     1       3.137   5.429   1.734  0.00  0.00    -0.431 OA
ENDBRANCH  12  13
ENDBRANCH  11  12
ENDBRANCH   8  11
ENDBRANCH   5   7
BRANCH   1  22
ATOM     22  S   UNL     1      -5.132  -0.100   0.217  0.00  0.00    +0.075 S 
ATOM     23  O   UNL     1      -6.033  -0.988   0.864  0.00  0.00    -0.150 OA
ATOM     24  O   UNL     1      -4.910   1.227   0.673  0.00  0.00    -0.150 OA
BRANCH  22  25
ATOM     25  N   UNL     1      -5.634   0.018  -1.357  0.00  0.00    -0.203 N 
BRANCH  25  26
ATOM     26  C   UNL     1      -5.215   1.093  -2.145  0.00  0.00    +0.051 A 
ATOM     27  C   UNL     1      -4.484   0.863  -3.304  0.00  0.00    +0.025 A 
ATOM     28  C   UNL     1      -4.075   1.927  -4.083  0.00  0.00    +0.002 A 
ATOM     29  C   UNL     1      -4.383   3.221  -3.705  0.00  0.00    +0.000 A 
ATOM     30  C   UNL     1      -5.105   3.454  -2.549  0.00  0.00    +0.002 A 
ATOM     31  C   UNL     1      -5.522   2.394  -1.768  0.00  0.00    +0.025 A 
ENDBRANCH  25  26
BRANCH  25  33
ATOM     32  C   UNL     1      -7.972  -0.541  -1.807  0.00  0.00    +0.026 C 
ATOM     33  C   UNL     1      -6.519  -1.004  -1.923  0.00  0.00    +0.128 C 
ENDBRANCH  25  33
ENDBRANCH  22  25
ENDBRANCH   1  22
BRANCH   4  34
ATOM     34  O   UNL     1       0.115  -2.779   0.162  0.00  0.00    -0.493 OA
ATOM     35  C   UNL     1       0.115  -4.206   0.250  0.00  0.00    +0.277 C 
ENDBRANCH   4  34
TORSDOF 9
