REMARK  Name = ZINC09884363
REMARK  12 active torsions:
REMARK  status: ('A' for Active; 'I' for Inactive)
REMARK    1  A    between atoms: C_1  and  O_2
REMARK    2  A    between atoms: O_2  and  C_3
REMARK    3  A    between atoms: C_3  and  C_4
REMARK    4  A    between atoms: C_4  and  C_5
REMARK    5  A    between atoms: C_5  and  N_6
REMARK    6  A    between atoms: C_7  and  C_29
REMARK    7  A    between atoms: C_10  and  S_11
REMARK    8  A    between atoms: S_11  and  C_12
REMARK    9  A    between atoms: C_12  and  C_13
REMARK   10  A    between atoms: C_21  and  C_25
REMARK   11  A    between atoms: C_25  and  O_27
REMARK   12  A    between atoms: O_27  and  C_28
REMARK                            x       y       z     vdW  Elec       q    Type
REMARK                         _______ _______ _______ _____ _____    ______ ____
ROOT
ATOM      1  S   UNL     1      -1.739  -1.047   3.033  0.00  0.00    -0.078 S 
ENDROOT
BRANCH   1   6
ATOM      2  N   UNL     1      -0.119   1.185   2.566  0.00  0.00    -0.302 N 
ATOM      3  C   UNL     1       1.064   1.675   3.070  0.00  0.00    +0.165 A 
ATOM      4  N   UNL     1       1.473   0.828   3.986  0.00  0.00    -0.128 NA
ATOM      5  N   UNL     1       0.639  -0.145   4.087  0.00  0.00    -0.122 NA
ATOM      6  C   UNL     1      -0.356   0.025   3.246  0.00  0.00    +0.192 A 
BRANCH   3   7
ATOM      7  C   UNL     1       1.745   2.921   2.659  0.00  0.00    +0.019 A 
ATOM      8  C   UNL     1       1.441   3.514   1.433  0.00  0.00    +0.013 A 
ATOM      9  C   UNL     1       2.076   4.679   1.056  0.00  0.00    +0.021 A 
ATOM     10  C   UNL     1       3.022   5.255   1.889  0.00  0.00    +0.041 A 
ATOM     11  C   UNL     1       3.331   4.668   3.104  0.00  0.00    +0.021 A 
ATOM     12  C   UNL     1       2.699   3.506   3.493  0.00  0.00    +0.013 A 
ATOM     13 CL   UNL     1       3.822   6.718   1.406  0.00  0.00    -0.084 Cl
ENDBRANCH   3   7
BRANCH   2  14
ATOM     14  C   UNL     1      -0.952   1.785   1.522  0.00  0.00    +0.128 C 
BRANCH  14  15
ATOM     15  C   UNL     1      -0.570   1.196   0.162  0.00  0.00    +0.050 C 
BRANCH  15  16
ATOM     16  C   UNL     1      -1.441   1.823  -0.928  0.00  0.00    +0.161 C 
BRANCH  16  18
ATOM     17  C   UNL     1      -1.842   1.795  -3.291  0.00  0.00    +0.193 C 
ATOM     18  O   UNL     1      -1.084   1.273  -2.198  0.00  0.00    -0.383 OA
ENDBRANCH  16  18
ENDBRANCH  15  16
ENDBRANCH  14  15
ENDBRANCH   2  14
ENDBRANCH   1   6
BRANCH   1  19
ATOM     19  C   UNL     1      -1.341  -2.320   4.257  0.00  0.00    +0.151 C 
BRANCH  19  20
ATOM     20  C   UNL     1      -2.417  -3.375   4.253  0.00  0.00    +0.121 A 
ATOM     21  N   UNL     1      -2.296  -4.422   5.109  0.00  0.00    -0.310 N 
ATOM     22  H   UNL     1      -1.530  -4.473   5.701  0.00  0.00    +0.170 HD
ATOM     23  C   UNL     1      -3.236  -5.396   5.145  0.00  0.00    +0.259 A 
ATOM     24  O   UNL     1      -3.141  -6.339   5.908  0.00  0.00    -0.267 OA
ATOM     25  C   UNL     1      -4.379  -5.268   4.225  0.00  0.00    +0.065 A 
ATOM     26  C   UNL     1      -5.399  -6.217   4.186  0.00  0.00    +0.016 A 
ATOM     27  C   UNL     1      -6.441  -6.060   3.316  0.00  0.00    +0.016 A 
ATOM     28  C   UNL     1      -6.495  -4.951   2.463  0.00  0.00    +0.061 A 
ATOM     29  C   UNL     1      -5.488  -3.993   2.487  0.00  0.00    +0.043 A 
ATOM     30  C   UNL     1      -4.419  -4.144   3.371  0.00  0.00    +0.079 A 
ATOM     31  N   UNL     1      -3.415  -3.233   3.434  0.00  0.00    -0.233 NA
BRANCH  28  32
ATOM     32  C   UNL     1      -7.632  -4.798   1.529  0.00  0.00    +0.339 C 
ATOM     33  O   UNL     1      -7.684  -3.838   0.786  0.00  0.00    -0.245 OA
BRANCH  32  34
ATOM     34  O   UNL     1      -8.610  -5.724   1.502  0.00  0.00    -0.464 OA
ATOM     35  C   UNL     1      -9.695  -5.509   0.560  0.00  0.00    +0.280 C 
ENDBRANCH  32  34
ENDBRANCH  28  32
ENDBRANCH  19  20
ENDBRANCH   1  19
TORSDOF 10
