REMARK  Name = ZINC12920962
REMARK  5 active torsions:
REMARK  status: ('A' for Active; 'I' for Inactive)
REMARK    1  A    between atoms: C_6  and  C_7
REMARK    2  A    between atoms: C_9  and  N_12
REMARK    3  A    between atoms: C_13  and  C_15
REMARK    4  A    between atoms: N_17  and  C_24
REMARK    5  A    between atoms: C_18  and  C_21
REMARK                            x       y       z     vdW  Elec       q    Type
REMARK                         _______ _______ _______ _____ _____    ______ ____
ROOT
ATOM      1  C   UNL     1      -2.816  -6.054  -0.003  0.00  0.00    +0.128 C 
ATOM      2  N   UNL     1      -2.097  -7.131  -0.010  0.00  0.00    -0.178 NA
ATOM      3  N   UNL     1      -2.842  -8.309  -0.010  0.00  0.00    -0.212 N 
ATOM      4  C   UNL     1      -4.273  -7.968  -0.000  0.00  0.00    +0.189 C 
ATOM      5  C   UNL     1      -4.281  -6.427   0.010  0.00  0.00    +0.096 C 
ENDROOT
BRANCH   3   6
ATOM      6  C   UNL     1      -2.316  -9.602  -0.018  0.00  0.00    +0.053 A 
ATOM      7  C   UNL     1      -3.167 -10.700  -0.023  0.00  0.00    +0.028 A 
ATOM      8  C   UNL     1      -2.644 -11.978  -0.030  0.00  0.00    +0.040 A 
ATOM      9  C   UNL     1      -1.272 -12.166  -0.033  0.00  0.00    +0.124 A 
ATOM     10  C   UNL     1      -0.421 -11.073  -0.028  0.00  0.00    +0.040 A 
ATOM     11  C   UNL     1      -0.939  -9.793  -0.026  0.00  0.00    +0.028 A 
ATOM     12  F   UNL     1      -0.763 -13.417  -0.040  0.00  0.00    -0.205 F 
ENDBRANCH   3   6
BRANCH   4  13
ATOM     13  C   UNL     1      -4.953  -8.500  -1.236  0.00  0.00    +0.233 C 
ATOM     14  O   UNL     1      -4.293  -8.807  -2.206  0.00  0.00    -0.274 OA
ATOM     15  N   UNL     1      -6.293  -8.635  -1.262  0.00  0.00    -0.328 N 
ATOM     16  H   UNL     1      -6.821  -8.390  -0.486  0.00  0.00    +0.145 HD
ATOM     17  H   UNL     1      -6.731  -8.978  -2.057  0.00  0.00    +0.145 HD
ENDBRANCH   4  13
BRANCH   1  19
ATOM     18  N   UNL     1      -3.137  -3.706   0.014  0.00  0.00    -0.171 NA
ATOM     19  C   UNL     1      -2.308  -4.730  -0.000  0.00  0.00    +0.296 C 
ATOM     20  O   UNL     1      -0.972  -4.519  -0.013  0.00  0.00    -0.264 OA
BRANCH  18  23
ATOM     21  C   UNL     1      -1.272  -0.765   0.011  0.00  0.00    +0.183 A 
ATOM     22  N   UNL     1      -1.377  -2.100   0.004  0.00  0.00    -0.190 NA
ATOM     23  C   UNL     1      -2.653  -2.444   0.016  0.00  0.00    +0.250 A 
ATOM     24  N   UNL     1      -3.393  -1.300   0.030  0.00  0.00    -0.243 N 
ATOM     25  N   UNL     1      -2.475  -0.237   0.031  0.00  0.00    -0.151 NA
ATOM     26  H   UNL     1      -4.360  -1.233   0.040  0.00  0.00    +0.192 HD
BRANCH  21  32
ATOM     27  C   UNL     1      -0.017   1.389   0.010  0.00  0.00    +0.014 A 
ATOM     28  C   UNL     1       1.170   2.093   0.002  0.00  0.00    +0.039 A 
ATOM     29  C   UNL     1       2.379   1.417  -0.013  0.00  0.00    +0.123 A 
ATOM     30  C   UNL     1       2.402   0.032  -0.022  0.00  0.00    +0.039 A 
ATOM     31  C   UNL     1       1.220  -0.680  -0.014  0.00  0.00    +0.014 A 
ATOM     32  C   UNL     1       0.002  -0.004   0.002  0.00  0.00    +0.021 A 
ATOM     33  F   UNL     1       3.538   2.110  -0.021  0.00  0.00    -0.205 F 
ENDBRANCH  21  32
ENDBRANCH  18  23
ENDBRANCH   1  19
TORSDOF 5
