REMARK  Name = ZINC14196728
REMARK  8 active torsions:
REMARK  status: ('A' for Active; 'I' for Inactive)
REMARK    1  A    between atoms: C_1  and  C_2
REMARK    2  A    between atoms: C_2  and  C_4
REMARK    3  A    between atoms: C_2  and  N_14
REMARK    4  A    between atoms: N_14  and  C_15
REMARK    5  A    between atoms: C_15  and  C_17
REMARK    6  A    between atoms: C_15  and  C_18
REMARK    7  A    between atoms: N_20  and  C_21
REMARK    8  A    between atoms: C_22  and  C_29
REMARK                            x       y       z     vdW  Elec       q    Type
REMARK                         _______ _______ _______ _____ _____    ______ ____
ROOT
ATOM      1  C   UNL     1       0.425  -1.828   3.214  0.00  0.00    +0.234 C 
ATOM      2  O   UNL     1       1.496  -2.336   2.957  0.00  0.00    -0.274 OA
ATOM      3  N   UNL     1      -0.235  -2.180   4.336  0.00  0.00    -0.278 N 
ATOM      4  H   UNL     1      -1.092  -1.774   4.542  0.00  0.00    +0.155 HD
ENDROOT
BRANCH   3   5
ATOM      5  C   UNL     1       0.311  -3.121   5.195  0.00  0.00    +0.084 A 
ATOM      6  C   UNL     1      -0.221  -3.603   6.377  0.00  0.00    +0.068 A 
ATOM      7  C   UNL     1       0.559  -4.603   7.104  0.00  0.00    -0.023 A 
ATOM      8  C   UNL     1       1.722  -4.928   6.512  0.00  0.00    -0.004 A 
ATOM      9  S   UNL     1       1.764  -3.942   5.037  0.00  0.00    -0.077 S 
ATOM     10  C   UNL     1       2.486  -5.956   7.302  0.00  0.00    +0.043 C 
ATOM     11  C   UNL     1       1.843  -5.926   8.706  0.00  0.00    +0.010 C 
ATOM     12  C   UNL     1       0.422  -5.414   8.391  0.00  0.00    +0.037 C 
BRANCH   6  13
ATOM     13  C   UNL     1      -1.515  -3.131   6.880  0.00  0.00    +0.244 C 
ATOM     14  O   UNL     1      -2.539  -3.703   6.556  0.00  0.00    -0.270 OA
ATOM     15  N   UNL     1      -1.569  -2.064   7.701  0.00  0.00    -0.325 N 
ATOM     16  H   UNL     1      -0.753  -1.608   7.959  0.00  0.00    +0.145 HD
ATOM     17  H   UNL     1      -2.425  -1.751   8.034  0.00  0.00    +0.145 HD
ENDBRANCH   6  13
ENDBRANCH   3   5
BRANCH   1  18
ATOM     18  C   UNL     1      -0.169  -0.805   2.281  0.00  0.00    +0.138 C 
ATOM     19  C   UNL     1      -0.359   0.517   3.027  0.00  0.00    +0.034 C 
BRANCH  18  20
ATOM     20  N   UNL     1       0.736  -0.599   1.142  0.00  0.00    -0.299 NA
ATOM     21  H   UNL     1       1.231  -1.448   0.914  0.00  0.00    +0.123 HD
BRANCH  20  23
ATOM     22  C   UNL     1       0.977   0.644  -0.955  0.00  0.00    +0.029 C 
ATOM     23  C   UNL     1       0.005  -0.086  -0.025  0.00  0.00    +0.081 C 
BRANCH  23  24
ATOM     24  C   UNL     1      -0.629  -1.236  -0.765  0.00  0.00    -0.030 A 
ATOM     25  C   UNL     1       0.057  -2.426  -0.916  0.00  0.00    +0.005 A 
ATOM     26  C   UNL     1      -0.529  -3.473  -1.597  0.00  0.00    +0.004 A 
ATOM     27  C   UNL     1      -1.805  -3.341  -2.131  0.00  0.00    -0.044 A 
ATOM     28  C   UNL     1      -2.490  -2.158  -1.976  0.00  0.00    -0.044 A 
ATOM     29  C   UNL     1      -1.899  -1.106  -1.288  0.00  0.00    +0.009 A 
ATOM     30  C   UNL     1      -3.882  -1.950  -2.514  0.00  0.00    +0.035 C 
ATOM     31  C   UNL     1      -4.209  -2.998  -3.575  0.00  0.00    +0.005 C 
ATOM     32  C   UNL     1      -3.897  -4.384  -3.000  0.00  0.00    +0.005 C 
ATOM     33  C   UNL     1      -2.381  -4.521  -2.869  0.00  0.00    +0.035 C 
ENDBRANCH  23  24
ENDBRANCH  20  23
ENDBRANCH  18  20
ENDBRANCH   1  18
TORSDOF 6
