REMARK  Name = ZINC23447266
REMARK  11 active torsions:
REMARK  status: ('A' for Active; 'I' for Inactive)
REMARK    1  A    between atoms: C_1  and  C_2
REMARK    2  A    between atoms: C_2  and  C_3
REMARK    3  A    between atoms: C_2  and  C_4
REMARK    4  A    between atoms: C_7  and  S_10
REMARK    5  A    between atoms: S_10  and  N_13
REMARK    6  A    between atoms: N_16  and  C_19
REMARK    7  A    between atoms: C_19  and  C_20
REMARK    8  A    between atoms: C_20  and  O_21
REMARK    9  A    between atoms: O_21  and  C_22
REMARK   10  A    between atoms: C_22  and  C_24
REMARK   11  A    between atoms: C_22  and  C_30
REMARK                            x       y       z     vdW  Elec       q    Type
REMARK                         _______ _______ _______ _____ _____    ______ ____
ROOT
ATOM      1  N   UNL     1      -3.172   1.208   5.213  0.00  0.00    -0.180 NA
ATOM      2  C   UNL     1      -4.319   1.970   5.731  0.00  0.00    +0.091 C 
ATOM      3  C   UNL     1      -5.240   2.321   4.558  0.00  0.00    -0.061 C 
ATOM      4  N   UNL     1      -4.462   3.002   3.515  0.00  0.00    +0.383 N 
ATOM      5  C   UNL     1      -3.421   2.122   2.966  0.00  0.00    -0.061 C 
ATOM      6  C   UNL     1      -2.425   1.764   4.074  0.00  0.00    +0.091 C 
ATOM      7  H   UNL     1      -3.962   3.864   3.980  0.00  0.00    -0.082 HD
ENDROOT
BRANCH   1   8
ATOM      8  S   UNL     1      -2.735  -0.236   5.894  0.00  0.00    +0.061 S 
ATOM      9  O   UNL     1      -1.359  -0.427   5.592  0.00  0.00    -0.153 OA
ATOM     10  O   UNL     1      -3.227  -0.223   7.226  0.00  0.00    -0.153 OA
BRANCH   8  14
ATOM     11  C   UNL     1      -5.002  -3.489   3.708  0.00  0.00    -0.045 A 
ATOM     12  C   UNL     1      -3.758  -3.090   3.256  0.00  0.00    +0.006 A 
ATOM     13  C   UNL     1      -3.065  -2.097   3.924  0.00  0.00    +0.029 A 
ATOM     14  C   UNL     1      -3.617  -1.502   5.043  0.00  0.00    +0.105 A 
ATOM     15  C   UNL     1      -4.859  -1.905   5.498  0.00  0.00    +0.029 A 
ATOM     16  C   UNL     1      -5.553  -2.894   4.828  0.00  0.00    +0.006 A 
BRANCH  11  18
ATOM     17  C   UNL     1      -6.013  -5.741   3.931  0.00  0.00    +0.012 C 
ATOM     18  C   UNL     1      -5.757  -4.570   2.980  0.00  0.00    +0.013 C 
ATOM     19  C   UNL     1      -7.093  -4.014   2.484  0.00  0.00    +0.012 C 
ENDBRANCH  11  18
ENDBRANCH   8  14
ENDBRANCH   1   8
BRANCH   4  20
ATOM     20  C   UNL     1      -5.339   3.507   2.450  0.00  0.00    -0.050 C 
BRANCH  20  21
ATOM     21  C   UNL     1      -6.062   4.764   2.938  0.00  0.00    +0.142 C 
BRANCH  21  22
ATOM     22  O   UNL     1      -5.109   5.803   3.168  0.00  0.00    -0.369 OA
BRANCH  22  23
ATOM     23  C   UNL     1      -5.684   7.028   3.629  0.00  0.00    +0.178 C 
BRANCH  23  24
ATOM     24  C   UNL     1      -4.692   7.751   4.503  0.00  0.00    -0.012 A 
ATOM     25  C   UNL     1      -5.122   8.396   5.647  0.00  0.00    +0.009 A 
ATOM     26  C   UNL     1      -4.213   9.059   6.451  0.00  0.00    +0.041 A 
ATOM     27  C   UNL     1      -2.872   9.078   6.110  0.00  0.00    +0.158 A 
ATOM     28  C   UNL     1      -2.441   8.431   4.962  0.00  0.00    +0.159 A 
ATOM     29  C   UNL     1      -3.354   7.772   4.156  0.00  0.00    +0.047 A 
ATOM     30  F   UNL     1      -1.132   8.448   4.627  0.00  0.00    -0.202 F 
ATOM     31  F   UNL     1      -1.984   9.727   6.894  0.00  0.00    -0.202 F 
ENDBRANCH  23  24
BRANCH  23  32
ATOM     32  C   UNL     1      -6.037   7.893   2.447  0.00  0.00    -0.015 A 
ATOM     33  C   UNL     1      -5.234   7.888   1.321  0.00  0.00    +0.006 A 
ATOM     34  C   UNL     1      -5.560   8.678   0.236  0.00  0.00    +0.000 A 
ATOM     35  C   UNL     1      -6.684   9.482   0.278  0.00  0.00    +0.000 A 
ATOM     36  C   UNL     1      -7.484   9.492   1.406  0.00  0.00    +0.000 A 
ATOM     37  C   UNL     1      -7.160   8.698   2.490  0.00  0.00    +0.006 A 
ENDBRANCH  23  32
ENDBRANCH  22  23
ENDBRANCH  21  22
ENDBRANCH  20  21
ENDBRANCH   4  20
TORSDOF 9
