REMARK  Name = ZINC40318645
REMARK  11 active torsions:
REMARK  status: ('A' for Active; 'I' for Inactive)
REMARK    1  A    between atoms: C_3  and  C_35
REMARK    2  A    between atoms: C_5  and  O_7
REMARK    3  A    between atoms: O_7  and  C_8
REMARK    4  A    between atoms: C_8  and  C_9
REMARK    5  A    between atoms: C_9  and  C_11
REMARK    6  A    between atoms: C_9  and  O_34
REMARK    7  A    between atoms: C_11  and  N_12
REMARK    8  A    between atoms: N_12  and  C_13
REMARK    9  A    between atoms: N_12  and  C_26
REMARK   10  A    between atoms: C_13  and  C_14
REMARK   11  A    between atoms: C_17  and  C_19
REMARK                            x       y       z     vdW  Elec       q    Type
REMARK                         _______ _______ _______ _____ _____    ______ ____
ROOT
ATOM      1  N   UNL     1      -1.175  -6.233   0.443  0.00  0.00    +0.389 N 
ATOM      2  H   UNL     1      -1.085  -6.633   1.365  0.00  0.00    -0.081 HD
ENDROOT
BRANCH   1   3
ATOM      3  C   UNL     1       0.107  -6.346  -0.266  0.00  0.00    -0.045 C 
ATOM      4  C   UNL     1       0.605  -7.800  -0.210  0.00  0.00    +0.009 C 
ATOM      5  C   UNL     1       2.083  -7.870  -0.664  0.00  0.00    +0.164 C 
ATOM      6  S   UNL     1       2.723  -6.205  -0.213  0.00  0.00    -0.033 S 
ATOM      7  O   UNL     1       3.119  -5.526  -1.397  0.00  0.00    -0.174 OA
ATOM      8  O   UNL     1       3.646  -6.340   0.859  0.00  0.00    -0.174 OA
ATOM      9  C   UNL     1       1.170  -5.444   0.424  0.00  0.00    +0.151 C 
ENDBRANCH   1   3
BRANCH   1  10
ATOM     10  C   UNL     1      -1.547  -4.817   0.558  0.00  0.00    -0.043 C 
BRANCH  10  11
ATOM     11  C   UNL     1      -1.539  -4.405   2.031  0.00  0.00    +0.135 C 
BRANCH  11  12
ATOM     12  O   UNL     1      -2.567  -5.111   2.729  0.00  0.00    -0.390 OA
ATOM     13  H   UNL     1      -3.458  -4.944   2.391  0.00  0.00    +0.210 HD
ENDBRANCH  11  12
BRANCH  11  14
ATOM     14  C   UNL     1      -1.789  -2.900   2.142  0.00  0.00    +0.258 C 
BRANCH  14  15
ATOM     15  O   UNL     1      -1.667  -2.495   3.507  0.00  0.00    -0.489 OA
BRANCH  15  20
ATOM     16  C   UNL     1      -2.361   1.048   3.022  0.00  0.00    +0.004 A 
ATOM     17  C   UNL     1      -2.260   1.519   4.315  0.00  0.00    +0.011 A 
ATOM     18  C   UNL     1      -1.956   0.637   5.357  0.00  0.00    +0.018 A 
ATOM     19  C   UNL     1      -1.756  -0.719   5.081  0.00  0.00    +0.056 A 
ATOM     20  C   UNL     1      -1.860  -1.178   3.780  0.00  0.00    +0.121 A 
ATOM     21  C   UNL     1      -2.163  -0.293   2.752  0.00  0.00    +0.046 A 
BRANCH  18  22
ATOM     22  C   UNL     1      -1.847   1.134   6.738  0.00  0.00    +0.258 C 
ATOM     23  O   UNL     1      -2.021   2.311   6.974  0.00  0.00    -0.296 OA
ENDBRANCH  18  22
ENDBRANCH  15  20
ENDBRANCH  14  15
ENDBRANCH  11  14
ENDBRANCH  10  11
ENDBRANCH   1  10
BRANCH   1  24
ATOM     24  C   UNL     1      -2.213  -6.954  -0.305  0.00  0.00    -0.003 C 
BRANCH  24  25
ATOM     25  C   UNL     1      -1.907  -8.429  -0.295  0.00  0.00    +0.089 A 
ATOM     26  C   UNL     1      -1.895  -9.222   0.795  0.00  0.00    +0.043 A 
ATOM     27  C   UNL     1      -1.563 -10.520   0.357  0.00  0.00    +0.050 A 
ATOM     28  C   UNL     1      -1.389 -10.447  -0.989  0.00  0.00    +0.135 A 
ATOM     29  O   UNL     1      -1.606  -9.174  -1.371  0.00  0.00    -0.462 OA
BRANCH  28  30
ATOM     30  C   UNL     1      -1.030 -11.571  -1.879  0.00  0.00    +0.019 A 
ATOM     31  C   UNL     1      -0.843 -12.850  -1.353  0.00  0.00    +0.011 A 
ATOM     32  C   UNL     1      -0.508 -13.895  -2.188  0.00  0.00    +0.002 A 
ATOM     33  C   UNL     1      -0.356 -13.678  -3.546  0.00  0.00    +0.020 A 
ATOM     34  C   UNL     1      -0.539 -12.411  -4.076  0.00  0.00    +0.042 A 
ATOM     35  C   UNL     1      -0.881 -11.358  -3.251  0.00  0.00    +0.031 A 
ATOM     36 CL   UNL     1      -0.345 -12.149  -5.781  0.00  0.00    -0.084 Cl
ENDBRANCH  28  30
ENDBRANCH  24  25
ENDBRANCH   1  24
TORSDOF 11
