REMARK  Name = ZINC21808708
REMARK  10 active torsions:
REMARK  status: ('A' for Active; 'I' for Inactive)
REMARK    1  A    between atoms: C_1  and  C_2
REMARK    2  A    between atoms: C_2  and  C_3
REMARK    3  A    between atoms: N_9  and  C_10
REMARK    4  A    between atoms: C_10  and  C_11
REMARK    5  A    between atoms: C_11  and  C_12
REMARK    6  A    between atoms: C_12  and  N_13
REMARK    7  A    between atoms: C_22  and  C_23
REMARK    8  A    between atoms: C_22  and  C_24
REMARK    9  A    between atoms: N_26  and  C_27
REMARK   10  A    between atoms: C_30  and  C_33
REMARK                            x       y       z     vdW  Elec       q    Type
REMARK                         _______ _______ _______ _____ _____    ______ ____
ROOT
ATOM      1  N   UNL     1      -3.461   2.607  -0.072  0.00  0.00    -0.281 N 
ATOM      2  C   UNL     1      -2.583   1.597   0.135  0.00  0.00    +0.264 C 
ATOM      3  O   UNL     1      -2.953   0.450   0.306  0.00  0.00    -0.268 OA
ATOM      4  C   UNL     1      -1.161   1.962   0.134  0.00  0.00    +0.106 A 
ATOM      5  C   UNL     1      -0.043   1.182   0.137  0.00  0.00    +0.048 A 
ATOM      6  C   UNL     1       1.052   2.037   0.150  0.00  0.00    +0.038 A 
ATOM      7  C   UNL     1       0.609   3.368   0.164  0.00  0.00    +0.057 A 
ATOM      8  N   UNL     1      -0.772   3.297   0.166  0.00  0.00    -0.333 N 
ATOM      9  C   UNL     1      -1.749   4.388   0.199  0.00  0.00    +0.157 C 
ATOM     10  C   UNL     1      -3.029   3.932  -0.502  0.00  0.00    +0.128 C 
ATOM     11  C   UNL     1      -4.143   4.936  -0.199  0.00  0.00    +0.043 C 
ATOM     12  C   UNL     1       1.618   4.343   0.175  0.00  0.00    +0.034 A 
ATOM     13  C   UNL     1       2.917   3.976   0.175  0.00  0.00    +0.048 A 
ATOM     14  S   UNL     1       2.820   2.194   0.158  0.00  0.00    -0.095 S 
ENDROOT
BRANCH  10  15
ATOM     15  C   UNL     1      -2.788   3.907  -1.989  0.00  0.00    +0.238 C 
ATOM     16  O   UNL     1      -3.094   4.863  -2.669  0.00  0.00    -0.273 OA
ATOM     17  N   UNL     1      -2.232   2.822  -2.563  0.00  0.00    -0.311 N 
ATOM     18  H   UNL     1      -1.954   1.954  -1.947  0.00  0.00    +0.149 HD
BRANCH  17  19
ATOM     19  C   UNL     1      -1.998   2.797  -4.009  0.00  0.00    +0.073 C 
ATOM     20  C   UNL     1      -3.271   2.342  -4.725  0.00  0.00    +0.022 C 
ATOM     21  C   UNL     1      -3.026   2.317  -6.235  0.00  0.00    +0.005 C 
ATOM     22  C   UNL     1      -1.889   1.344  -6.551  0.00  0.00    -0.014 C 
ATOM     23  C   UNL     1      -0.615   1.799  -5.835  0.00  0.00    +0.005 C 
ATOM     24  C   UNL     1      -0.860   1.824  -4.325  0.00  0.00    +0.022 C 
ATOM     25  C   UNL     1      -1.644   1.318  -8.061  0.00  0.00    +0.007 C 
ENDBRANCH  17  19
ENDBRANCH  10  15
BRANCH   1  26
ATOM     26  C   UNL     1      -4.890   2.361   0.143  0.00  0.00    +0.107 C 
BRANCH  26  27
ATOM     27  C   UNL     1      -5.525   1.874  -1.161  0.00  0.00    +0.000 C 
BRANCH  27  28
ATOM     28  C   UNL     1      -7.016   1.617  -0.937  0.00  0.00    -0.077 C 
BRANCH  28  34
ATOM     29  C   UNL     1      -8.949   0.561  -1.942  0.00  0.00    -0.069 C 
ATOM     30  C   UNL     1      -9.490  -0.045  -3.239  0.00  0.00    -0.015 C 
ATOM     31  C   UNL     1      -9.587   1.049  -4.306  0.00  0.00    -0.003 C 
ATOM     32  C   UNL     1      -8.205   1.677  -4.510  0.00  0.00    -0.019 C 
ATOM     33  C   UNL     1      -7.702   2.233  -3.175  0.00  0.00    -0.078 C 
ATOM     34  N   UNL     1      -7.626   1.149  -2.189  0.00  0.00    +0.382 N 
ATOM     35  H   UNL     1      -6.982   0.360  -2.606  0.00  0.00    -0.081 HD
BRANCH  29  37
ATOM     36  C   UNL     1      -7.799  -1.569  -1.326  0.00  0.00    +0.002 C 
ATOM     37  C   UNL     1      -8.831  -0.532  -0.879  0.00  0.00    -0.019 C 
ENDBRANCH  29  37
ENDBRANCH  28  34
ENDBRANCH  27  28
ENDBRANCH  26  27
ENDBRANCH   1  26
TORSDOF 7
