REMARK  Name = ZINC35674455
REMARK  13 active torsions:
REMARK  status: ('A' for Active; 'I' for Inactive)
REMARK    1  A    between atoms: C_1  and  C_2
REMARK    2  A    between atoms: C_2  and  C_3
REMARK    3  A    between atoms: C_3  and  C_5
REMARK    4  A    between atoms: C_3  and  N_28
REMARK    5  A    between atoms: C_9  and  O_26
REMARK    6  A    between atoms: C_10  and  O_24
REMARK    7  A    between atoms: N_15  and  C_16
REMARK    8  A    between atoms: C_16  and  C_17
REMARK    9  A    between atoms: C_22  and  C_23
REMARK   10  A    between atoms: O_24  and  C_25
REMARK   11  A    between atoms: O_26  and  C_27
REMARK   12  A    between atoms: C_29  and  C_31
REMARK   13  A    between atoms: C_34  and  C_37
REMARK                            x       y       z     vdW  Elec       q    Type
REMARK                         _______ _______ _______ _____ _____    ______ ____
ROOT
ATOM      1  C   UNL     1       0.572  -2.476  -1.102  0.00  0.00    -0.016 C 
ATOM      2  C   UNL     1       1.315  -3.017   0.091  0.00  0.00    -0.052 A 
ATOM      3  C   UNL     1       0.937  -2.587   1.355  0.00  0.00    +0.051 A 
ATOM      4  C   UNL     1       1.590  -3.060   2.479  0.00  0.00    +0.162 A 
ATOM      5  C   UNL     1       2.632  -3.972   2.340  0.00  0.00    +0.162 A 
ATOM      6  C   UNL     1       3.007  -4.397   1.077  0.00  0.00    +0.053 A 
ATOM      7  C   UNL     1       2.349  -3.918  -0.046  0.00  0.00    -0.044 A 
ATOM      8  C   UNL     1       2.795  -4.402  -1.403  0.00  0.00    +0.017 C 
ATOM      9  C   UNL     1       1.719  -4.088  -2.444  0.00  0.00    -0.073 C 
ATOM     10  N   UNL     1       1.355  -2.668  -2.326  0.00  0.00    +0.388 N 
ATOM     11  H   UNL     1       2.192  -2.106  -2.283  0.00  0.00    -0.080 HD
ENDROOT
BRANCH   5  12
ATOM     12  O   UNL     1       3.280  -4.444   3.439  0.00  0.00    -0.491 OA
ATOM     13  C   UNL     1       4.339  -5.377   3.217  0.00  0.00    +0.277 C 
ENDBRANCH   5  12
BRANCH   4  14
ATOM     14  O   UNL     1       1.215  -2.636   3.716  0.00  0.00    -0.491 OA
ATOM     15  C   UNL     1       0.137  -1.700   3.782  0.00  0.00    +0.277 C 
ENDBRANCH   4  14
BRANCH   1  16
ATOM     16  C   UNL     1       0.310  -0.982  -0.899  0.00  0.00    +0.064 C 
BRANCH  16  17
ATOM     17  N   UNL     1       1.553  -0.236  -1.112  0.00  0.00    -0.310 N 
ATOM     18  C   UNL     1       1.760   0.927  -0.462  0.00  0.00    +0.244 C 
ATOM     19  O   UNL     1       0.917   1.355   0.301  0.00  0.00    -0.270 OA
ATOM     20  H   UNL     1       2.226  -0.578  -1.720  0.00  0.00    +0.149 HD
BRANCH  18  21
ATOM     21  C   UNL     1       3.014   1.680  -0.676  0.00  0.00    +0.037 A 
ATOM     22  C   UNL     1       3.983   1.193  -1.556  0.00  0.00    +0.013 A 
ATOM     23  C   UNL     1       5.151   1.901  -1.752  0.00  0.00    +0.004 A 
ATOM     24  C   UNL     1       5.363   3.091  -1.079  0.00  0.00    -0.050 A 
ATOM     25  C   UNL     1       4.407   3.579  -0.205  0.00  0.00    +0.004 A 
ATOM     26  C   UNL     1       3.232   2.884  -0.005  0.00  0.00    +0.013 A 
ATOM     27  C   UNL     1       6.641   3.859  -1.297  0.00  0.00    +0.044 C 
ENDBRANCH  18  21
ENDBRANCH  16  17
BRANCH  16  29
ATOM     28  C   UNL     1      -1.660   0.518  -1.228  0.00  0.00    +0.005 C 
ATOM     29  C   UNL     1      -0.746  -0.509  -1.900  0.00  0.00    +0.017 C 
ENDBRANCH  16  29
ENDBRANCH   1  16
BRANCH  10  30
ATOM     30  C   UNL     1       0.552  -2.269  -3.490  0.00  0.00    -0.042 C 
BRANCH  30  31
ATOM     31  C   UNL     1       1.303  -2.598  -4.755  0.00  0.00    -0.061 A 
ATOM     32  C   UNL     1       0.921  -3.682  -5.524  0.00  0.00    +0.002 A 
ATOM     33  C   UNL     1       1.610  -3.984  -6.684  0.00  0.00    +0.000 A 
ATOM     34  C   UNL     1       2.681  -3.202  -7.075  0.00  0.00    +0.000 A 
ATOM     35  C   UNL     1       3.063  -2.118  -6.306  0.00  0.00    +0.003 A 
ATOM     36  C   UNL     1       2.371  -1.814  -5.149  0.00  0.00    -0.049 A 
ATOM     37  C   UNL     1       2.784  -0.629  -4.314  0.00  0.00    +0.044 C 
ENDBRANCH  30  31
ENDBRANCH  10  30
TORSDOF 8
