REMARK  Name = ZINC04925161
REMARK  6 active torsions:
REMARK  status: ('A' for Active; 'I' for Inactive)
REMARK    1  A    between atoms: C_1  and  C_2
REMARK    2  A    between atoms: C_2  and  C_3
REMARK    3  A    between atoms: C_7  and  C_28
REMARK    4  A    between atoms: C_8  and  N_9
REMARK    5  A    between atoms: N_11  and  C_12
REMARK    6  A    between atoms: C_12  and  C_13
REMARK                            x       y       z     vdW  Elec       q    Type
REMARK                         _______ _______ _______ _____ _____    ______ ____
ROOT
ATOM      1  N   UNL     1       3.121  -1.150  -0.259  0.00  0.00    -0.295 N 
ATOM      2  C   UNL     1       4.382  -1.681  -0.277  0.00  0.00    +0.143 C 
ATOM      3  N   UNL     1       5.087  -1.805   0.886  0.00  0.00    -0.363 N 
ATOM      4  S   UNL     1       5.055  -2.174  -1.712  0.00  0.00    -0.016 SA
ATOM      5  H   UNL     1       4.694  -1.518   1.725  0.00  0.00    +0.162 HD
ATOM      6  H   UNL     1       2.838  -0.598   0.486  0.00  0.00    +0.154 HD
ENDROOT
BRANCH   1  12
ATOM      7  C   UNL     1       2.097  -0.478  -2.341  0.00  0.00    -0.026 A 
ATOM      8  C   UNL     1       1.230  -0.734  -3.385  0.00  0.00    +0.005 A 
ATOM      9  C   UNL     1       0.501  -1.909  -3.408  0.00  0.00    +0.001 A 
ATOM     10  C   UNL     1       0.637  -2.830  -2.386  0.00  0.00    +0.005 A 
ATOM     11  C   UNL     1       1.502  -2.581  -1.339  0.00  0.00    -0.029 A 
ATOM     12  C   UNL     1       2.240  -1.404  -1.316  0.00  0.00    +0.039 A 
ATOM     13  C   UNL     1       1.649  -3.585  -0.226  0.00  0.00    +0.045 C 
BRANCH   7  15
ATOM     14  C   UNL     1       4.272   0.557  -2.929  0.00  0.00    +0.009 C 
ATOM     15  C   UNL     1       2.892   0.802  -2.317  0.00  0.00    +0.033 C 
ENDBRANCH   7  15
ENDBRANCH   1  12
BRANCH   3  16
ATOM     16  C   UNL     1       6.438  -2.374   0.867  0.00  0.00    +0.150 C 
BRANCH  16  17
ATOM     17  C   UNL     1       6.992  -2.400   2.268  0.00  0.00    -0.028 A 
ATOM     18  C   UNL     1       7.701  -1.308   2.749  0.00  0.00    +0.007 A 
ATOM     19  C   UNL     1       8.216  -1.312   4.026  0.00  0.00    +0.026 A 
ATOM     20  C   UNL     1       8.024  -2.419   4.846  0.00  0.00    +0.047 A 
ATOM     21  C   UNL     1       7.303  -3.524   4.355  0.00  0.00    +0.003 A 
ATOM     22  C   UNL     1       6.787  -3.496   3.058  0.00  0.00    +0.015 A 
ATOM     23  C   UNL     1       7.282  -4.500   5.440  0.00  0.00    -0.019 A 
ATOM     24  C   UNL     1       7.954  -3.963   6.476  0.00  0.00    +0.020 A 
ATOM     25  N   UNL     1       8.404  -2.719   6.136  0.00  0.00    -0.358 N 
ATOM     26  H   UNL     1       8.915  -2.134   6.716  0.00  0.00    +0.166 HD
ATOM     27  C   UNL     1       8.155  -4.667   7.799  0.00  0.00    +0.053 C 
ATOM     28  C   UNL     1       7.151  -5.821   7.894  0.00  0.00    +0.006 C 
ATOM     29  C   UNL     1       7.221  -6.666   6.619  0.00  0.00    +0.005 C 
ATOM     30  C   UNL     1       6.643  -5.864   5.447  0.00  0.00    +0.037 C 
ENDBRANCH  16  17
ENDBRANCH   3  16
TORSDOF 4
