REMARK  Name = ZINC01774233
REMARK  5 active torsions:
REMARK  status: ('A' for Active; 'I' for Inactive)
REMARK    1  A    between atoms: C_4  and  O_23
REMARK    2  A    between atoms: C_5  and  N_7
REMARK    3  A    between atoms: C_13  and  C_14
REMARK    4  A    between atoms: C_17  and  O_21
REMARK    5  A    between atoms: C_18  and  O_20
REMARK                            x       y       z     vdW  Elec       q    Type
REMARK                         _______ _______ _______ _____ _____    ______ ____
ROOT
ATOM      1  N   UNL     1      -3.738  -4.133   0.375  0.00  0.00    -0.293 N 
ATOM      2  C   UNL     1      -2.400  -3.865   0.247  0.00  0.00    +0.156 C 
ATOM      3  N   UNL     1      -1.385  -4.714   0.279  0.00  0.00    -0.154 NA
ATOM      4  C   UNL     1      -0.136  -4.325   0.141  0.00  0.00    +0.276 C 
ATOM      5  O   UNL     1       0.792  -5.118   0.172  0.00  0.00    -0.267 OA
ATOM      6  C   UNL     1       0.083  -2.873  -0.053  0.00  0.00    +0.079 C 
ATOM      7  C   UNL     1       1.239  -2.183  -0.221  0.00  0.00    +0.028 C 
ATOM      8  S   UNL     1      -1.605  -2.284   0.004  0.00  0.00    -0.051 S 
ATOM      9  H   UNL     1      -4.385  -3.414   0.313  0.00  0.00    +0.154 HD
ENDROOT
BRANCH   1  14
ATOM     10  C   UNL     1      -3.680  -7.781   0.846  0.00  0.00    +0.002 A 
ATOM     11  C   UNL     1      -5.024  -8.046   1.032  0.00  0.00    +0.004 A 
ATOM     12  C   UNL     1      -5.946  -7.016   1.002  0.00  0.00    +0.047 A 
ATOM     13  C   UNL     1      -5.524  -5.714   0.784  0.00  0.00    +0.138 A 
ATOM     14  C   UNL     1      -4.170  -5.447   0.597  0.00  0.00    +0.075 A 
ATOM     15  C   UNL     1      -3.251  -6.486   0.623  0.00  0.00    +0.027 A 
BRANCH  13  16
ATOM     16  O   UNL     1      -6.430  -4.700   0.754  0.00  0.00    -0.505 OA
ATOM     17  H   UNL     1      -6.790  -4.521  -0.126  0.00  0.00    +0.292 HD
ENDBRANCH  13  16
ENDBRANCH   1  14
BRANCH   7  18
ATOM     18  C   UNL     1       1.199  -0.763  -0.594  0.00  0.00    -0.020 A 
ATOM     19  C   UNL     1       2.376  -0.004  -0.594  0.00  0.00    +0.012 A 
ATOM     20  C   UNL     1       2.335   1.328  -0.943  0.00  0.00    +0.050 A 
ATOM     21  C   UNL     1       1.130   1.921  -1.297  0.00  0.00    +0.158 A 
ATOM     22  C   UNL     1      -0.046   1.171  -1.300  0.00  0.00    +0.159 A 
ATOM     23  C   UNL     1      -0.015  -0.165  -0.951  0.00  0.00    +0.057 A 
BRANCH  22  24
ATOM     24  O   UNL     1      -1.224   1.756  -1.648  0.00  0.00    -0.503 OA
ATOM     25  H   UNL     1      -1.705   2.143  -0.904  0.00  0.00    +0.292 HD
ENDBRANCH  22  24
BRANCH  21  26
ATOM     26  O   UNL     1       1.097   3.234  -1.641  0.00  0.00    -0.503 OA
ATOM     27  H   UNL     1       1.228   3.397  -2.586  0.00  0.00    +0.292 HD
ENDBRANCH  21  26
ENDBRANCH   7  18
TORSDOF 5
