REMARK  Name = ZINC22105682
REMARK  11 active torsions:
REMARK  status: ('A' for Active; 'I' for Inactive)
REMARK    1  A    between atoms: C_1  and  C_2
REMARK    2  A    between atoms: C_7  and  C_9
REMARK    3  A    between atoms: C_7  and  C_10
REMARK    4  A    between atoms: N_13  and  C_17
REMARK    5  A    between atoms: C_17  and  C_18
REMARK    6  A    between atoms: C_18  and  O_20
REMARK    7  A    between atoms: O_20  and  C_21
REMARK    8  A    between atoms: C_21  and  C_23
REMARK    9  A    between atoms: C_21  and  C_24
REMARK   10  A    between atoms: N_26  and  C_27
REMARK   11  A    between atoms: C_30  and  N_33
REMARK                            x       y       z     vdW  Elec       q    Type
REMARK                         _______ _______ _______ _____ _____    ______ ____
ROOT
ATOM      1  C   UNL     1      -1.446  -5.491  -2.773  0.00  0.00    +0.326 C 
ATOM      2  O   UNL     1      -1.054  -5.752  -1.660  0.00  0.00    -0.249 OA
ENDROOT
BRANCH   1   3
ATOM      3  C   UNL     1      -2.062  -4.146  -3.058  0.00  0.00    +0.238 C 
BRANCH   3  15
ATOM      4  C   UNL     1      -0.065   1.565  -0.088  0.00  0.00    +0.007 C 
ATOM      5  C   UNL     1      -0.029   0.034  -0.082  0.00  0.00    -0.011 C 
ATOM      6  C   UNL     1      -1.460  -0.505  -0.037  0.00  0.00    +0.038 C 
ATOM      7  C   UNL     1      -1.438  -2.027  -0.080  0.00  0.00    +0.113 C 
ATOM      8  C   UNL     1      -0.565  -2.633   1.000  0.00  0.00    +0.041 C 
ATOM      9  C   UNL     1       0.789  -1.973   1.196  0.00  0.00    -0.032 C 
ATOM     10  C   UNL     1       0.710  -0.451   1.164  0.00  0.00    +0.009 C 
ATOM     11  C   UNL     1       1.326  -2.387   2.583  0.00  0.00    +0.011 C 
ATOM     12  C   UNL     1       1.792  -2.469   0.150  0.00  0.00    +0.011 C 
ATOM     13  C   UNL     1      -1.069  -2.521  -1.457  0.00  0.00    +0.247 C 
ATOM     14  O   UNL     1      -0.095  -2.236  -2.121  0.00  0.00    -0.273 OA
ATOM     15  N   UNL     1      -2.073  -3.344  -1.833  0.00  0.00    -0.213 N 
ATOM     16  C   UNL     1      -3.073  -3.332  -0.946  0.00  0.00    +0.310 C 
ATOM     17  O   UNL     1      -4.094  -3.981  -1.070  0.00  0.00    -0.252 OA
ATOM     18  N   UNL     1      -2.821  -2.525   0.099  0.00  0.00    -0.285 N 
ATOM     19  H   UNL     1      -3.414  -2.305   0.831  0.00  0.00    +0.151 HD
ENDBRANCH   3  15
ENDBRANCH   1   3
BRANCH   1  20
ATOM     20  O   UNL     1      -1.331  -6.398  -3.756  0.00  0.00    -0.451 OA
BRANCH  20  21
ATOM     21  C   UNL     1      -0.736  -7.652  -3.414  0.00  0.00    +0.259 C 
ATOM     22  C   UNL     1      -1.825  -8.625  -2.959  0.00  0.00    +0.062 C 
BRANCH  21  23
ATOM     23  C   UNL     1      -0.029  -8.217  -4.619  0.00  0.00    +0.258 C 
ATOM     24  O   UNL     1      -0.033  -7.606  -5.667  0.00  0.00    -0.271 OA
ATOM     25  N   UNL     1       0.609  -9.401  -4.532  0.00  0.00    -0.282 N 
ATOM     26  H   UNL     1       0.668  -9.859  -3.679  0.00  0.00    +0.155 HD
BRANCH  25  27
ATOM     27  C   UNL     1       1.187  -9.972  -5.675  0.00  0.00    +0.034 A 
ATOM     28  C   UNL     1       1.178 -11.350  -5.843  0.00  0.00    +0.025 A 
ATOM     29  C   UNL     1       1.746 -11.912  -6.968  0.00  0.00    +0.025 A 
ATOM     30  C   UNL     1       2.328 -11.098  -7.932  0.00  0.00    +0.030 A 
ATOM     31  C   UNL     1       2.337  -9.720  -7.764  0.00  0.00    +0.025 A 
ATOM     32  C   UNL     1       1.763  -9.158  -6.641  0.00  0.00    +0.025 A 
BRANCH  30  33
ATOM     33  N   UNL     1       2.905 -11.668  -9.073  0.00  0.00    -0.330 N 
ATOM     34  C   UNL     1       3.635 -10.834 -10.037  0.00  0.00    +0.105 C 
ATOM     35  C   UNL     1       5.029 -11.433 -10.250  0.00  0.00    +0.019 C 
ATOM     36  C   UNL     1       4.892 -12.900 -10.664  0.00  0.00    +0.003 C 
ATOM     37  C   UNL     1       4.195 -13.683  -9.549  0.00  0.00    +0.019 C 
ATOM     38  C   UNL     1       2.796 -13.111  -9.325  0.00  0.00    +0.105 C 
ENDBRANCH  30  33
ENDBRANCH  25  27
ENDBRANCH  21  23
ENDBRANCH  20  21
ENDBRANCH   1  20
TORSDOF 7
