REMARK  Name = ZINC08995717
REMARK  7 active torsions:
REMARK  status: ('A' for Active; 'I' for Inactive)
REMARK    1  A    between atoms: C_1  and  C_2
REMARK    2  A    between atoms: C_2  and  C_3
REMARK    3  A    between atoms: C_3  and  C_4
REMARK    4  A    between atoms: C_4  and  N_5
REMARK    5  A    between atoms: C_10  and  C_27
REMARK    6  A    between atoms: C_27  and  C_28
REMARK    7  A    between atoms: C_31  and  O_34
REMARK                            x       y       z     vdW  Elec       q    Type
REMARK                         _______ _______ _______ _____ _____    ______ ____
ROOT
ATOM      1  N   UNL     1      -1.486   5.067   2.542  0.00  0.00    -0.242 N 
ATOM      2  C   UNL     1      -2.494   5.821   1.983  0.00  0.00    +0.224 C 
ATOM      3  O   UNL     1      -3.604   5.459   1.656  0.00  0.00    -0.275 OA
ATOM      4  C   UNL     1      -1.925   7.140   1.877  0.00  0.00    +0.073 C 
ATOM      5  C   UNL     1      -2.275   8.550   1.650  0.00  0.00    -0.053 C 
ATOM      6  C   UNL     1      -0.214   8.429   2.871  0.00  0.00    +0.050 C 
ATOM      7  C   UNL     1      -1.084   7.222   3.213  0.00  0.00    +0.088 C 
ATOM      8  C   UNL     1      -0.508   5.836   3.110  0.00  0.00    +0.225 C 
ATOM      9  O   UNL     1       0.596   5.476   3.458  0.00  0.00    -0.275 OA
ATOM     10  C   UNL     1       1.175   8.068   2.422  0.00  0.00    -0.026 A 
ATOM     11  C   UNL     1       1.670   7.335   1.366  0.00  0.00    +0.024 A 
ATOM     12  C   UNL     1       3.036   7.171   1.213  0.00  0.00    +0.041 A 
ATOM     13  C   UNL     1       3.904   7.750   2.122  0.00  0.00    +0.022 A 
ATOM     14  C   UNL     1       3.414   8.493   3.175  0.00  0.00    +0.025 A 
ATOM     15  C   UNL     1       2.041   8.667   3.332  0.00  0.00    +0.036 A 
ATOM     16  N   UNL     1       1.316   9.373   4.295  0.00  0.00    -0.286 N 
ATOM     17  C   UNL     1      -0.012   9.296   4.089  0.00  0.00    +0.211 C 
ATOM     18  O   UNL     1      -0.878   9.823   4.754  0.00  0.00    -0.277 OA
ATOM     19 CL   UNL     1       3.658   6.243  -0.116  0.00  0.00    -0.084 Cl
ATOM     20  H   UNL     1       1.722   9.862   5.027  0.00  0.00    +0.155 HD
ATOM     21  N   UNL     1      -0.925   9.175   1.819  0.00  0.00    +0.394 N 
ATOM     22  H   UNL     1      -1.027  10.159   2.096  0.00  0.00    -0.083 HD
ATOM     23  H   UNL     1      -0.401   9.121   0.937  0.00  0.00    -0.083 HD
ENDROOT
BRANCH   1  24
ATOM     24  C   UNL     1      -1.466   3.603   2.534  0.00  0.00    +0.116 C 
BRANCH  24  25
ATOM     25  C   UNL     1      -0.750   3.109   1.275  0.00  0.00    +0.019 C 
BRANCH  25  27
ATOM     26  C   UNL     1      -0.013   1.086   0.008  0.00  0.00    +0.004 C 
ATOM     27  C   UNL     1      -0.729   1.579   1.267  0.00  0.00    -0.002 C 
ENDBRANCH  25  27
ENDBRANCH  24  25
ENDBRANCH   1  24
BRANCH   5  28
ATOM     28  C   UNL     1      -3.256   9.056   2.710  0.00  0.00    +0.020 C 
BRANCH  28  29
ATOM     29  C   UNL     1      -3.681  10.461   2.370  0.00  0.00    -0.049 A 
ATOM     30  C   UNL     1      -2.964  11.537   2.860  0.00  0.00    +0.007 A 
ATOM     31  C   UNL     1      -3.349  12.826   2.546  0.00  0.00    +0.045 A 
ATOM     32  C   UNL     1      -4.463  13.041   1.747  0.00  0.00    +0.117 A 
ATOM     33  C   UNL     1      -5.184  11.960   1.261  0.00  0.00    +0.045 A 
ATOM     34  C   UNL     1      -4.792  10.673   1.574  0.00  0.00    +0.007 A 
BRANCH  32  35
ATOM     35  O   UNL     1      -4.846  14.308   1.441  0.00  0.00    -0.507 OA
ATOM     36  H   UNL     1      -5.470  14.694   2.071  0.00  0.00    +0.292 HD
ENDBRANCH  32  35
ENDBRANCH  28  29
ENDBRANCH   5  28
TORSDOF 6
