REMARK  Name = ZINC36235374
REMARK  11 active torsions:
REMARK  status: ('A' for Active; 'I' for Inactive)
REMARK    1  A    between atoms: C_1  and  C_2
REMARK    2  A    between atoms: C_2  and  O_3
REMARK    3  A    between atoms: O_3  and  C_4
REMARK    4  A    between atoms: C_7  and  C_12
REMARK    5  A    between atoms: C_9  and  O_10
REMARK    6  A    between atoms: O_10  and  C_11
REMARK    7  A    between atoms: N_13  and  N_14
REMARK    8  A    between atoms: C_15  and  C_17
REMARK    9  A    between atoms: C_17  and  N_28
REMARK   10  A    between atoms: C_18  and  C_19
REMARK   11  A    between atoms: C_29  and  C_31
REMARK                            x       y       z     vdW  Elec       q    Type
REMARK                         _______ _______ _______ _____ _____    ______ ____
ROOT
ATOM      1  C   UNL     1      -0.138 -10.457  -0.340  0.00  0.00    +0.098 C 
ATOM      2  C   UNL     1       0.835 -11.374  -0.119  0.00  0.00    +0.036 C 
ENDROOT
BRANCH   2   3
ATOM      3  C   UNL     1       2.240 -10.950  -0.040  0.00  0.00    -0.019 A 
ATOM      4  C   UNL     1       2.584  -9.787   0.657  0.00  0.00    +0.012 A 
ATOM      5  C   UNL     1       3.902  -9.393   0.729  0.00  0.00    +0.050 A 
ATOM      6  C   UNL     1       4.893 -10.146   0.113  0.00  0.00    +0.166 A 
ATOM      7  C   UNL     1       4.557 -11.308  -0.584  0.00  0.00    +0.167 A 
ATOM      8  C   UNL     1       3.238 -11.713  -0.657  0.00  0.00    +0.057 A 
ATOM      9  O   UNL     1       5.699 -11.858  -1.090  0.00  0.00    -0.453 OA
ATOM     10  C   UNL     1       6.683 -10.807  -1.046  0.00  0.00    +0.466 C 
ATOM     11  O   UNL     1       6.244  -9.972   0.042  0.00  0.00    -0.453 OA
ENDBRANCH   2   3
BRANCH   1  13
ATOM     12  N   UNL     1      -0.732  -8.154  -0.881  0.00  0.00    -0.202 N 
ATOM     13  C   UNL     1       0.216  -9.109  -0.802  0.00  0.00    +0.277 C 
ATOM     14  O   UNL     1       1.365  -8.854  -1.115  0.00  0.00    -0.267 OA
ATOM     15  H   UNL     1      -1.647  -8.357  -0.632  0.00  0.00    +0.178 HD
BRANCH  12  17
ATOM     16  C   UNL     1      -1.307  -5.947  -1.399  0.00  0.00    +0.138 C 
ATOM     17  N   UNL     1      -0.394  -6.868  -1.323  0.00  0.00    -0.187 NA
BRANCH  16  21
ATOM     18  C   UNL     1      -0.279  -2.049  -2.739  0.00  0.00    +0.162 A 
ATOM     19  C   UNL     1       0.696  -3.034  -2.657  0.00  0.00    +0.050 A 
ATOM     20  C   UNL     1       0.366  -4.300  -2.222  0.00  0.00    +0.013 A 
ATOM     21  C   UNL     1      -0.952  -4.594  -1.863  0.00  0.00    -0.002 A 
ATOM     22  C   UNL     1      -1.933  -3.602  -1.946  0.00  0.00    +0.059 A 
ATOM     23  C   UNL     1      -1.594  -2.334  -2.378  0.00  0.00    +0.162 A 
BRANCH  23  24
ATOM     24  O   UNL     1      -2.545  -1.365  -2.454  0.00  0.00    -0.491 OA
ATOM     25  C   UNL     1      -3.872  -1.726  -2.068  0.00  0.00    +0.277 C 
ENDBRANCH  23  24
BRANCH  18  26
ATOM     26  O   UNL     1       0.052  -0.802  -3.168  0.00  0.00    -0.489 OA
BRANCH  26  28
ATOM     27  C   UNL     1       1.597   0.870  -3.979  0.00  0.00    +0.048 C 
ATOM     28  C   UNL     1       1.418  -0.579  -3.523  0.00  0.00    +0.226 C 
ENDBRANCH  26  28
ENDBRANCH  18  26
ENDBRANCH  16  21
ENDBRANCH  12  17
ENDBRANCH   1  13
BRANCH   1  29
ATOM     29  N   UNL     1      -1.478 -10.794  -0.127  0.00  0.00    -0.277 N 
ATOM     30  C   UNL     1      -2.363 -10.712  -1.140  0.00  0.00    +0.248 C 
ATOM     31  O   UNL     1      -1.981 -10.429  -2.259  0.00  0.00    -0.270 OA
ATOM     32  H   UNL     1      -1.771 -11.086   0.751  0.00  0.00    +0.155 HD
BRANCH  30  33
ATOM     33  C   UNL     1      -3.798 -10.967  -0.891  0.00  0.00    +0.037 A 
ATOM     34  C   UNL     1      -4.240 -11.287   0.394  0.00  0.00    +0.013 A 
ATOM     35  C   UNL     1      -5.580 -11.523   0.619  0.00  0.00    +0.001 A 
ATOM     36  C   UNL     1      -6.485 -11.444  -0.424  0.00  0.00    +0.000 A 
ATOM     37  C   UNL     1      -6.053 -11.128  -1.700  0.00  0.00    +0.001 A 
ATOM     38  C   UNL     1      -4.717 -10.883  -1.938  0.00  0.00    +0.013 A 
ENDBRANCH  30  33
ENDBRANCH   1  29
TORSDOF 9
