REMARK  Name = ZINC45623891
REMARK  5 active torsions:
REMARK  status: ('A' for Active; 'I' for Inactive)
REMARK    1  A    between atoms: C_1  and  C_2
REMARK    2  A    between atoms: C_2  and  C_4
REMARK    3  A    between atoms: C_2  and  N_11
REMARK    4  A    between atoms: C_12  and  C_14
REMARK    5  A    between atoms: C_16  and  N_21
REMARK                            x       y       z     vdW  Elec       q    Type
REMARK                         _______ _______ _______ _____ _____    ______ ____
ROOT
ATOM      1  N   UNL     1      -1.372  -0.511   0.012  0.00  0.00    -0.305 N 
ATOM      2  C   UNL     1      -2.029  -0.655   1.181  0.00  0.00    +0.246 C 
ATOM      3  O   UNL     1      -1.480  -0.364   2.226  0.00  0.00    -0.270 OA
ATOM      4  H   UNL     1      -1.810  -0.743  -0.822  0.00  0.00    +0.150 HD
ENDROOT
BRANCH   2   5
ATOM      5  C   UNL     1      -3.415  -1.167   1.191  0.00  0.00    +0.052 A 
ATOM      6  C   UNL     1      -4.045  -1.507  -0.006  0.00  0.00    +0.037 A 
ATOM      7  C   UNL     1      -5.345  -1.986   0.011  0.00  0.00    +0.025 A 
ATOM      8  C   UNL     1      -6.018  -2.127   1.220  0.00  0.00    +0.024 A 
ATOM      9  C   UNL     1      -5.396  -1.790   2.406  0.00  0.00    +0.018 A 
ATOM     10  C   UNL     1      -4.098  -1.317   2.401  0.00  0.00    +0.030 A 
ATOM     11 BR   UNL     1      -3.248  -0.865   4.028  0.00  0.00    -0.050 Br
BRANCH   7  12
ATOM     12  N   UNL     1      -5.980  -2.328  -1.186  0.00  0.00    -0.358 N 
ATOM     13  H   UNL     1      -5.511  -2.230  -2.029  0.00  0.00    +0.142 HD
ATOM     14  H   UNL     1      -6.890  -2.664  -1.173  0.00  0.00    +0.142 HD
ENDBRANCH   7  12
ENDBRANCH   2   5
BRANCH   1  16
ATOM     15  C   UNL     1      -0.019   1.526   0.010  0.00  0.00    +0.033 C 
ATOM     16  C   UNL     1       0.002  -0.004   0.002  0.00  0.00    +0.100 C 
BRANCH  16  17
ATOM     17  C   UNL     1       0.707  -0.490  -1.238  0.00  0.00    -0.026 A 
ATOM     18  C   UNL     1       0.037  -0.522  -2.447  0.00  0.00    +0.005 A 
ATOM     19  C   UNL     1       0.684  -0.967  -3.584  0.00  0.00    +0.002 A 
ATOM     20  C   UNL     1       2.000  -1.382  -3.514  0.00  0.00    +0.020 A 
ATOM     21  C   UNL     1       2.671  -1.351  -2.305  0.00  0.00    +0.041 A 
ATOM     22  C   UNL     1       2.026  -0.899  -1.167  0.00  0.00    +0.025 A 
ATOM     23 CL   UNL     1       4.325  -1.872  -2.216  0.00  0.00    -0.084 Cl
ENDBRANCH  16  17
ENDBRANCH   1  16
TORSDOF 4
