REMARK  Name = ZINC16845708
REMARK  6 active torsions:
REMARK  status: ('A' for Active; 'I' for Inactive)
REMARK    1  A    between atoms: C_1  and  C_2
REMARK    2  A    between atoms: C_5  and  N_8
REMARK    3  A    between atoms: C_9  and  C_11
REMARK    4  A    between atoms: C_11  and  S_12
REMARK    5  A    between atoms: S_12  and  C_13
REMARK    6  A    between atoms: C_27  and  C_30
REMARK                            x       y       z     vdW  Elec       q    Type
REMARK                         _______ _______ _______ _____ _____    ______ ____
ROOT
ATOM      1  C   UNL     1       3.800   8.043   0.468  0.00  0.00    +0.199 A 
ATOM      2  N   UNL     1       2.664   8.702   0.484  0.00  0.00    -0.122 NA
ATOM      3  N   UNL     1       2.882   9.966   0.594  0.00  0.00    -0.128 NA
ATOM      4  C   UNL     1       4.172  10.188   0.654  0.00  0.00    +0.174 A 
ATOM      5  N   UNL     1       4.804   8.966   0.582  0.00  0.00    -0.241 N 
ATOM      6  C   UNL     1       6.170   8.889   0.614  0.00  0.00    +0.202 A 
ATOM      7  N   UNL     1       6.911   9.966   0.727  0.00  0.00    -0.208 NA
ATOM      8  C   UNL     1       6.384  11.186   0.809  0.00  0.00    +0.116 A 
ATOM      9  C   UNL     1       5.000  11.407   0.780  0.00  0.00    +0.056 A 
ATOM     10  C   UNL     1       4.571  12.800   0.878  0.00  0.00    -0.024 A 
ATOM     11  C   UNL     1       5.541  13.734   0.987  0.00  0.00    -0.004 A 
ATOM     12  S   UNL     1       7.059  12.820   0.964  0.00  0.00    -0.073 S 
ATOM     13  C   UNL     1       5.363  15.217   1.101  0.00  0.00    +0.043 C 
ATOM     14  C   UNL     1       3.921  15.564   0.703  0.00  0.00    +0.009 C 
ATOM     15  C   UNL     1       2.968  14.614   1.435  0.00  0.00    -0.009 C 
ATOM     16  C   UNL     1       3.099  13.203   0.862  0.00  0.00    +0.040 C 
ATOM     17  C   UNL     1       1.529  15.103   1.260  0.00  0.00    +0.008 C 
ATOM     18  N   UNL     1       6.778   7.657   0.533  0.00  0.00    -0.328 N 
ATOM     19  H   UNL     1       7.745   7.591   0.560  0.00  0.00    +0.145 HD
ATOM     20  H   UNL     1       6.239   6.855   0.450  0.00  0.00    +0.145 HD
ENDROOT
BRANCH   1  21
ATOM     21  S   UNL     1       3.995   6.298   0.332  0.00  0.00    -0.076 S 
BRANCH  21  22
ATOM     22  C   UNL     1       2.295   5.673   0.225  0.00  0.00    +0.173 C 
BRANCH  22  24
ATOM     23  N   UNL     1       1.162   3.485   0.009  0.00  0.00    -0.285 N 
ATOM     24  C   UNL     1       2.318   4.171   0.104  0.00  0.00    +0.227 C 
ATOM     25  O   UNL     1       3.377   3.580   0.091  0.00  0.00    -0.275 OA
ATOM     26  H   UNL     1       0.319   3.961  -0.058  0.00  0.00    +0.155 HD
BRANCH  23  31
ATOM     27  C   UNL     1       1.221  -2.188   0.005  0.00  0.00    +0.044 C 
ATOM     28  C   UNL     1       1.206  -0.681   0.006  0.00  0.00    -0.050 A 
ATOM     29  C   UNL     1       2.145   0.019   0.741  0.00  0.00    +0.005 A 
ATOM     30  C   UNL     1       2.133   1.400   0.745  0.00  0.00    +0.023 A 
ATOM     31  C   UNL     1       1.177   2.086   0.008  0.00  0.00    +0.033 A 
ATOM     32  C   UNL     1       0.236   1.381  -0.731  0.00  0.00    +0.023 A 
ATOM     33  C   UNL     1       0.253  -0.000  -0.729  0.00  0.00    +0.005 A 
ENDBRANCH  23  31
ENDBRANCH  22  24
ENDBRANCH  21  22
ENDBRANCH   1  21
TORSDOF 4
