REMARK  Name = ZINC18199334
REMARK  2 active torsions:
REMARK  status: ('A' for Active; 'I' for Inactive)
REMARK    1  A    between atoms: C_6  and  C_7
REMARK    2  A    between atoms: C_15  and  O_16
REMARK                            x       y       z     vdW  Elec       q    Type
REMARK                         _______ _______ _______ _____ _____    ______ ____
ROOT
ATOM      1  C   UNL     1      -1.293  -0.775   0.010  0.00  0.00    +0.092 C 
ATOM      2  C   UNL     1      -1.373  -1.631  -1.222  0.00  0.00    +0.067 A 
ATOM      3  C   UNL     1      -1.211  -2.990  -1.183  0.00  0.00    +0.126 A 
ATOM      4  N   UNL     1      -1.335  -3.455  -2.440  0.00  0.00    -0.260 N 
ATOM      5  H   UNL     1      -1.266  -4.383  -2.716  0.00  0.00    +0.190 HD
ATOM      6  N   UNL     1      -1.585  -2.357  -3.280  0.00  0.00    -0.134 NA
ATOM      7  C   UNL     1      -1.606  -1.267  -2.545  0.00  0.00    +0.237 A 
ATOM      8  N   UNL     1      -0.966  -3.656   0.012  0.00  0.00    -0.303 N 
ATOM      9  C   UNL     1      -1.182  -2.988   1.191  0.00  0.00    +0.017 C 
ATOM     10  C   UNL     1      -1.350  -1.650   1.243  0.00  0.00    +0.024 C 
ATOM     11  C   UNL     1      -1.592  -1.002   2.468  0.00  0.00    +0.162 C 
ATOM     12  O   UNL     1      -1.736   0.204   2.482  0.00  0.00    -0.292 OA
ATOM     13  C   UNL     1      -1.677  -1.766   3.759  0.00  0.00    +0.080 C 
ATOM     14  C   UNL     1      -2.167  -3.188   3.464  0.00  0.00    +0.014 C 
ATOM     15  C   UNL     1      -1.216  -3.822   2.452  0.00  0.00    +0.051 C 
ATOM     16  H   UNL     1      -0.650  -4.573   0.013  0.00  0.00    +0.153 HD
ENDROOT
BRANCH   1  22
ATOM     17  C   UNL     1      -0.017   1.378   0.010  0.00  0.00    +0.007 A 
ATOM     18  C   UNL     1       1.170   2.086   0.002  0.00  0.00    +0.040 A 
ATOM     19  C   UNL     1       2.379   1.411  -0.013  0.00  0.00    +0.137 A 
ATOM     20  C   UNL     1       2.397   0.026  -0.021  0.00  0.00    +0.053 A 
ATOM     21  C   UNL     1       1.208  -0.680  -0.013  0.00  0.00    +0.022 A 
ATOM     22  C   UNL     1       0.002  -0.004   0.002  0.00  0.00    -0.034 A 
ATOM     23 BR   UNL     1       4.046  -0.899  -0.042  0.00  0.00    -0.047 Br
ATOM     24  F   UNL     1       3.539   2.103  -0.021  0.00  0.00    -0.204 F 
ENDBRANCH   1  22
BRANCH   7  26
ATOM     25  H   UNL     1      -1.013   0.464  -3.255  0.00  0.00    +0.294 HD
ATOM     26  O   UNL     1      -1.820  -0.003  -2.999  0.00  0.00    -0.491 OA
ENDBRANCH   7  26
TORSDOF 2
