REMARK  Name = ZINC20853545
REMARK  7 active torsions:
REMARK  status: ('A' for Active; 'I' for Inactive)
REMARK    1  A    between atoms: C_1  and  C_2
REMARK    2  A    between atoms: C_5  and  C_8
REMARK    3  A    between atoms: C_12  and  C_34
REMARK    4  A    between atoms: C_14  and  N_17
REMARK    5  A    between atoms: N_17  and  C_18
REMARK    6  A    between atoms: C_21  and  C_30
REMARK    7  A    between atoms: C_23  and  N_24
REMARK                            x       y       z     vdW  Elec       q    Type
REMARK                         _______ _______ _______ _____ _____    ______ ____
ROOT
ATOM      1  N   UNL     1       4.274  -0.183  -0.040  0.00  0.00    -0.298 N 
ATOM      2  H   UNL     1       3.886  -0.962   0.634  0.00  0.00    +0.154 HD
ENDROOT
BRANCH   1   9
ATOM      3  C   UNL     1       0.010   0.098   0.100  0.00  0.00    +0.184 A 
ATOM      4  N   UNL     1      -0.035   1.021  -0.862  0.00  0.00    -0.189 NA
ATOM      5  C   UNL     1       1.196   1.297  -1.276  0.00  0.00    +0.255 A 
ATOM      6  N   UNL     1       1.665   2.139  -2.204  0.00  0.00    -0.216 NA
ATOM      7  C   UNL     1       2.956   2.241  -2.443  0.00  0.00    +0.045 A 
ATOM      8  C   UNL     1       3.869   1.470  -1.728  0.00  0.00    +0.067 A 
ATOM      9  C   UNL     1       3.400   0.596  -0.766  0.00  0.00    +0.130 A 
ATOM     10  N   UNL     1       2.054   0.519  -0.549  0.00  0.00    -0.182 N 
ATOM     11  N   UNL     1       1.264  -0.239   0.325  0.00  0.00    -0.142 NA
ATOM     12  C   UNL     1       3.449   3.200  -3.496  0.00  0.00    +0.066 C 
BRANCH   3  17
ATOM     13  C   UNL     1      -4.564  -2.081   2.841  0.00  0.00    +0.044 C 
ATOM     14  C   UNL     1      -3.367  -1.510   2.124  0.00  0.00    -0.050 A 
ATOM     15  C   UNL     1      -3.544  -0.553   1.141  0.00  0.00    +0.004 A 
ATOM     16  C   UNL     1      -2.452  -0.028   0.481  0.00  0.00    +0.012 A 
ATOM     17  C   UNL     1      -1.169  -0.464   0.806  0.00  0.00    +0.021 A 
ATOM     18  C   UNL     1      -0.997  -1.432   1.793  0.00  0.00    +0.012 A 
ATOM     19  C   UNL     1      -2.096  -1.946   2.451  0.00  0.00    +0.004 A 
ENDBRANCH   3  17
ENDBRANCH   1   9
BRANCH   1  20
ATOM     20  C   UNL     1       5.655   0.017  -0.158  0.00  0.00    +0.054 A 
ATOM     21  C   UNL     1       6.174   1.303  -0.157  0.00  0.00    +0.026 A 
ATOM     22  C   UNL     1       7.537   1.499  -0.274  0.00  0.00    +0.014 A 
ATOM     23  C   UNL     1       8.387   0.415  -0.392  0.00  0.00    +0.057 A 
ATOM     24  C   UNL     1       7.879  -0.871  -0.393  0.00  0.00    +0.037 A 
ATOM     25  C   UNL     1       6.513  -1.077  -0.271  0.00  0.00    +0.052 A 
BRANCH  25  26
ATOM     26  N   UNL     1       5.997  -2.377  -0.267  0.00  0.00    -0.328 N 
ATOM     27  C   UNL     1       6.465  -3.125   0.907  0.00  0.00    +0.105 C 
ATOM     28  C   UNL     1       5.769  -4.487   0.957  0.00  0.00    +0.019 C 
ATOM     29  C   UNL     1       6.084  -5.263  -0.326  0.00  0.00    +0.003 C 
ATOM     30  C   UNL     1       5.630  -4.441  -1.535  0.00  0.00    +0.019 C 
ATOM     31  C   UNL     1       6.330  -3.080  -1.512  0.00  0.00    +0.105 C 
ENDBRANCH  25  26
BRANCH  23  32
ATOM     32  C   UNL     1       9.873   0.635  -0.519  0.00  0.00    +0.417 C 
ATOM     33  F   UNL     1      10.144   2.007  -0.492  0.00  0.00    -0.166 F 
ATOM     34  F   UNL     1      10.530   0.009   0.546  0.00  0.00    -0.166 F 
ATOM     35  F   UNL     1      10.323   0.094  -1.728  0.00  0.00    -0.166 F 
ENDBRANCH  23  32
ENDBRANCH   1  20
TORSDOF 5
