REMARK  Name = ZINC00969278
REMARK  6 active torsions:
REMARK  status: ('A' for Active; 'I' for Inactive)
REMARK    1  A    between atoms: C_9  and  O_27
REMARK    2  A    between atoms: C_10  and  C_11
REMARK    3  A    between atoms: N_12  and  N_13
REMARK    4  A    between atoms: C_14  and  C_16
REMARK    5  A    between atoms: C_16  and  S_17
REMARK    6  A    between atoms: S_17  and  C_18
REMARK                            x       y       z     vdW  Elec       q    Type
REMARK                         _______ _______ _______ _____ _____    ______ ____
ROOT
ATOM      1  N   UNL     1      -2.572   8.058   0.067  0.00  0.00    -0.206 N 
ATOM      2  C   UNL     1      -2.563   9.406   0.073  0.00  0.00    +0.242 C 
ATOM      3  O   UNL     1      -1.508  10.005   0.066  0.00  0.00    -0.273 OA
ATOM      4  H   UNL     1      -3.415   7.579   0.072  0.00  0.00    +0.177 HD
ENDROOT
BRANCH   1   6
ATOM      5  C   UNL     1      -1.372   6.050   0.045  0.00  0.00    +0.142 C 
ATOM      6  N   UNL     1      -1.364   7.349   0.052  0.00  0.00    -0.188 NA
BRANCH   5  16
ATOM      7  C   UNL     1      -0.013   1.076   0.008  0.00  0.00    +0.001 A 
ATOM      8  C   UNL     1      -1.234   1.745   0.017  0.00  0.00    +0.001 A 
ATOM      9  C   UNL     1      -1.286   3.107   0.031  0.00  0.00    +0.009 A 
ATOM     10  C   UNL     1      -0.096   3.845   0.023  0.00  0.00    -0.006 A 
ATOM     11  C   UNL     1       1.148   3.168   0.008  0.00  0.00    -0.017 A 
ATOM     12  C   UNL     1       1.163   1.762   0.000  0.00  0.00    +0.008 A 
ATOM     13  C   UNL     1       2.341   3.910  -0.000  0.00  0.00    +0.012 A 
ATOM     14  C   UNL     1       2.315   5.269   0.006  0.00  0.00    +0.046 A 
ATOM     15  C   UNL     1       1.117   5.981   0.021  0.00  0.00    +0.126 A 
ATOM     16  C   UNL     1      -0.105   5.306   0.030  0.00  0.00    +0.044 A 
BRANCH  15  17
ATOM     17  O   UNL     1       1.138   7.338   0.027  0.00  0.00    -0.506 OA
ATOM     18  H   UNL     1       1.135   7.735  -0.855  0.00  0.00    +0.292 HD
ENDBRANCH  15  17
ENDBRANCH   5  16
ENDBRANCH   1   6
BRANCH   2  19
ATOM     19  C   UNL     1      -3.863  10.168   0.089  0.00  0.00    +0.173 C 
BRANCH  19  20
ATOM     20  S   UNL     1      -3.521  11.945   0.094  0.00  0.00    -0.089 S 
BRANCH  20  21
ATOM     21  C   UNL     1      -5.166  12.574   0.113  0.00  0.00    +0.136 A 
ATOM     22  N   UNL     1      -5.571  13.825   0.123  0.00  0.00    -0.233 NA
ATOM     23  C   UNL     1      -6.879  14.163   0.136  0.00  0.00    +0.079 A 
ATOM     24  C   UNL     1      -7.445  15.459   0.147  0.00  0.00    +0.029 A 
ATOM     25  C   UNL     1      -8.805  15.629   0.159  0.00  0.00    +0.002 A 
ATOM     26  C   UNL     1      -9.671  14.546   0.162  0.00  0.00    +0.001 A 
ATOM     27  C   UNL     1      -9.152  13.264   0.152  0.00  0.00    +0.017 A 
ATOM     28  C   UNL     1      -7.791  13.084   0.139  0.00  0.00    +0.040 A 
ATOM     29  S   UNL     1      -6.710  11.674   0.116  0.00  0.00    -0.061 S 
ENDBRANCH  20  21
ENDBRANCH  19  20
ENDBRANCH   2  19
TORSDOF 6
