REMARK  Name = ZINC33727946
REMARK  6 active torsions:
REMARK  status: ('A' for Active; 'I' for Inactive)
REMARK    1  A    between atoms: C_3  and  N_22
REMARK    2  A    between atoms: N_8  and  C1*_9
REMARK    3  A    between atoms: C2*_11  and  O2*_21
REMARK    4  A    between atoms: C3*_13  and  O3*_20
REMARK    5  A    between atoms: C4*_15  and  C5*_18
REMARK    6  A    between atoms: C5*_18  and  O5*_19
REMARK                            x       y       z     vdW  Elec       q    Type
REMARK                         _______ _______ _______ _____ _____    ______ ____
ROOT
ATOM      1  C   UNL     1       0.218   1.810  -3.314  0.00  0.00    +0.096 C 
ATOM      2  C   UNL     1      -0.209   0.962  -2.396  0.00  0.00    +0.044 C 
ATOM      3  C   UNL     1      -0.795   1.527  -1.120  0.00  0.00    +0.179 C 
ATOM      4  N   UNL     1      -0.846   2.993  -0.995  0.00  0.00    -0.279 N 
ATOM      5  C   UNL     1      -0.373   3.739  -2.014  0.00  0.00    +0.310 C 
ATOM      6  O   UNL     1      -0.408   4.951  -1.925  0.00  0.00    -0.252 OA
ATOM      7  N   UNL     1       0.135   3.181  -3.121  0.00  0.00    -0.232 N 
ATOM      8 BR   UNL     1      -0.091  -0.906  -2.669  0.00  0.00    -0.050 Br
ATOM      9  H   UNL     1      -1.263   3.454  -0.087  0.00  0.00    +0.152 HD
ENDROOT
BRANCH   7  10
ATOM     10  C1* UNL     1       0.628   4.064  -4.181  0.00  0.00    +0.245 C 
ATOM     11  C2* UNL     1       2.145   3.841  -4.405  0.00  0.00    +0.193 C 
ATOM     12  C3* UNL     1       2.299   4.316  -5.875  0.00  0.00    +0.178 C 
ATOM     13  C4* UNL     1       0.955   3.885  -6.501  0.00  0.00    +0.177 C 
ATOM     14  O4* UNL     1       0.011   3.729  -5.435  0.00  0.00    -0.347 OA
BRANCH  12  15
ATOM     15  O3* UNL     1       2.457   5.734  -5.939  0.00  0.00    -0.386 OA
ATOM     16  H3* UNL     1       2.579   6.231  -6.912  0.00  0.00    +0.210 HD
ENDBRANCH  12  15
BRANCH  11  17
ATOM     17  O2* UNL     1       2.920   4.651  -3.519  0.00  0.00    -0.385 OA
ATOM     18  H2* UNL     1       4.018   4.608  -3.553  0.00  0.00    +0.210 HD
ENDBRANCH  11  17
BRANCH  13  19
ATOM     19  C5* UNL     1       0.465   4.958  -7.475  0.00  0.00    +0.190 C 
BRANCH  19  20
ATOM     20  O5* UNL     1      -0.721   4.503  -8.129  0.00  0.00    -0.392 OA
ATOM     21  H5* UNL     1      -1.221   5.145  -8.869  0.00  0.00    +0.210 HD
ENDBRANCH  19  20
ENDBRANCH  13  19
ENDBRANCH   7  10
BRANCH   3  22
ATOM     22  N   UNL     1      -0.012   1.005   0.008  0.00  0.00    -0.309 NA
ATOM     23  H   UNL     1      -0.417   1.401   0.951  0.00  0.00    +0.120 HD
ATOM     24  H   UNL     1      -0.069  -0.094   0.016  0.00  0.00    +0.120 HD
ENDBRANCH   3  22
TORSDOF 6
