REMARK  Name = ZINC45300059
REMARK  6 active torsions:
REMARK  status: ('A' for Active; 'I' for Inactive)
REMARK    1  A    between atoms: C_1  and  C_2
REMARK    2  A    between atoms: C_2  and  C_4
REMARK    3  A    between atoms: C_2  and  N_19
REMARK    4  A    between atoms: C_7  and  N_10
REMARK    5  A    between atoms: N_19  and  C_20
REMARK    6  A    between atoms: N_23  and  C_24
REMARK                            x       y       z     vdW  Elec       q    Type
REMARK                         _______ _______ _______ _____ _____    ______ ____
ROOT
ATOM      1  C   UNL     1       0.731  -0.238   1.317  0.00  0.00    -0.027 A 
ATOM      2  C   UNL     1       0.088  -0.097   2.533  0.00  0.00    +0.007 A 
ATOM      3  C   UNL     1       0.758  -0.379   3.707  0.00  0.00    +0.026 A 
ATOM      4  C   UNL     1       2.080  -0.803   3.666  0.00  0.00    +0.048 A 
ATOM      5  C   UNL     1       2.723  -0.944   2.443  0.00  0.00    +0.026 A 
ATOM      6  C   UNL     1       2.045  -0.666   1.272  0.00  0.00    +0.007 A 
ENDROOT
BRANCH   4   7
ATOM      7  N   UNL     1       2.763  -1.089   4.855  0.00  0.00    -0.299 N 
ATOM      8  C   UNL     1       2.834  -0.292   5.958  0.00  0.00    +0.205 A 
ATOM      9  N   UNL     1       3.550  -0.867   6.879  0.00  0.00    -0.235 NA
ATOM     10  C   UNL     1       3.988  -2.072   6.433  0.00  0.00    +0.089 A 
ATOM     11  C   UNL     1       3.486  -2.235   5.130  0.00  0.00    +0.073 A 
ATOM     12  C   UNL     1       3.771  -3.391   4.417  0.00  0.00    +0.028 A 
ATOM     13  C   UNL     1       4.545  -4.377   4.991  0.00  0.00    +0.002 A 
ATOM     14  C   UNL     1       5.041  -4.223   6.277  0.00  0.00    +0.002 A 
ATOM     15  C   UNL     1       4.774  -3.080   6.997  0.00  0.00    +0.030 A 
ENDBRANCH   4   7
BRANCH   1  17
ATOM     16  C   UNL     1       0.992   0.556  -1.018  0.00  0.00    +0.033 C 
ATOM     17  C   UNL     1      -0.004   0.071   0.038  0.00  0.00    +0.104 C 
BRANCH  17  18
ATOM     18  N   UNL     1      -1.000   1.116   0.286  0.00  0.00    -0.282 N 
ATOM     19  C   UNL     1      -0.569   2.462   0.670  0.00  0.00    +0.134 C 
ATOM     20  C   UNL     1      -2.313   0.839   0.162  0.00  0.00    +0.303 C 
ATOM     21  O   UNL     1      -2.671  -0.279  -0.156  0.00  0.00    -0.253 OA
ATOM     22  N   UNL     1      -3.229   1.800   0.391  0.00  0.00    -0.296 N 
ATOM     23  H   UNL     1      -2.944   2.692   0.645  0.00  0.00    +0.151 HD
BRANCH  22  24
ATOM     24  C   UNL     1      -4.657   1.498   0.256  0.00  0.00    +0.075 C 
ATOM     25  C   UNL     1      -5.530   2.526  -0.467  0.00  0.00    +0.024 C 
ATOM     26  C   UNL     1      -5.639   2.361   1.051  0.00  0.00    +0.024 C 
ENDBRANCH  22  24
ENDBRANCH  17  18
ENDBRANCH   1  17
TORSDOF 4
