REMARK  Name = ZINC43213533
REMARK  13 active torsions:
REMARK  status: ('A' for Active; 'I' for Inactive)
REMARK    1  A    between atoms: C_1  and  C_2
REMARK    2  A    between atoms: C_2  and  C_3
REMARK    3  A    between atoms: C_3  and  C_5
REMARK    4  A    between atoms: C_3  and  C_6
REMARK    5  A    between atoms: C_6  and  C_8
REMARK    6  A    between atoms: C_6  and  N_33
REMARK    7  A    between atoms: C_10  and  C_13
REMARK    8  A    between atoms: N_15  and  C_16
REMARK    9  A    between atoms: C_16  and  C_18
REMARK   10  A    between atoms: C_16  and  C_29
REMARK   11  A    between atoms: C_18  and  C_19
REMARK   12  A    between atoms: C_29  and  O_31
REMARK   13  A    between atoms: O_31  and  C_32
REMARK                            x       y       z     vdW  Elec       q    Type
REMARK                         _______ _______ _______ _____ _____    ______ ____
ROOT
ATOM      1  C   UNL     1       4.436  -3.828   4.165  0.00  0.00    +0.266 C 
ATOM      2  O   UNL     1       4.580  -4.128   5.335  0.00  0.00    -0.268 OA
ATOM      3  N   UNL     1       5.461  -3.972   3.302  0.00  0.00    -0.297 N 
ATOM      4  H   UNL     1       5.346  -3.733   2.368  0.00  0.00    +0.150 HD
ENDROOT
BRANCH   1   7
ATOM      5  C   UNL     1       1.601  -2.533   2.392  0.00  0.00    +0.182 A 
ATOM      6  N   UNL     1       2.836  -2.936   2.418  0.00  0.00    -0.210 NA
ATOM      7  C   UNL     1       3.140  -3.309   3.691  0.00  0.00    +0.163 A 
ATOM      8  C   UNL     1       2.024  -3.113   4.444  0.00  0.00    +0.230 A 
ATOM      9  O   UNL     1       1.079  -2.626   3.623  0.00  0.00    -0.449 OA
BRANCH   5  10
ATOM     10  C   UNL     1       0.872  -2.034   1.171  0.00  0.00    +0.016 C 
BRANCH  10  11
ATOM     11  N   UNL     1      -0.466  -2.637   1.119  0.00  0.00    +0.386 N 
ATOM     12  H   UNL     1      -0.954  -2.303   0.301  0.00  0.00    -0.089 HD
ATOM     13  H   UNL     1      -0.381  -3.642   1.072  0.00  0.00    -0.089 HD
ATOM     14  H   UNL     1      -0.983  -2.382   1.947  0.00  0.00    -0.089 HD
ENDBRANCH  10  11
BRANCH  10  15
ATOM     15  C   UNL     1       0.742  -0.511   1.242  0.00  0.00    -0.020 C 
ATOM     16  C   UNL     1      -0.042  -0.124   2.497  0.00  0.00    +0.006 C 
BRANCH  15  18
ATOM     17  C   UNL     1      -0.019   1.526   0.010  0.00  0.00    +0.004 C 
ATOM     18  C   UNL     1       0.002  -0.004   0.002  0.00  0.00    -0.001 C 
ENDBRANCH  15  18
ENDBRANCH  10  15
ENDBRANCH   5  10
ENDBRANCH   1   7
BRANCH   3  19
ATOM     19  C   UNL     1       6.749  -4.488   3.773  0.00  0.00    +0.186 C 
BRANCH  19  20
ATOM     20  C   UNL     1       7.569  -3.355   4.334  0.00  0.00    +0.328 C 
ATOM     21  O   UNL     1       7.124  -2.232   4.340  0.00  0.00    -0.249 OA
BRANCH  20  22
ATOM     22  O   UNL     1       8.794  -3.594   4.827  0.00  0.00    -0.467 OA
ATOM     23  C   UNL     1       9.516  -2.474   5.343  0.00  0.00    +0.280 C 
ENDBRANCH  20  22
ENDBRANCH  19  20
BRANCH  19  24
ATOM     24  C   UNL     1       7.499  -5.131   2.604  0.00  0.00    +0.071 C 
BRANCH  24  25
ATOM     25  C   UNL     1       6.737  -6.338   2.122  0.00  0.00    -0.020 A 
ATOM     26  C   UNL     1       6.940  -7.612   2.495  0.00  0.00    +0.087 A 
ATOM     27  N   UNL     1       6.058  -8.434   1.848  0.00  0.00    -0.360 N 
ATOM     28  H   UNL     1       6.013  -9.397   1.956  0.00  0.00    +0.165 HD
ATOM     29  C   UNL     1       5.246  -7.691   1.022  0.00  0.00    +0.047 A 
ATOM     30  C   UNL     1       5.631  -6.345   1.162  0.00  0.00    +0.003 A 
ATOM     31  C   UNL     1       4.969  -5.352   0.438  0.00  0.00    +0.010 A 
ATOM     32  C   UNL     1       3.945  -5.692  -0.401  0.00  0.00    +0.001 A 
ATOM     33  C   UNL     1       3.558  -7.018  -0.540  0.00  0.00    +0.002 A 
ATOM     34  C   UNL     1       4.205  -8.015   0.158  0.00  0.00    +0.026 A 
ENDBRANCH  24  25
ENDBRANCH  19  24
ENDBRANCH   3  19
TORSDOF 10
