REMARK  Name = ZINC07393076
REMARK  9 active torsions:
REMARK  status: ('A' for Active; 'I' for Inactive)
REMARK    1  A    between atoms: C_1  and  C_2
REMARK    2  A    between atoms: C_5  and  C_31
REMARK    3  A    between atoms: C_6  and  N_8
REMARK    4  A    between atoms: C_22  and  S_23
REMARK    5  A    between atoms: S_23  and  C_24
REMARK    6  A    between atoms: C_24  and  C_26
REMARK    7  A    between atoms: C_24  and  C_27
REMARK    8  A    between atoms: C_27  and  O_29
REMARK    9  A    between atoms: O_29  and  C_30
REMARK                            x       y       z     vdW  Elec       q    Type
REMARK                         _______ _______ _______ _____ _____    ______ ____
ROOT
ATOM      1  N   UNL     1       2.693   5.960   0.011  0.00  0.00    -0.254 N 
ATOM      2  C   UNL     1       3.496   4.874  -0.004  0.00  0.00    +0.283 A 
ATOM      3  O   UNL     1       4.709   4.998  -0.016  0.00  0.00    -0.265 OA
ATOM      4  C   UNL     1       2.902   3.595  -0.006  0.00  0.00    +0.132 A 
ATOM      5  C   UNL     1       1.511   3.507   0.008  0.00  0.00    +0.104 A 
ATOM      6  C   UNL     1       1.184   2.074   0.002  0.00  0.00    +0.026 A 
ATOM      7  C   UNL     1      -0.017   1.362   0.009  0.00  0.00    +0.012 A 
ATOM      8  C   UNL     1       0.002  -0.004   0.002  0.00  0.00    +0.001 A 
ATOM      9  C   UNL     1       1.208  -0.691  -0.014  0.00  0.00    +0.002 A 
ATOM     10  C   UNL     1       2.404  -0.009  -0.022  0.00  0.00    +0.026 A 
ATOM     11  C   UNL     1       2.408   1.384  -0.014  0.00  0.00    +0.049 A 
ATOM     12  N   UNL     1       3.427   2.312  -0.019  0.00  0.00    -0.349 N 
ATOM     13  H   UNL     1       4.374   2.099  -0.030  0.00  0.00    +0.166 HD
ATOM     14  N   UNL     1       0.770   4.627   0.022  0.00  0.00    -0.221 NA
ATOM     15  C   UNL     1       1.335   5.813   0.024  0.00  0.00    +0.178 A 
ENDROOT
BRANCH   1  21
ATOM     16  C   UNL     1       4.369   9.852  -2.485  0.00  0.00    +0.044 C 
ATOM     17  C   UNL     1       4.078   9.152  -1.183  0.00  0.00    -0.048 A 
ATOM     18  C   UNL     1       4.368   9.776   0.017  0.00  0.00    +0.004 A 
ATOM     19  C   UNL     1       4.102   9.137   1.214  0.00  0.00    +0.005 A 
ATOM     20  C   UNL     1       3.547   7.872   1.215  0.00  0.00    -0.026 A 
ATOM     21  C   UNL     1       3.256   7.243   0.013  0.00  0.00    +0.055 A 
ATOM     22  C   UNL     1       3.528   7.885  -1.188  0.00  0.00    +0.030 A 
ATOM     23  C   UNL     1       3.258   7.177   2.520  0.00  0.00    +0.046 C 
ENDBRANCH   1  21
BRANCH  15  24
ATOM     24  S   UNL     1       0.315   7.250   0.044  0.00  0.00    -0.073 S 
BRANCH  24  25
ATOM     25  C   UNL     1      -1.320   6.475   0.056  0.00  0.00    +0.160 C 
ATOM     26  C   UNL     1      -1.507   5.697   1.360  0.00  0.00    +0.031 C 
BRANCH  25  27
ATOM     27  C   UNL     1      -2.382   7.540  -0.050  0.00  0.00    +0.320 C 
ATOM     28  O   UNL     1      -2.119   8.685   0.233  0.00  0.00    -0.250 OA
BRANCH  27  29
ATOM     29  O   UNL     1      -3.619   7.216  -0.459  0.00  0.00    -0.467 OA
ATOM     30  C   UNL     1      -4.590   8.293  -0.537  0.00  0.00    +0.280 C 
ENDBRANCH  27  29
ENDBRANCH  25  27
ENDBRANCH  24  25
ENDBRANCH  15  24
TORSDOF 5
