REMARK  Name = ZINC36786907
REMARK  12 active torsions:
REMARK  status: ('A' for Active; 'I' for Inactive)
REMARK    1  A    between atoms: C_1  and  C_2
REMARK    2  A    between atoms: C_5  and  C_11
REMARK    3  A    between atoms: C_5  and  N_13
REMARK    4  A    between atoms: C_7  and  C_9
REMARK    5  A    between atoms: C_7  and  C_10
REMARK    6  A    between atoms: C_11  and  N_12
REMARK    7  A    between atoms: N_13  and  C_14
REMARK    8  A    between atoms: N_13  and  C_15
REMARK    9  A    between atoms: C_15  and  C_17
REMARK   10  A    between atoms: C_15  and  C_18
REMARK   11  A    between atoms: C_18  and  C_19
REMARK   12  A    between atoms: C_18  and  C_20
REMARK                            x       y       z     vdW  Elec       q    Type
REMARK                         _______ _______ _______ _____ _____    ______ ____
ROOT
ATOM      1  C   UNL     1       2.545   3.020  -1.411  0.00  0.00    +0.007 C 
ATOM      2  C   UNL     1       1.870   1.699  -1.037  0.00  0.00    -0.015 C 
ATOM      3  C   UNL     1       1.159   1.124  -2.264  0.00  0.00    -0.011 C 
ATOM      4  C   UNL     1       0.485  -0.198  -1.889  0.00  0.00    -0.081 C 
ATOM      5  C   UNL     1       1.542  -1.190  -1.401  0.00  0.00    -0.008 C 
ATOM      6  C   UNL     1       2.253  -0.615  -0.174  0.00  0.00    -0.036 C 
ATOM      7  C   UNL     1       2.928   0.706  -0.548  0.00  0.00    +0.009 C 
ATOM      8  C   UNL     1       1.232  -0.369   0.939  0.00  0.00    +0.011 C 
ATOM      9  C   UNL     1       3.310  -1.607   0.315  0.00  0.00    +0.011 C 
ENDROOT
BRANCH   4  10
ATOM     10  N   UNL     1      -0.496   0.039  -0.821  0.00  0.00    +0.382 N 
ATOM     11  C   UNL     1      -1.270   1.250  -1.126  0.00  0.00    -0.095 C 
ATOM     12  H   UNL     1      -0.014   0.160   0.057  0.00  0.00    -0.081 HD
BRANCH  10  13
ATOM     13  C   UNL     1      -1.404  -1.112  -0.727  0.00  0.00    -0.069 C 
ATOM     14  C   UNL     1      -0.784  -2.178   0.179  0.00  0.00    -0.013 C 
BRANCH  13  15
ATOM     15  C   UNL     1      -2.742  -0.659  -0.139  0.00  0.00    -0.031 C 
ATOM     16  C   UNL     1      -3.688  -1.857  -0.040  0.00  0.00    +0.005 C 
ATOM     17  C   UNL     1      -2.514  -0.074   1.256  0.00  0.00    +0.005 C 
ENDBRANCH  13  15
ENDBRANCH  10  13
ENDBRANCH   4  10
BRANCH   4  18
ATOM     18  C   UNL     1      -0.226  -0.773  -3.116  0.00  0.00    -0.099 C 
BRANCH  18  19
ATOM     19  N   UNL     1      -1.316   0.127  -3.517  0.00  0.00    +0.377 N 
ATOM     20  H   UNL     1      -2.135  -0.068  -2.961  0.00  0.00    -0.090 HD
ATOM     21  H   UNL     1      -1.032   1.085  -3.373  0.00  0.00    -0.090 HD
ATOM     22  H   UNL     1      -1.530  -0.018  -4.492  0.00  0.00    -0.090 HD
ENDBRANCH  18  19
ENDBRANCH   4  18
TORSDOF 5
