REMARK  Name = ZINC13815706
REMARK  6 active torsions:
REMARK  status: ('A' for Active; 'I' for Inactive)
REMARK    1  A    between atoms: C_1  and  C_2
REMARK    2  A    between atoms: C_2  and  C_32
REMARK    3  A    between atoms: C_5  and  O_31
REMARK    4  A    between atoms: C_10  and  O_30
REMARK    5  A    between atoms: C_12  and  O_29
REMARK    6  A    between atoms: C_20  and  O_22
REMARK                            x       y       z     vdW  Elec       q    Type
REMARK                         _______ _______ _______ _____ _____    ______ ____
ROOT
ATOM      1  C   UNL     1      -0.016   1.540  -0.028  0.00  0.00    +0.011 C 
ATOM      2  C   UNL     1       0.002  -0.004   0.002  0.00  0.00    -0.029 C 
ATOM      3  C   UNL     1       0.763  -0.453  -1.256  0.00  0.00    +0.009 C 
ATOM      4  C   UNL     1       0.961  -1.963  -1.242  0.00  0.00    +0.032 C 
ATOM      5  C   UNL     1       1.796  -2.364  -0.024  0.00  0.00    +0.124 C 
ATOM      6  C   UNL     1       1.095  -1.953   1.262  0.00  0.00    +0.030 C 
ATOM      7  C   UNL     1       0.722  -0.467   1.244  0.00  0.00    +0.040 C 
ATOM      8  C   UNL     1       0.052  -0.106   2.564  0.00  0.00    +0.179 C 
ATOM      9  C   UNL     1      -0.138  -1.381   3.403  0.00  0.00    +0.210 C 
ATOM     10  C   UNL     1       1.212  -1.986   3.734  0.00  0.00    +0.119 C 
ATOM     11  C   UNL     1       2.058  -2.114   2.457  0.00  0.00    +0.022 C 
ATOM     12  C   UNL     1       2.757  -3.467   2.442  0.00  0.00    +0.006 C 
ATOM     13  C   UNL     1       3.474  -3.713   3.773  0.00  0.00    +0.011 C 
ATOM     14  C   UNL     1       2.489  -3.567   4.944  0.00  0.00    +0.052 C 
ATOM     15  C   UNL     1       1.067  -3.403   4.335  0.00  0.00    +0.141 C 
ATOM     16  C   UNL     1       2.743  -2.196   5.567  0.00  0.00    -0.006 C 
ATOM     17  C   UNL     1       3.512  -1.938   6.625  0.00  0.00    +0.016 C 
ATOM     18  C   UNL     1       1.976  -1.214   4.779  0.00  0.00    +0.173 C 
ATOM     19  O   UNL     1       1.963  -0.012   4.943  0.00  0.00    -0.292 OA
ATOM     20  O   UNL     1      -0.881  -2.325   2.615  0.00  0.00    -0.345 OA
ATOM     21  C   UNL     1      -0.130  -2.829   1.506  0.00  0.00    +0.173 C 
ATOM     22  C   UNL     1      -1.439  -0.499  -0.100  0.00  0.00    +0.011 C 
ENDROOT
BRANCH  15  23
ATOM     23  O   UNL     1       0.067  -3.444   5.357  0.00  0.00    -0.390 OA
ATOM     24  H   UNL     1      -0.052  -4.317   5.757  0.00  0.00    +0.210 HD
ENDBRANCH  15  23
BRANCH   9  25
ATOM     25  O   UNL     1      -0.848  -1.063   4.598  0.00  0.00    -0.362 OA
ATOM     26  H   UNL     1      -1.726  -0.688   4.446  0.00  0.00    +0.213 HD
ENDBRANCH   9  25
BRANCH   8  27
ATOM     27  O   UNL     1      -1.192   0.562   2.430  0.00  0.00    -0.386 OA
ATOM     28  H   UNL     1      -1.610   0.787   3.273  0.00  0.00    +0.210 HD
ENDBRANCH   8  27
BRANCH   5  29
ATOM     29  O   UNL     1       1.971  -3.785  -0.055  0.00  0.00    -0.391 OA
ATOM     30  H   UNL     1       2.423  -4.109  -0.847  0.00  0.00    +0.210 HD
ENDBRANCH   5  29
TORSDOF 4
