REMARK  Name = ZINC36659969
REMARK  11 active torsions:
REMARK  status: ('A' for Active; 'I' for Inactive)
REMARK    1  A    between atoms: C_1  and  C_2
REMARK    2  A    between atoms: C_5  and  C_38
REMARK    3  A    between atoms: N_8  and  S_10
REMARK    4  A    between atoms: S_10  and  C_13
REMARK    5  A    between atoms: C_15  and  C_21
REMARK    6  A    between atoms: C_18  and  O_19
REMARK    7  A    between atoms: O_19  and  C_20
REMARK    8  A    between atoms: N_23  and  C_24
REMARK    9  A    between atoms: C_24  and  C_25
REMARK   10  A    between atoms: C_25  and  C_27
REMARK   11  A    between atoms: C_25  and  N_33
REMARK                            x       y       z     vdW  Elec       q    Type
REMARK                         _______ _______ _______ _____ _____    ______ ____
ROOT
ATOM      1  C   UNL     1       2.667   2.491   1.966  0.00  0.00    +0.148 A 
ATOM      2  C   UNL     1       1.981   3.252   2.886  0.00  0.00    +0.045 A 
ATOM      3  C   UNL     1       1.707   4.595   2.613  0.00  0.00    +0.039 A 
ATOM      4  C   UNL     1       2.130   5.160   1.407  0.00  0.00    +0.017 A 
ATOM      5  C   UNL     1       2.815   4.392   0.492  0.00  0.00    +0.048 A 
ATOM      6  C   UNL     1       3.091   3.058   0.770  0.00  0.00    +0.146 A 
ENDROOT
BRANCH   3   7
ATOM      7  C   UNL     1       0.972   5.415   3.596  0.00  0.00    +0.244 C 
ATOM      8  O   UNL     1       0.604   4.921   4.645  0.00  0.00    -0.270 OA
ATOM      9  N   UNL     1       0.708   6.710   3.332  0.00  0.00    -0.313 N 
ATOM     10  H   UNL     1       1.002   7.103   2.495  0.00  0.00    +0.149 HD
BRANCH   9  11
ATOM     11  C   UNL     1      -0.022   7.523   4.308  0.00  0.00    +0.094 C 
BRANCH  11  12
ATOM     12  C   UNL     1      -0.093   8.969   3.814  0.00  0.00    -0.020 C 
BRANCH  12  13
ATOM     13  C   UNL     1      -0.926   9.031   2.560  0.00  0.00    -0.059 A 
ATOM     14  C   UNL     1      -2.306   9.034   2.646  0.00  0.00    +0.002 A 
ATOM     15  C   UNL     1      -3.070   9.091   1.495  0.00  0.00    +0.000 A 
ATOM     16  C   UNL     1      -2.454   9.146   0.259  0.00  0.00    +0.000 A 
ATOM     17  C   UNL     1      -1.075   9.143   0.173  0.00  0.00    +0.000 A 
ATOM     18  C   UNL     1      -0.311   9.091   1.323  0.00  0.00    +0.002 A 
ENDBRANCH  12  13
BRANCH  12  19
ATOM     19  N   UNL     1      -0.706   9.811   4.851  0.00  0.00    +0.385 N 
ATOM     20  C   UNL     1       0.141   9.819   6.070  0.00  0.00    -0.078 C 
ATOM     21  C   UNL     1      -0.295  11.116   6.797  0.00  0.00    -0.020 C 
ATOM     22  C   UNL     1      -0.529  12.103   5.630  0.00  0.00    -0.020 C 
ATOM     23  C   UNL     1      -0.770  11.216   4.395  0.00  0.00    -0.078 C 
ATOM     24  H   UNL     1      -1.631   9.474   5.071  0.00  0.00    -0.081 HD
ENDBRANCH  12  19
ENDBRANCH  11  12
ENDBRANCH   9  11
ENDBRANCH   3   7
BRANCH   1  25
ATOM     25  S   UNL     1       3.013   0.798   2.308  0.00  0.00    +0.064 S 
ATOM     26  O   UNL     1       2.435   0.513   3.575  0.00  0.00    -0.153 OA
ATOM     27  O   UNL     1       4.395   0.603   2.040  0.00  0.00    -0.153 OA
BRANCH  25  33
ATOM     28  C   UNL     1      -0.173   1.402   0.279  0.00  0.00    +0.009 C 
ATOM     29  C   UNL     1      -0.093  -0.125   0.317  0.00  0.00    +0.002 C 
ATOM     30  C   UNL     1       0.486  -0.640  -1.003  0.00  0.00    +0.009 C 
ATOM     31  C   UNL     1       1.874  -0.034  -1.224  0.00  0.00    +0.002 C 
ATOM     32  C   UNL     1       2.803  -0.469  -0.086  0.00  0.00    +0.112 C 
ATOM     33  N   UNL     1       2.183  -0.106   1.196  0.00  0.00    -0.176 NA
ATOM     34  C   UNL     1       0.813  -0.561   1.473  0.00  0.00    +0.112 C 
ATOM     35  C   UNL     1       2.437  -0.523  -2.560  0.00  0.00    +0.009 C 
ENDBRANCH  25  33
ENDBRANCH   1  25
BRANCH   6  36
ATOM     36  O   UNL     1       3.772   2.306  -0.132  0.00  0.00    -0.493 OA
ATOM     37  C   UNL     1       4.178   2.952  -1.340  0.00  0.00    +0.277 C 
ENDBRANCH   6  36
TORSDOF 8
