REMARK  Name = ZINC60464691
REMARK  7 active torsions:
REMARK  status: ('A' for Active; 'I' for Inactive)
REMARK    1  A    between atoms: C_1  and  C_2
REMARK    2  A    between atoms: C_2  and  C_3
REMARK    3  A    between atoms: C_2  and  N_10
REMARK    4  A    between atoms: C_14  and  C_16
REMARK    5  A    between atoms: C_16  and  N_17
REMARK    6  A    between atoms: N_17  and  C_18
REMARK    7  A    between atoms: C_21  and  C_24
REMARK                            x       y       z     vdW  Elec       q    Type
REMARK                         _______ _______ _______ _____ _____    ______ ____
ROOT
ATOM      1  N   UNL     1      -1.308  -0.659   0.028  0.00  0.00    -0.296 N 
ATOM      2  C   UNL     1      -2.021  -0.785  -1.109  0.00  0.00    +0.306 C 
ATOM      3  O   UNL     1      -1.576  -0.357  -2.156  0.00  0.00    -0.252 OA
ATOM      4  N   UNL     1      -3.226  -1.388  -1.085  0.00  0.00    -0.239 N 
ATOM      5  C   UNL     1      -3.939  -1.514  -2.223  0.00  0.00    +0.237 C 
ATOM      6  O   UNL     1      -3.495  -1.087  -3.267  0.00  0.00    -0.274 OA
ATOM      7  H   UNL     1      -1.663  -1.001   0.863  0.00  0.00    +0.151 HD
ATOM      8  H   UNL     1      -3.581  -1.730  -0.250  0.00  0.00    +0.159 HD
ENDROOT
BRANCH   1  10
ATOM      9  C   UNL     1      -0.182   1.510   0.121  0.00  0.00    +0.028 C 
ATOM     10  C   UNL     1       0.002  -0.004   0.002  0.00  0.00    +0.075 C 
BRANCH  10  11
ATOM     11  C   UNL     1       0.848  -0.509   1.173  0.00  0.00    +0.012 C 
ATOM     12  C   UNL     1       2.296   0.019   1.059  0.00  0.00    +0.009 C 
ATOM     13  C   UNL     1       3.175  -1.263   0.941  0.00  0.00    -0.010 C 
ATOM     14  C   UNL     1       3.104  -1.917   2.354  0.00  0.00    +0.004 C 
ATOM     15  C   UNL     1       1.656  -2.446   2.468  0.00  0.00    +0.004 C 
ATOM     16  C   UNL     1       0.988  -2.061   1.113  0.00  0.00    -0.006 C 
ATOM     17  C   UNL     1       2.209  -2.204   0.137  0.00  0.00    +0.007 C 
ENDBRANCH  10  11
ENDBRANCH   1  10
BRANCH   5  18
ATOM     18  C   UNL     1      -5.287  -2.188  -2.196  0.00  0.00    +0.198 C 
BRANCH  18  19
ATOM     19  N   UNL     1      -5.853  -2.200  -3.547  0.00  0.00    -0.335 N 
ATOM     20  H   UNL     1      -5.359  -1.808  -4.284  0.00  0.00    +0.147 HD
BRANCH  19  21
ATOM     21  C   UNL     1      -7.100  -2.773  -3.773  0.00  0.00    +0.028 A 
ATOM     22  C   UNL     1      -7.811  -3.329  -2.713  0.00  0.00    +0.023 A 
ATOM     23  C   UNL     1      -9.045  -3.897  -2.934  0.00  0.00    +0.015 A 
ATOM     24  C   UNL     1      -9.584  -3.914  -4.223  0.00  0.00    +0.037 A 
ATOM     25  C   UNL     1      -8.868  -3.354  -5.285  0.00  0.00    +0.015 A 
ATOM     26  C   UNL     1      -7.637  -2.783  -5.057  0.00  0.00    +0.023 A 
BRANCH  24  27
ATOM     27  C   UNL     1     -10.907  -4.522  -4.463  0.00  0.00    +0.242 C 
ATOM     28  O   UNL     1     -11.529  -5.009  -3.539  0.00  0.00    -0.270 OA
ATOM     29  N   UNL     1     -11.426  -4.538  -5.707  0.00  0.00    -0.325 N 
ATOM     30  H   UNL     1     -10.929  -4.150  -6.445  0.00  0.00    +0.145 HD
ATOM     31  H   UNL     1     -12.295  -4.938  -5.865  0.00  0.00    +0.145 HD
ENDBRANCH  24  27
ENDBRANCH  19  21
ENDBRANCH  18  19
ENDBRANCH   5  18
TORSDOF 6
