REMARK  Name = ZINC13148980
REMARK  9 active torsions:
REMARK  status: ('A' for Active; 'I' for Inactive)
REMARK    1  A    between atoms: C_1  and  C_2
REMARK    2  A    between atoms: C_2  and  C_3
REMARK    3  A    between atoms: C_3  and  C_4
REMARK    4  A    between atoms: C_4  and  N_5
REMARK    5  A    between atoms: C_9  and  S_11
REMARK    6  A    between atoms: S_11  and  C_12
REMARK    7  A    between atoms: C_12  and  C_13
REMARK    8  A    between atoms: C_16  and  C_32
REMARK    9  A    between atoms: C_24  and  C_25
REMARK                            x       y       z     vdW  Elec       q    Type
REMARK                         _______ _______ _______ _____ _____    ______ ____
ROOT
ATOM      1  C   UNL     1       2.154   1.818   1.073  0.00  0.00    +0.246 C 
ATOM      2  O   UNL     1       1.754   1.521   2.179  0.00  0.00    -0.273 OA
ATOM      3  N   UNL     1       1.362   1.635  -0.002  0.00  0.00    -0.181 N 
ATOM      4  C   UNL     1      -0.013   1.086   0.008  0.00  0.00    +0.176 C 
ATOM      5  C   UNL     1      -0.577   1.637  -1.313  0.00  0.00    +0.069 C 
ATOM      6  C   UNL     1      -1.385   0.581  -2.069  0.00  0.00    +0.012 C 
ATOM      7  C   UNL     1      -1.754   1.150  -3.437  0.00  0.00    +0.005 C 
ATOM      8  C   UNL     1      -0.552   1.456  -4.307  0.00  0.00    +0.037 C 
ATOM      9  C   UNL     1       0.658   1.908  -3.548  0.00  0.00    -0.021 C 
ATOM     10  C   UNL     1       1.738   2.365  -4.224  0.00  0.00    +0.051 C 
ATOM     11  C   UNL     1       0.687   1.865  -2.136  0.00  0.00    +0.068 C 
ATOM     12  N   UNL     1       1.691   1.931  -1.331  0.00  0.00    -0.181 NA
ENDROOT
BRANCH  10  13
ATOM     13  C   UNL     1       1.719   2.414  -5.685  0.00  0.00    +0.128 A 
ATOM     14  C   UNL     1       2.736   2.850  -6.488  0.00  0.00    +0.049 A 
ATOM     15  C   UNL     1       2.287   2.722  -7.814  0.00  0.00    +0.042 A 
ATOM     16  C   UNL     1       1.035   2.221  -7.763  0.00  0.00    +0.195 A 
ATOM     17  O   UNL     1       0.697   2.031  -6.478  0.00  0.00    -0.464 OA
ENDBRANCH  10  13
BRANCH   4  18
ATOM     18  C   UNL     1      -0.793   1.606   1.188  0.00  0.00    +0.128 A 
ATOM     19  C   UNL     1      -1.714   0.918   1.887  0.00  0.00    +0.046 A 
ATOM     20  C   UNL     1      -2.188   1.782   2.900  0.00  0.00    +0.041 A 
ATOM     21  C   UNL     1      -1.536   2.949   2.754  0.00  0.00    +0.195 A 
ATOM     22  O   UNL     1      -0.692   2.837   1.715  0.00  0.00    -0.466 OA
ENDBRANCH   4  18
BRANCH   1  23
ATOM     23  C   UNL     1       3.538   2.390   0.901  0.00  0.00    +0.174 C 
BRANCH  23  24
ATOM     24  S   UNL     1       4.347   2.512   2.521  0.00  0.00    -0.088 S 
BRANCH  24  29
ATOM     25  N   UNL     1       9.710   4.689   2.201  0.00  0.00    -0.322 N 
ATOM     26  C   UNL     1       8.421   4.196   2.035  0.00  0.00    +0.182 A 
ATOM     27  N   UNL     1       7.718   4.053   0.929  0.00  0.00    -0.125 NA
ATOM     28  N   UNL     1       6.446   3.532   0.990  0.00  0.00    -0.133 NA
ATOM     29  C   UNL     1       5.932   3.189   2.155  0.00  0.00    +0.160 A 
ATOM     30  S   UNL     1       7.276   3.587   3.263  0.00  0.00    -0.025 S 
ATOM     31  H   UNL     1      10.101   4.735   3.088  0.00  0.00    +0.148 HD
BRANCH  25  32
ATOM     32  C   UNL     1      10.478   5.139   1.038  0.00  0.00    +0.103 C 
BRANCH  32  33
ATOM     33  C   UNL     1      11.854   5.631   1.493  0.00  0.00    +0.018 C 
BRANCH  33  35
ATOM     34  C   UNL     1      14.031   6.593   0.734  0.00  0.00    +0.004 C 
ATOM     35  C   UNL     1      12.655   6.101   0.278  0.00  0.00    -0.002 C 
ENDBRANCH  33  35
ENDBRANCH  32  33
ENDBRANCH  25  32
ENDBRANCH  24  29
ENDBRANCH  23  24
ENDBRANCH   1  23
TORSDOF 8
