REMARK  Name = ZINC63395085
REMARK  13 active torsions:
REMARK  status: ('A' for Active; 'I' for Inactive)
REMARK    1  A    between atoms: C_1  and  O_2
REMARK    2  A    between atoms: O_2  and  C_3
REMARK    3  A    between atoms: C_6  and  C_9
REMARK    4  A    between atoms: C_10  and  C_11
REMARK    5  A    between atoms: C_10  and  N_25
REMARK    6  A    between atoms: N_13  and  C_14
REMARK    7  A    between atoms: C_14  and  C_15
REMARK    8  A    between atoms: C_15  and  C_16
REMARK    9  A    between atoms: C_26  and  C_28
REMARK   10  A    between atoms: C_31  and  O_36
REMARK   11  A    between atoms: C_32  and  O_34
REMARK   12  A    between atoms: O_34  and  C_35
REMARK   13  A    between atoms: O_36  and  C_37
REMARK                            x       y       z     vdW  Elec       q    Type
REMARK                         _______ _______ _______ _____ _____    ______ ____
ROOT
ATOM      1  C   UNL     1      -5.015  -2.742   0.477  0.00  0.00    +0.036 C 
ATOM      2  C   UNL     1      -5.018  -3.975  -0.082  0.00  0.00    +0.097 C 
ENDROOT
BRANCH   1   6
ATOM      3  C   UNL     1      -1.522  -1.295   2.400  0.00  0.00    +0.120 A 
ATOM      4  C   UNL     1      -1.827  -2.650   2.446  0.00  0.00    +0.046 A 
ATOM      5  C   UNL     1      -2.960  -3.125   1.823  0.00  0.00    +0.011 A 
ATOM      6  C   UNL     1      -3.805  -2.241   1.143  0.00  0.00    -0.023 A 
ATOM      7  C   UNL     1      -3.493  -0.877   1.100  0.00  0.00    +0.011 A 
ATOM      8  C   UNL     1      -2.361  -0.411   1.730  0.00  0.00    +0.046 A 
BRANCH   3  10
ATOM      9  C   UNL     1       0.413  -1.793   3.686  0.00  0.00    +0.277 C 
ATOM     10  O   UNL     1      -0.405  -0.832   3.016  0.00  0.00    -0.495 OA
ENDBRANCH   3  10
ENDBRANCH   1   6
BRANCH   2  11
ATOM     11  C   UNL     1      -3.774  -4.752  -0.154  0.00  0.00    +0.258 C 
ATOM     12  O   UNL     1      -3.604  -5.700   0.591  0.00  0.00    -0.269 OA
ATOM     13  N   UNL     1      -2.820  -4.416  -1.045  0.00  0.00    -0.310 N 
ATOM     14  H   UNL     1      -2.923  -3.619  -1.588  0.00  0.00    +0.149 HD
BRANCH  13  15
ATOM     15  C   UNL     1      -1.627  -5.254  -1.192  0.00  0.00    +0.109 C 
BRANCH  15  16
ATOM     16  C   UNL     1      -0.656  -4.591  -2.171  0.00  0.00    +0.052 C 
BRANCH  16  17
ATOM     17  C   UNL     1       0.514  -5.508  -2.416  0.00  0.00    -0.040 C 
ATOM     18  C   UNL     1       0.661  -6.385  -3.435  0.00  0.00    -0.001 A 
ATOM     19  C   UNL     1      -0.193  -6.736  -4.576  0.00  0.00    +0.010 A 
ATOM     20  C   UNL     1       0.233  -7.676  -5.450  0.00  0.00    +0.001 A 
ATOM     21  C   UNL     1       1.466  -8.322  -5.294  0.00  0.00    +0.002 A 
ATOM     22  C   UNL     1       2.306  -8.055  -4.271  0.00  0.00    +0.026 A 
ATOM     23  C   UNL     1       1.959  -7.082  -3.293  0.00  0.00    +0.043 A 
ATOM     24  N   UNL     1       2.591  -6.653  -2.227  0.00  0.00    -0.380 N 
ATOM     25  C   UNL     1       1.766  -5.629  -1.575  0.00  0.00    +0.144 C 
ATOM     26  H   UNL     1       3.460  -6.958  -1.923  0.00  0.00    +0.160 HD
ENDBRANCH  16  17
ENDBRANCH  15  16
ENDBRANCH  13  15
ENDBRANCH   2  11
BRANCH   2  27
ATOM     27  N   UNL     1      -6.207  -4.510  -0.591  0.00  0.00    -0.277 N 
ATOM     28  C   UNL     1      -6.202  -5.720  -1.185  0.00  0.00    +0.248 C 
ATOM     29  O   UNL     1      -5.186  -6.388  -1.195  0.00  0.00    -0.270 OA
ATOM     30  H   UNL     1      -7.034  -4.009  -0.516  0.00  0.00    +0.155 HD
BRANCH  28  31
ATOM     31  C   UNL     1      -7.430  -6.234  -1.822  0.00  0.00    +0.041 A 
ATOM     32  C   UNL     1      -8.596  -5.465  -1.816  0.00  0.00    +0.017 A 
ATOM     33  C   UNL     1      -9.742  -5.947  -2.412  0.00  0.00    +0.050 A 
ATOM     34  C   UNL     1      -9.740  -7.195  -3.018  0.00  0.00    +0.162 A 
ATOM     35  C   UNL     1      -8.580  -7.967  -3.028  0.00  0.00    +0.162 A 
ATOM     36  C   UNL     1      -7.426  -7.488  -2.438  0.00  0.00    +0.062 A 
BRANCH  35  37
ATOM     37  O   UNL     1      -8.582  -9.190  -3.623  0.00  0.00    -0.491 OA
ATOM     38  C   UNL     1      -7.357  -9.927  -3.596  0.00  0.00    +0.277 C 
ENDBRANCH  35  37
BRANCH  34  39
ATOM     39  O   UNL     1     -10.872  -7.666  -3.603  0.00  0.00    -0.491 OA
ATOM     40  C   UNL     1     -12.025  -6.823  -3.555  0.00  0.00    +0.277 C 
ENDBRANCH  34  39
ENDBRANCH  28  31
ENDBRANCH   2  27
TORSDOF 10
