REMARK  Name = ZINC39068660
REMARK  6 active torsions:
REMARK  status: ('A' for Active; 'I' for Inactive)
REMARK    1  A    between atoms: C_1  and  C_2
REMARK    2  A    between atoms: C_2  and  C_4
REMARK    3  A    between atoms: C_5  and  C_6
REMARK    4  A    between atoms: C_6  and  C_7
REMARK    5  A    between atoms: C_7  and  C_8
REMARK    6  A    between atoms: C_8  and  C_9
REMARK                            x       y       z     vdW  Elec       q    Type
REMARK                         _______ _______ _______ _____ _____    ______ ____
ROOT
ATOM      1  C   UNL     1      -1.228  -0.737   0.010  0.00  0.00    -0.029 C 
ATOM      2  C   UNL     1      -2.237  -1.338   0.016  0.00  0.00    -0.094 C 
ENDROOT
BRANCH   1   4
ATOM      3  C   UNL     1      -0.018   1.503   0.010  0.00  0.00    +0.101 C 
ATOM      4  C   UNL     1       0.002  -0.004   0.002  0.00  0.00    +0.203 C 
ATOM      5  O   UNL     1       1.061  -0.596  -0.011  0.00  0.00    -0.283 OA
ENDBRANCH   1   4
BRANCH   2   6
ATOM      6  C   UNL     1      -3.501  -2.091   0.024  0.00  0.00    +0.090 C 
BRANCH   6   7
ATOM      7  C   UNL     1      -3.201  -3.591   0.013  0.00  0.00    +0.025 C 
BRANCH   7   8
ATOM      8  C   UNL     1      -4.516  -4.374   0.022  0.00  0.00    +0.089 C 
BRANCH   8   9
ATOM      9  C   UNL     1      -4.227  -5.818   0.011  0.00  0.00    -0.106 C 
ATOM     10  C   UNL     1      -3.997  -6.969   0.003  0.00  0.00    +0.004 C 
ENDBRANCH   8   9
ENDBRANCH   7   8
ENDBRANCH   6   7
ENDBRANCH   2   6
TORSDOF 5
