REMARK  Name = ZINC42010859
REMARK  5 active torsions:
REMARK  status: ('A' for Active; 'I' for Inactive)
REMARK    1  A    between atoms: C_1  and  C_2
REMARK    2  A    between atoms: C_5  and  C_8
REMARK    3  A    between atoms: C_5  and  S_11
REMARK    4  A    between atoms: S_11  and  C_12
REMARK    5  A    between atoms: C_18  and  N_20
REMARK                            x       y       z     vdW  Elec       q    Type
REMARK                         _______ _______ _______ _____ _____    ______ ____
ROOT
ATOM      1  S   UNL     1       1.504  -4.348  -0.036  0.00  0.00    -0.069 S 
ENDROOT
BRANCH   1   2
ATOM      2  C   UNL     1       2.378  -4.771   1.434  0.00  0.00    +0.172 A 
ATOM      3  N   UNL     1       2.584  -6.083   1.735  0.00  0.00    -0.302 N 
ATOM      4  H   UNL     1       2.250  -6.774   1.141  0.00  0.00    +0.171 HD
ATOM      5  C   UNL     1       3.252  -6.425   2.856  0.00  0.00    +0.254 A 
ATOM      6  O   UNL     1       3.441  -7.599   3.133  0.00  0.00    -0.268 OA
ATOM      7  C   UNL     1       3.724  -5.412   3.696  0.00  0.00    +0.113 A 
ATOM      8  C   UNL     1       3.488  -4.090   3.346  0.00  0.00    +0.124 A 
ATOM      9  N   UNL     1       2.825  -3.811   2.218  0.00  0.00    -0.209 NA
BRANCH   8  10
ATOM     10  N   UNL     1       3.942  -3.067   4.154  0.00  0.00    -0.343 N 
ATOM     11  H   UNL     1       4.426  -3.272   4.970  0.00  0.00    +0.144 HD
ATOM     12  H   UNL     1       3.776  -2.144   3.908  0.00  0.00    +0.144 HD
ENDBRANCH   8  10
ENDBRANCH   1   2
BRANCH   1  17
ATOM     13  C   UNL     1      -0.019   1.526   0.010  0.00  0.00    +0.007 C 
ATOM     14  C   UNL     1       0.002  -0.004   0.002  0.00  0.00    -0.014 C 
ATOM     15  C   UNL     1       0.718  -0.497  -1.257  0.00  0.00    +0.005 C 
ATOM     16  C   UNL     1       0.739  -2.027  -1.265  0.00  0.00    +0.030 C 
ATOM     17  C   UNL     1       1.479  -2.534  -0.026  0.00  0.00    +0.125 C 
ATOM     18  C   UNL     1       0.763  -2.041   1.233  0.00  0.00    +0.030 C 
ATOM     19  C   UNL     1       0.742  -0.511   1.242  0.00  0.00    +0.005 C 
BRANCH  17  20
ATOM     20  C   UNL     1       2.893  -2.013  -0.036  0.00  0.00    +0.372 C 
ATOM     21  O   UNL     1       3.099  -0.811  -0.032  0.00  0.00    -0.245 OA
ATOM     22  O   UNL     1       3.830  -2.792  -0.050  0.00  0.00    -0.245 OA
ENDBRANCH  17  20
ENDBRANCH   1  17
TORSDOF 4
