REMARK  Name = ZINC34757114
REMARK  8 active torsions:
REMARK  status: ('A' for Active; 'I' for Inactive)
REMARK    1  A    between atoms: C_1  and  C_2
REMARK    2  A    between atoms: C_2  and  C_3
REMARK    3  A    between atoms: C_3  and  S_4
REMARK    4  A    between atoms: S_4  and  C_5
REMARK    5  A    between atoms: N_20  and  C_23
REMARK    6  A    between atoms: C_23  and  C_24
REMARK    7  A    between atoms: C_26  and  C_31
REMARK    8  A    between atoms: C_29  and  C_30
REMARK                            x       y       z     vdW  Elec       q    Type
REMARK                         _______ _______ _______ _____ _____    ______ ____
ROOT
ATOM      1  C   UNL     1       1.302  -2.444   4.431  0.00  0.00    +0.191 A 
ATOM      2  N   UNL     1       1.513  -3.734   4.668  0.00  0.00    -0.206 NA
ATOM      3  C   UNL     1       2.491  -4.405   4.083  0.00  0.00    +0.134 A 
ATOM      4  C   UNL     1       3.346  -3.727   3.171  0.00  0.00    +0.051 A 
ATOM      5  C   UNL     1       4.487  -4.270   2.412  0.00  0.00    -0.025 A 
ATOM      6  C   UNL     1       5.141  -3.417   1.609  0.00  0.00    -0.004 A 
ATOM      7  S   UNL     1       4.300  -1.862   1.799  0.00  0.00    -0.073 S 
ATOM      8  C   UNL     1       3.066  -2.365   2.967  0.00  0.00    +0.115 A 
ATOM      9  N   UNL     1       2.066  -1.765   3.586  0.00  0.00    -0.215 NA
ATOM     10  C   UNL     1       6.287  -4.079   0.890  0.00  0.00    +0.043 C 
ATOM     11  C   UNL     1       6.539  -5.382   1.680  0.00  0.00    +0.010 C 
ATOM     12  C   UNL     1       5.152  -5.644   2.300  0.00  0.00    +0.037 C 
ATOM     13  N   UNL     1       2.680  -5.748   4.355  0.00  0.00    -0.318 N 
ATOM     14  C   UNL     1       3.488  -6.180   5.506  0.00  0.00    +0.088 C 
ATOM     15  C   UNL     1       2.681  -7.206   6.309  0.00  0.00    -0.059 C 
ATOM     16  N   UNL     1       2.259  -8.297   5.421  0.00  0.00    +0.384 N 
ATOM     17  C   UNL     1       1.339  -7.782   4.399  0.00  0.00    -0.059 C 
ATOM     18  C   UNL     1       2.075  -6.785   3.505  0.00  0.00    +0.088 C 
ATOM     19  H   UNL     1       3.069  -8.696   4.972  0.00  0.00    -0.081 HD
ENDROOT
BRANCH   1  20
ATOM     20  S   UNL     1      -0.023  -1.621   5.251  0.00  0.00    -0.086 S 
BRANCH  20  21
ATOM     21  C   UNL     1       0.066   0.080   4.628  0.00  0.00    +0.077 C 
BRANCH  21  23
ATOM     22  C   UNL     1      -0.970   2.351   4.743  0.00  0.00    +0.004 C 
ATOM     23  C   UNL     1      -1.045   0.916   5.268  0.00  0.00    +0.008 C 
ENDBRANCH  21  23
ENDBRANCH  20  21
ENDBRANCH   1  20
BRANCH  16  24
ATOM     24  C   UNL     1       1.580  -9.333   6.211  0.00  0.00    -0.043 C 
BRANCH  24  25
ATOM     25  C   UNL     1       1.255 -10.508   5.324  0.00  0.00    -0.061 A 
ATOM     26  C   UNL     1      -0.021 -10.657   4.815  0.00  0.00    +0.005 A 
ATOM     27  C   UNL     1      -0.320 -11.734   4.002  0.00  0.00    -0.050 A 
ATOM     28  C   UNL     1       0.659 -12.662   3.697  0.00  0.00    +0.003 A 
ATOM     29  C   UNL     1       1.935 -12.513   4.206  0.00  0.00    +0.004 A 
ATOM     30  C   UNL     1       2.235 -11.433   5.016  0.00  0.00    -0.049 A 
ATOM     31  C   UNL     1       3.628 -11.267   5.566  0.00  0.00    +0.044 C 
ATOM     32  C   UNL     1      -1.711 -11.898   3.447  0.00  0.00    +0.044 C 
ENDBRANCH  24  25
ENDBRANCH  16  24
TORSDOF 5
