REMARK  Name = ZINC09138260
REMARK  9 active torsions:
REMARK  status: ('A' for Active; 'I' for Inactive)
REMARK    1  A    between atoms: C_1  and  N_2
REMARK    2  A    between atoms: C_10  and  C_12
REMARK    3  A    between atoms: C_12  and  C_14
REMARK    4  A    between atoms: C_12  and  N_67
REMARK    5  A    between atoms: C_14  and  N_15
REMARK    6  A    between atoms: C_16  and  C_18
REMARK    7  A    between atoms: N_20  and  C_21
REMARK    8  A    between atoms: C_26  and  S_27
REMARK    9  A    between atoms: S_27  and  C_28
REMARK                            x       y       z     vdW  Elec       q    Type
REMARK                         _______ _______ _______ _____ _____    ______ ____
ROOT
ATOM      1  C   UNL     1       3.277  -1.285   4.702  0.00  0.00    -0.020 C 
ENDROOT
BRANCH   1  11
ATOM      2  C   UNL     1      -3.033  -1.016   4.585  0.00  0.00    +0.129 C 
ATOM      3  N   UNL     1      -2.209  -0.476   3.496  0.00  0.00    -0.333 N 
ATOM      4  C   UNL     1      -2.583   0.907   3.192  0.00  0.00    +0.105 C 
ATOM      5  C   UNL     1      -1.674   1.426   2.070  0.00  0.00    +0.024 C 
ATOM      6  C   UNL     1      -0.257   1.552   2.633  0.00  0.00    +0.038 C 
ATOM      7  C   UNL     1       0.104   0.295   3.384  0.00  0.00    -0.026 A 
ATOM      8  C   UNL     1      -0.851  -0.627   3.773  0.00  0.00    +0.033 A 
ATOM      9  C   UNL     1      -0.457  -1.768   4.474  0.00  0.00    +0.023 A 
ATOM     10  C   UNL     1       0.872  -1.978   4.774  0.00  0.00    +0.004 A 
ATOM     11  C   UNL     1       1.823  -1.056   4.378  0.00  0.00    -0.059 A 
ATOM     12  C   UNL     1       1.439   0.075   3.686  0.00  0.00    +0.007 A 
ENDBRANCH   1  11
BRANCH   1  18
ATOM     13  C   UNL     1       3.929  -1.901   2.453  0.00  0.00    -0.078 C 
ATOM     14  C   UNL     1       4.617  -2.986   1.621  0.00  0.00    -0.019 C 
ATOM     15  C   UNL     1       3.792  -4.274   1.688  0.00  0.00    -0.004 C 
ATOM     16  C   UNL     1       3.639  -4.697   3.151  0.00  0.00    -0.019 C 
ATOM     17  C   UNL     1       2.979  -3.563   3.939  0.00  0.00    -0.078 C 
ATOM     18  N   UNL     1       3.834  -2.360   3.856  0.00  0.00    +0.385 N 
ATOM     19  H   UNL     1       4.775  -2.596   4.193  0.00  0.00    -0.081 HD
ENDBRANCH   1  18
BRANCH   1  20
ATOM     20  C   UNL     1       3.415  -1.693   6.170  0.00  0.00    +0.094 C 
BRANCH  20  21
ATOM     21  N   UNL     1       4.815  -2.012   6.459  0.00  0.00    -0.309 N 
ATOM     22  C   UNL     1       5.160  -2.497   7.669  0.00  0.00    +0.299 C 
ATOM     23  O   UNL     1       4.310  -2.669   8.518  0.00  0.00    -0.265 OA
ATOM     24  H   UNL     1       5.494  -1.875   5.780  0.00  0.00    +0.149 HD
BRANCH  22  25
ATOM     25  C   UNL     1       6.587  -2.822   7.963  0.00  0.00    +0.303 C 
ATOM     26  O   UNL     1       7.437  -2.650   7.114  0.00  0.00    -0.265 OA
ATOM     27  N   UNL     1       6.932  -3.307   9.173  0.00  0.00    -0.277 N 
ATOM     28  H   UNL     1       6.245  -3.521   9.823  0.00  0.00    +0.155 HD
BRANCH  27  29
ATOM     29  C   UNL     1       8.280  -3.501   9.489  0.00  0.00    +0.047 A 
ATOM     30  C   UNL     1       9.266  -2.842   8.770  0.00  0.00    +0.024 A 
ATOM     31  C   UNL     1      10.598  -3.031   9.089  0.00  0.00    +0.002 A 
ATOM     32  C   UNL     1      10.953  -3.886  10.117  0.00  0.00    +0.001 A 
ATOM     33  C   UNL     1       9.979  -4.552  10.836  0.00  0.00    +0.016 A 
ATOM     34  C   UNL     1       8.639  -4.364  10.527  0.00  0.00    +0.029 A 
BRANCH  34  35
ATOM     35  S   UNL     1       7.394  -5.212  11.441  0.00  0.00    -0.127 S 
ATOM     36  C   UNL     1       8.327  -6.189  12.651  0.00  0.00    +0.090 C 
ENDBRANCH  34  35
ENDBRANCH  27  29
ENDBRANCH  22  25
ENDBRANCH  20  21
ENDBRANCH   1  20
TORSDOF 7
