REMARK  Name = ZINC34756572
REMARK  11 active torsions:
REMARK  status: ('A' for Active; 'I' for Inactive)
REMARK    1  A    between atoms: C_1  and  C_2
REMARK    2  A    between atoms: C_2  and  N_3
REMARK    3  A    between atoms: N_3  and  C_4
REMARK    4  A    between atoms: C_4  and  C_5
REMARK    5  A    between atoms: C_6  and  C_8
REMARK    6  A    between atoms: C_8  and  S_9
REMARK    7  A    between atoms: S_9  and  C_10
REMARK    8  A    between atoms: N_26  and  C_29
REMARK    9  A    between atoms: C_29  and  C_30
REMARK   10  A    between atoms: C_33  and  C_37
REMARK   11  A    between atoms: C_35  and  C_36
REMARK                            x       y       z     vdW  Elec       q    Type
REMARK                         _______ _______ _______ _____ _____    ______ ____
ROOT
ATOM      1  C   UNL     1       5.241  -1.941   3.494  0.00  0.00    +0.191 A 
ATOM      2  N   UNL     1       6.548  -2.172   3.556  0.00  0.00    -0.206 NA
ATOM      3  C   UNL     1       7.130  -2.623   4.654  0.00  0.00    +0.134 A 
ATOM      4  C   UNL     1       6.338  -2.870   5.811  0.00  0.00    +0.051 A 
ATOM      5  C   UNL     1       6.762  -3.366   7.122  0.00  0.00    -0.025 A 
ATOM      6  C   UNL     1       5.804  -3.516   8.058  0.00  0.00    -0.004 A 
ATOM      7  S   UNL     1       4.300  -3.013   7.266  0.00  0.00    -0.073 S 
ATOM      8  C   UNL     1       4.962  -2.603   5.672  0.00  0.00    +0.115 A 
ATOM      9  N   UNL     1       4.455  -2.149   4.542  0.00  0.00    -0.214 NA
ATOM     10  C   UNL     1       5.978  -4.003   9.465  0.00  0.00    +0.043 C 
ATOM     11  C   UNL     1       7.357  -4.666   9.581  0.00  0.00    +0.005 C 
ATOM     12  C   UNL     1       8.402  -3.740   8.951  0.00  0.00    +0.005 C 
ATOM     13  C   UNL     1       8.217  -3.705   7.434  0.00  0.00    +0.037 C 
ATOM     14  N   UNL     1       8.494  -2.851   4.680  0.00  0.00    -0.318 N 
ATOM     15  C   UNL     1       9.041  -4.192   4.422  0.00  0.00    +0.088 C 
ATOM     16  C   UNL     1      10.139  -4.072   3.360  0.00  0.00    -0.059 C 
ATOM     17  N   UNL     1      11.135  -3.085   3.795  0.00  0.00    +0.384 N 
ATOM     18  C   UNL     1      10.517  -1.755   3.876  0.00  0.00    -0.059 C 
ATOM     19  C   UNL     1       9.439  -1.758   4.959  0.00  0.00    +0.088 C 
ATOM     20  H   UNL     1      11.490  -3.345   4.702  0.00  0.00    -0.081 HD
ENDROOT
BRANCH   1  21
ATOM     21  S   UNL     1       4.540  -1.341   1.993  0.00  0.00    -0.077 S 
BRANCH  21  22
ATOM     22  C   UNL     1       2.775  -1.171   2.370  0.00  0.00    +0.173 C 
BRANCH  22  24
ATOM     23  N   UNL     1       0.717  -0.452   1.201  0.00  0.00    -0.301 N 
ATOM     24  C   UNL     1       2.048  -0.658   1.154  0.00  0.00    +0.226 C 
ATOM     25  O   UNL     1       2.661  -0.430   0.132  0.00  0.00    -0.275 OA
BRANCH  23  27
ATOM     26  C   UNL     1      -0.011   1.576   0.043  0.00  0.00    +0.024 C 
ATOM     27  C   UNL     1       0.010   0.046   0.018  0.00  0.00    +0.104 C 
ENDBRANCH  23  27
BRANCH  23  28
ATOM     28  C   UNL     1      -0.024  -0.727   2.435  0.00  0.00    +0.104 C 
ATOM     29  C   UNL     1      -0.506  -2.179   2.427  0.00  0.00    +0.024 C 
ENDBRANCH  23  28
ENDBRANCH  22  24
ENDBRANCH  21  22
ENDBRANCH   1  21
BRANCH  17  30
ATOM     30  C   UNL     1      12.242  -3.051   2.830  0.00  0.00    -0.043 C 
BRANCH  30  31
ATOM     31  C   UNL     1      13.321  -2.129   3.337  0.00  0.00    -0.061 A 
ATOM     32  C   UNL     1      13.414  -0.839   2.848  0.00  0.00    +0.002 A 
ATOM     33  C   UNL     1      14.404   0.006   3.313  0.00  0.00    +0.003 A 
ATOM     34  C   UNL     1      15.301  -0.438   4.267  0.00  0.00    -0.050 A 
ATOM     35  C   UNL     1      15.207  -1.727   4.756  0.00  0.00    +0.007 A 
ATOM     36  C   UNL     1      14.215  -2.571   4.294  0.00  0.00    -0.049 A 
ATOM     37  C   UNL     1      14.109  -3.975   4.832  0.00  0.00    +0.044 C 
ATOM     38  C   UNL     1      16.381   0.483   4.773  0.00  0.00    +0.044 C 
ENDBRANCH  30  31
ENDBRANCH  17  30
TORSDOF 7
