REMARK  Name = ZINC18016580
REMARK  10 active torsions:
REMARK  status: ('A' for Active; 'I' for Inactive)
REMARK    1  A    between atoms: C_1  and  C_2
REMARK    2  A    between atoms: C_2  and  C_4
REMARK    3  A    between atoms: C_2  and  N_12
REMARK    4  A    between atoms: C_13  and  C_15
REMARK    5  A    between atoms: C_18  and  S_21
REMARK    6  A    between atoms: S_21  and  N_24
REMARK    7  A    between atoms: N_24  and  C_25
REMARK    8  A    between atoms: C_27  and  N_33
REMARK    9  A    between atoms: C_30  and  O_31
REMARK   10  A    between atoms: O_31  and  C_32
REMARK                            x       y       z     vdW  Elec       q    Type
REMARK                         _______ _______ _______ _____ _____    ______ ____
ROOT
ATOM      1  C   UNL     1      -4.632   0.313   5.215  0.00  0.00    +0.037 A 
ATOM      2  C   UNL     1      -5.886   0.314   4.603  0.00  0.00    +0.015 A 
ATOM      3  C   UNL     1      -5.985   0.125   3.240  0.00  0.00    +0.029 A 
ATOM      4  C   UNL     1      -4.845  -0.066   2.480  0.00  0.00    +0.109 A 
ATOM      5  C   UNL     1      -3.599  -0.073   3.082  0.00  0.00    +0.029 A 
ATOM      6  C   UNL     1      -3.486   0.120   4.443  0.00  0.00    +0.015 A 
ENDROOT
BRANCH   1   8
ATOM      7  N   UNL     1      -3.306   0.513   7.264  0.00  0.00    -0.305 N 
ATOM      8  C   UNL     1      -4.519   0.515   6.675  0.00  0.00    +0.245 C 
ATOM      9  O   UNL     1      -5.519   0.683   7.345  0.00  0.00    -0.270 OA
ATOM     10  H   UNL     1      -2.508   0.379   6.729  0.00  0.00    +0.150 HD
BRANCH   7  12
ATOM     11  C   UNL     1      -3.380  -0.626   9.427  0.00  0.00    +0.033 C 
ATOM     12  C   UNL     1      -3.193   0.713   8.710  0.00  0.00    +0.100 C 
BRANCH  12  13
ATOM     13  C   UNL     1      -1.832   1.271   9.036  0.00  0.00    -0.025 A 
ATOM     14  C   UNL     1      -0.714   0.795   8.376  0.00  0.00    +0.008 A 
ATOM     15  C   UNL     1       0.535   1.309   8.669  0.00  0.00    +0.041 A 
ATOM     16  C   UNL     1       0.669   2.293   9.632  0.00  0.00    +0.158 A 
ATOM     17  C   UNL     1      -0.451   2.767  10.298  0.00  0.00    +0.159 A 
ATOM     18  C   UNL     1      -1.701   2.255   9.998  0.00  0.00    +0.046 A 
ATOM     19  F   UNL     1      -0.322   3.728  11.239  0.00  0.00    -0.202 F 
ATOM     20  F   UNL     1       1.891   2.792   9.924  0.00  0.00    -0.202 F 
ENDBRANCH  12  13
ENDBRANCH   7  12
ENDBRANCH   1   8
BRANCH   4  21
ATOM     21  S   UNL     1      -4.980  -0.307   0.740  0.00  0.00    +0.072 S 
ATOM     22  O   UNL     1      -6.289  -0.807   0.500  0.00  0.00    -0.150 OA
ATOM     23  O   UNL     1      -3.812  -1.006   0.335  0.00  0.00    -0.150 OA
BRANCH  21  24
ATOM     24  N   UNL     1      -4.907   1.188   0.031  0.00  0.00    -0.213 N 
ATOM     25  H   UNL     1      -5.652   1.509  -0.501  0.00  0.00    +0.174 HD
BRANCH  24  26
ATOM     26  C   UNL     1      -3.771   1.987   0.200  0.00  0.00    +0.092 A 
ATOM     27  C   UNL     1      -2.513   1.404   0.265  0.00  0.00    +0.061 A 
ATOM     28  C   UNL     1      -1.393   2.196   0.431  0.00  0.00    +0.128 A 
ATOM     29  C   UNL     1      -1.521   3.568   0.539  0.00  0.00    +0.036 A 
ATOM     30  C   UNL     1      -2.771   4.157   0.469  0.00  0.00    +0.050 A 
ATOM     31  C   UNL     1      -3.899   3.371   0.303  0.00  0.00    +0.142 A 
BRANCH  28  32
ATOM     32  N   UNL     1      -0.052   1.573   0.500  0.00  0.00    +0.056 N 
ATOM     33  O   UNL     1       0.062   0.363   0.411  0.00  0.00    -0.126 OA
ATOM     34  O   UNL     1       0.937   2.269   0.642  0.00  0.00    -0.126 OA
ENDBRANCH  28  32
BRANCH  31  35
ATOM     35  O   UNL     1      -5.129   3.948   0.240  0.00  0.00    -0.493 OA
ATOM     36  C   UNL     1      -5.184   5.371   0.352  0.00  0.00    +0.277 C 
ENDBRANCH  31  35
ENDBRANCH  24  26
ENDBRANCH  21  24
ENDBRANCH   4  21
TORSDOF 8
