REMARK  Name = ZINC34835763
REMARK  17 active torsions:
REMARK  status: ('A' for Active; 'I' for Inactive)
REMARK    1  A    between atoms: C_1  and  C_2
REMARK    2  A    between atoms: C_2  and  C_3
REMARK    3  A    between atoms: C_4  and  C_24
REMARK    4  A    between atoms: C_5  and  N_15
REMARK    5  A    between atoms: N_6  and  C_8
REMARK    6  A    between atoms: N_18  and  C_21
REMARK    7  A    between atoms: C_21  and  C_22
REMARK    8  A    between atoms: C_21  and  C_23
REMARK    9  A    between atoms: C_24  and  N_25
REMARK   10  A    between atoms: N_25  and  C_26
REMARK   11  A    between atoms: C_26  and  C_27
REMARK   12  A    between atoms: C_27  and  C_28
REMARK   13  A    between atoms: C_27  and  C_29
REMARK   14  A    between atoms: N_32  and  C_33
REMARK   15  A    between atoms: C_33  and  C_34
REMARK   16  A    between atoms: C_33  and  C_35
REMARK   17  A    between atoms: C_33  and  C_36
REMARK                            x       y       z     vdW  Elec       q    Type
REMARK                         _______ _______ _______ _____ _____    ______ ____
ROOT
ATOM      1  C   UNL     1       0.611  -0.378  -2.043  0.00  0.00    +0.070 A 
ATOM      2  C   UNL     1      -0.231  -0.520  -3.149  0.00  0.00    +0.033 A 
ATOM      3  C   UNL     1       0.485  -1.110  -4.146  0.00  0.00    +0.130 A 
ATOM      4  N   UNL     1       1.741  -1.329  -3.671  0.00  0.00    -0.218 N 
ATOM      5  N   UNL     1       1.789  -0.854  -2.354  0.00  0.00    -0.169 NA
ENDROOT
BRANCH   4   6
ATOM      6  C   UNL     1       2.800  -1.919  -4.376  0.00  0.00    +0.068 A 
ATOM      7  C   UNL     1       2.571  -3.039  -5.165  0.00  0.00    +0.030 A 
ATOM      8  C   UNL     1       3.615  -3.619  -5.859  0.00  0.00    +0.040 A 
ATOM      9  C   UNL     1       4.889  -3.084  -5.768  0.00  0.00    +0.124 A 
ATOM     10  C   UNL     1       5.119  -1.967  -4.982  0.00  0.00    +0.040 A 
ATOM     11  C   UNL     1       4.077  -1.381  -4.291  0.00  0.00    +0.030 A 
ATOM     12  F   UNL     1       5.909  -3.653  -6.447  0.00  0.00    -0.205 F 
ENDBRANCH   4   6
BRANCH   3  13
ATOM     13  N   UNL     1       0.017  -1.431  -5.417  0.00  0.00    -0.318 N 
ATOM     14  C   UNL     1      -0.062  -0.410  -6.474  0.00  0.00    +0.088 C 
ATOM     15  C   UNL     1       0.623  -0.958  -7.730  0.00  0.00    -0.059 C 
ATOM     16  N   UNL     1       0.024  -2.250  -8.089  0.00  0.00    +0.383 N 
ATOM     17  C   UNL     1       0.290  -3.235  -7.033  0.00  0.00    -0.059 C 
ATOM     18  C   UNL     1      -0.406  -2.802  -5.744  0.00  0.00    +0.088 C 
ATOM     19  H   UNL     1      -0.972  -2.138  -8.200  0.00  0.00    -0.081 HD
BRANCH  16  20
ATOM     20  C   UNL     1       0.604  -2.721  -9.354  0.00  0.00    -0.075 C 
ATOM     21  C   UNL     1      -0.018  -4.068  -9.729  0.00  0.00    -0.014 C 
ATOM     22  C   UNL     1       0.318  -1.701 -10.458  0.00  0.00    -0.014 C 
ENDBRANCH  16  20
ENDBRANCH   3  13
BRANCH   1  24
ATOM     23  C   UNL     1       0.354   1.751  -0.797  0.00  0.00    +0.010 C 
ATOM     24  C   UNL     1       0.228   0.228  -0.717  0.00  0.00    +0.054 C 
ENDBRANCH   1  24
BRANCH   2  25
ATOM     25  C   UNL     1      -1.676  -0.097  -3.225  0.00  0.00    +0.149 C 
BRANCH  25  26
ATOM     26  N   UNL     1      -2.523  -1.147  -2.654  0.00  0.00    -0.281 N 
ATOM     27  C   UNL     1      -2.909  -2.191  -3.415  0.00  0.00    +0.303 C 
ATOM     28  O   UNL     1      -2.503  -2.293  -4.556  0.00  0.00    -0.253 OA
ATOM     29  N   UNL     1      -3.743  -3.121  -2.910  0.00  0.00    -0.294 N 
ATOM     30  H   UNL     1      -4.121  -3.004  -2.025  0.00  0.00    +0.151 HD
BRANCH  29  31
ATOM     31  C   UNL     1      -4.080  -4.308  -3.700  0.00  0.00    +0.028 C 
ATOM     32  C   UNL     1      -2.798  -5.054  -4.071  0.00  0.00    +0.031 C 
ATOM     33  C   UNL     1      -4.986  -5.227  -2.877  0.00  0.00    +0.031 C 
ATOM     34  C   UNL     1      -4.810  -3.882  -4.976  0.00  0.00    +0.031 C 
ENDBRANCH  29  31
BRANCH  26  35
ATOM     35  C   UNL     1      -2.951  -1.063  -1.255  0.00  0.00    +0.112 C 
BRANCH  35  36
ATOM     36  C   UNL     1      -4.242  -0.248  -1.165  0.00  0.00    +0.000 C 
ATOM     37  C   UNL     1      -5.360  -0.979  -1.911  0.00  0.00    +0.009 C 
ATOM     38  C   UNL     1      -4.636  -0.077   0.303  0.00  0.00    +0.009 C 
ENDBRANCH  35  36
ENDBRANCH  26  35
ENDBRANCH  25  26
ENDBRANCH   2  25
TORSDOF 9
