REMARK  Name = ZINC34774787
REMARK  10 active torsions:
REMARK  status: ('A' for Active; 'I' for Inactive)
REMARK    1  A    between atoms: C_1  and  C_2
REMARK    2  A    between atoms: C_2  and  N_3
REMARK    3  A    between atoms: N_3  and  C_4
REMARK    4  A    between atoms: C_4  and  C_5
REMARK    5  A    between atoms: C_6  and  C_8
REMARK    6  A    between atoms: C_8  and  S_9
REMARK    7  A    between atoms: S_9  and  C_10
REMARK    8  A    between atoms: C_14  and  C_19
REMARK    9  A    between atoms: N_28  and  C_31
REMARK   10  A    between atoms: C_31  and  C_32
REMARK                            x       y       z     vdW  Elec       q    Type
REMARK                         _______ _______ _______ _____ _____    ______ ____
ROOT
ATOM      1  C   UNL     1      -1.076  -0.930   5.389  0.00  0.00    +0.191 A 
ATOM      2  N   UNL     1      -1.551  -1.191   6.601  0.00  0.00    -0.206 NA
ATOM      3  C   UNL     1      -0.804  -1.079   7.686  0.00  0.00    +0.134 A 
ATOM      4  C   UNL     1       0.551  -0.667   7.561  0.00  0.00    +0.055 A 
ATOM      5  C   UNL     1       1.563  -0.472   8.595  0.00  0.00    +0.002 A 
ATOM      6  C   UNL     1       2.801  -0.070   8.226  0.00  0.00    +0.056 A 
ATOM      7  S   UNL     1       2.682   0.072   6.454  0.00  0.00    -0.076 S 
ATOM      8  C   UNL     1       0.988  -0.407   6.246  0.00  0.00    +0.115 A 
ATOM      9  N   UNL     1       0.181  -0.546   5.211  0.00  0.00    -0.214 NA
ATOM     10  N   UNL     1      -1.335  -1.360   8.932  0.00  0.00    -0.318 N 
ATOM     11  C   UNL     1      -2.274  -0.432   9.581  0.00  0.00    +0.088 C 
ATOM     12  C   UNL     1      -3.504  -1.224  10.036  0.00  0.00    -0.059 C 
ATOM     13  N   UNL     1      -3.077  -2.345  10.883  0.00  0.00    +0.384 N 
ATOM     14  C   UNL     1      -2.270  -3.286  10.097  0.00  0.00    -0.059 C 
ATOM     15  C   UNL     1      -0.983  -2.599   9.643  0.00  0.00    +0.088 C 
ATOM     16  H   UNL     1      -2.528  -1.993  11.653  0.00  0.00    -0.081 HD
ENDROOT
BRANCH   5  17
ATOM     17  C   UNL     1       1.240  -0.710  10.021  0.00  0.00    -0.017 A 
ATOM     18  C   UNL     1       0.229   0.024  10.642  0.00  0.00    +0.008 A 
ATOM     19  C   UNL     1      -0.068  -0.202  11.970  0.00  0.00    +0.001 A 
ATOM     20  C   UNL     1       0.635  -1.155  12.687  0.00  0.00    +0.000 A 
ATOM     21  C   UNL     1       1.638  -1.886  12.076  0.00  0.00    +0.001 A 
ATOM     22  C   UNL     1       1.941  -1.672  10.747  0.00  0.00    +0.008 A 
ENDBRANCH   5  17
BRANCH   1  23
ATOM     23  S   UNL     1      -2.133  -1.103   3.990  0.00  0.00    -0.077 S 
BRANCH  23  24
ATOM     24  C   UNL     1      -1.077  -0.659   2.584  0.00  0.00    +0.173 C 
BRANCH  24  26
ATOM     25  N   UNL     1      -1.285  -0.481   0.125  0.00  0.00    -0.301 N 
ATOM     26  C   UNL     1      -1.869  -0.766   1.306  0.00  0.00    +0.226 C 
ATOM     27  O   UNL     1      -3.032  -1.108   1.341  0.00  0.00    -0.275 OA
BRANCH  25  29
ATOM     28  C   UNL     1       0.207   1.455   0.202  0.00  0.00    +0.024 C 
ATOM     29  C   UNL     1       0.119  -0.068   0.083  0.00  0.00    +0.104 C 
ENDBRANCH  25  29
BRANCH  25  30
ATOM     30  C   UNL     1      -2.056  -0.586  -1.116  0.00  0.00    +0.104 C 
ATOM     31  C   UNL     1      -1.922  -2.001  -1.682  0.00  0.00    +0.024 C 
ENDBRANCH  25  30
ENDBRANCH  24  26
ENDBRANCH  23  24
ENDBRANCH   1  23
BRANCH  13  32
ATOM     32  C   UNL     1      -4.261  -3.037  11.408  0.00  0.00    -0.043 C 
BRANCH  32  33
ATOM     33  C   UNL     1      -3.829  -4.110  12.374  0.00  0.00    -0.064 A 
ATOM     34  C   UNL     1      -3.564  -5.387  11.916  0.00  0.00    +0.002 A 
ATOM     35  C   UNL     1      -3.167  -6.371  12.802  0.00  0.00    +0.000 A 
ATOM     36  C   UNL     1      -3.034  -6.078  14.146  0.00  0.00    +0.000 A 
ATOM     37  C   UNL     1      -3.298  -4.801  14.604  0.00  0.00    +0.000 A 
ATOM     38  C   UNL     1      -3.691  -3.816  13.718  0.00  0.00    +0.002 A 
ENDBRANCH  32  33
ENDBRANCH  13  32
TORSDOF 8
