REMARK  Name = ZINC08982786
REMARK  15 active torsions:
REMARK  status: ('A' for Active; 'I' for Inactive)
REMARK    1  A    between atoms: C_1  and  C_2
REMARK    2  A    between atoms: C_5  and  C_8
REMARK    3  A    between atoms: C_8  and  C_10
REMARK    4  A    between atoms: N_14  and  C_34
REMARK    5  A    between atoms: C_15  and  C_17
REMARK    6  A    between atoms: C_20  and  O_23
REMARK    7  A    between atoms: O_23  and  C_24
REMARK    8  A    between atoms: C_24  and  C_25
REMARK    9  A    between atoms: C_25  and  O_26
REMARK   10  A    between atoms: O_26  and  C_27
REMARK   11  A    between atoms: C_32  and  C_33
REMARK   12  A    between atoms: C_34  and  C_35
REMARK   13  A    between atoms: C_35  and  N_36
REMARK   14  A    between atoms: N_36  and  C_37
REMARK   15  A    between atoms: N_36  and  C_38
REMARK                            x       y       z     vdW  Elec       q    Type
REMARK                         _______ _______ _______ _____ _____    ______ ____
ROOT
ATOM      1  C   UNL     1       0.565  -0.304   6.500  0.00  0.00    +0.076 C 
ATOM      2  C   UNL     1       1.140   0.907   6.313  0.00  0.00    +0.249 C 
ATOM      3  C   UNL     1       0.591   1.520   5.085  0.00  0.00    +0.288 C 
ATOM      4  O   UNL     1       0.909   2.607   4.646  0.00  0.00    -0.266 OA
ATOM      5  N   UNL     1      -0.311   0.694   4.523  0.00  0.00    -0.285 N 
ATOM      6  C   UNL     1      -0.406  -0.507   5.361  0.00  0.00    +0.145 C 
ATOM      7  O   UNL     1       2.069   1.467   7.121  0.00  0.00    -0.282 OA
ENDROOT
BRANCH   6   8
ATOM      8  C   UNL     1      -0.019  -1.726   4.564  0.00  0.00    -0.022 A 
ATOM      9  C   UNL     1       1.143  -1.721   3.815  0.00  0.00    +0.009 A 
ATOM     10  C   UNL     1       1.503  -2.839   3.088  0.00  0.00    +0.046 A 
ATOM     11  C   UNL     1       0.691  -3.964   3.102  0.00  0.00    +0.121 A 
ATOM     12  C   UNL     1      -0.477  -3.965   3.850  0.00  0.00    +0.046 A 
ATOM     13  C   UNL     1      -0.830  -2.846   4.579  0.00  0.00    +0.009 A 
BRANCH  11  14
ATOM     14  O   UNL     1       1.041  -5.064   2.384  0.00  0.00    -0.489 OA
BRANCH  14  15
ATOM     15  C   UNL     1       2.257  -4.992   1.637  0.00  0.00    +0.270 C 
BRANCH  15  16
ATOM     16  C   UNL     1       2.482  -6.313   0.899  0.00  0.00    +0.270 C 
BRANCH  16  17
ATOM     17  O   UNL     1       1.451  -6.497  -0.074  0.00  0.00    -0.488 OA
BRANCH  17  18
ATOM     18  C   UNL     1       1.504  -7.630  -0.822  0.00  0.00    +0.124 A 
ATOM     19  C   UNL     1       2.526  -8.547  -0.623  0.00  0.00    +0.046 A 
ATOM     20  C   UNL     1       2.577  -9.698  -1.385  0.00  0.00    +0.004 A 
ATOM     21  C   UNL     1       1.610  -9.937  -2.344  0.00  0.00    +0.000 A 
ATOM     22  C   UNL     1       0.590  -9.026  -2.543  0.00  0.00    +0.007 A 
ATOM     23  C   UNL     1       0.532  -7.875  -1.781  0.00  0.00    -0.009 A 
ATOM     24  C   UNL     1      -0.583  -6.884  -1.995  0.00  0.00    +0.047 C 
ENDBRANCH  17  18
ENDBRANCH  16  17
ENDBRANCH  15  16
ENDBRANCH  14  15
ENDBRANCH  11  14
ENDBRANCH   6   8
BRANCH   1  25
ATOM     25  C   UNL     1       0.829  -1.237   7.600  0.00  0.00    +0.195 C 
ATOM     26  O   UNL     1       1.923  -1.759   7.705  0.00  0.00    -0.287 OA
BRANCH  25  31
ATOM     27  C   UNL     1      -3.307  -2.426  11.421  0.00  0.00    +0.044 C 
ATOM     28  C   UNL     1      -2.224  -2.115  10.420  0.00  0.00    -0.050 A 
ATOM     29  C   UNL     1      -0.966  -2.670  10.573  0.00  0.00    +0.004 A 
ATOM     30  C   UNL     1       0.030  -2.389   9.661  0.00  0.00    +0.012 A 
ATOM     31  C   UNL     1      -0.234  -1.543   8.582  0.00  0.00    +0.022 A 
ATOM     32  C   UNL     1      -1.504  -0.982   8.437  0.00  0.00    +0.012 A 
ATOM     33  C   UNL     1      -2.493  -1.275   9.354  0.00  0.00    +0.004 A 
ENDBRANCH  25  31
ENDBRANCH   1  25
BRANCH   5  34
ATOM     34  C   UNL     1      -1.069   0.952   3.296  0.00  0.00    +0.090 C 
BRANCH  34  35
ATOM     35  C   UNL     1      -0.285   0.424   2.093  0.00  0.00    -0.060 C 
BRANCH  35  36
ATOM     36  N   UNL     1      -1.045   0.683   0.862  0.00  0.00    +0.377 N 
ATOM     37  C   UNL     1      -0.445  -0.014  -0.283  0.00  0.00    -0.097 C 
ATOM     38  C   UNL     1      -1.154   2.125   0.604  0.00  0.00    -0.097 C 
ATOM     39  H   UNL     1      -2.062   0.287   1.004  0.00  0.00    -0.083 HD
ENDBRANCH  35  36
ENDBRANCH  34  35
ENDBRANCH   5  34
TORSDOF 11
