REMARK  Name = ZINC40303010
REMARK  4 active torsions:
REMARK  status: ('A' for Active; 'I' for Inactive)
REMARK    1  A    between atoms: C_1  and  C_2
REMARK    2  A    between atoms: C_7  and  N_10
REMARK    3  A    between atoms: C_11  and  C_13
REMARK    4  A    between atoms: C_21  and  N_23
REMARK                            x       y       z     vdW  Elec       q    Type
REMARK                         _______ _______ _______ _____ _____    ______ ____
ROOT
ATOM      1  C   UNL     1      -2.251  -4.285   1.743  0.00  0.00    +0.062 A 
ATOM      2  C   UNL     1      -3.363  -3.638   1.290  0.00  0.00    +0.096 A 
ATOM      3  N   UNL     1      -4.454  -4.424   1.465  0.00  0.00    -0.360 N 
ATOM      4  H   UNL     1      -5.359  -4.178   1.218  0.00  0.00    +0.165 HD
ATOM      5  C   UNL     1      -4.094  -5.624   2.044  0.00  0.00    +0.049 A 
ATOM      6  C   UNL     1      -2.704  -5.598   2.240  0.00  0.00    +0.012 A 
ATOM      7  C   UNL     1      -2.056  -6.691   2.810  0.00  0.00    +0.012 A 
ATOM      8  C   UNL     1      -2.776  -7.794   3.176  0.00  0.00    +0.023 A 
ATOM      9  C   UNL     1      -4.155  -7.832   2.982  0.00  0.00    +0.027 A 
ATOM     10  C   UNL     1      -4.815  -6.751   2.424  0.00  0.00    +0.049 A 
ENDROOT
BRANCH   1  12
ATOM     11  N   UNL     1      -0.612  -2.548   1.244  0.00  0.00    -0.308 N 
ATOM     12  C   UNL     1      -0.873  -3.776   1.733  0.00  0.00    +0.246 C 
ATOM     13  O   UNL     1       0.033  -4.464   2.166  0.00  0.00    -0.270 OA
ATOM     14  H   UNL     1      -1.333  -2.000   0.898  0.00  0.00    +0.149 HD
BRANCH  11  20
ATOM     15  C   UNL     1      -0.019   1.526   0.010  0.00  0.00    +0.007 C 
ATOM     16  C   UNL     1       0.002  -0.004   0.002  0.00  0.00    -0.012 C 
ATOM     17  C   UNL     1       0.718  -0.497  -1.257  0.00  0.00    +0.003 C 
ATOM     18  C   UNL     1       0.739  -2.027  -1.265  0.00  0.00    +0.002 C 
ATOM     19  C   UNL     1       1.479  -2.534  -0.026  0.00  0.00    +0.022 C 
ATOM     20  C   UNL     1       0.763  -2.041   1.233  0.00  0.00    +0.073 C 
ATOM     21  C   UNL     1       0.742  -0.511   1.242  0.00  0.00    +0.025 C 
ENDBRANCH  11  20
ENDBRANCH   1  12
BRANCH   9  22
ATOM     22  N   UNL     1      -4.878  -8.967   3.361  0.00  0.00    -0.358 N 
ATOM     23  H   UNL     1      -4.419  -9.724   3.757  0.00  0.00    +0.142 HD
ATOM     24  H   UNL     1      -5.838  -8.997   3.228  0.00  0.00    +0.142 HD
ENDBRANCH   9  22
TORSDOF 3
