REMARK  Name = ZINC23858970
REMARK  11 active torsions:
REMARK  status: ('A' for Active; 'I' for Inactive)
REMARK    1  A    between atoms: C_1  and  N_2
REMARK    2  A    between atoms: N_5  and  C_8
REMARK    3  A    between atoms: C_8  and  C_10
REMARK    4  A    between atoms: C_8  and  C_24
REMARK    5  A    between atoms: C_10  and  N_11
REMARK    6  A    between atoms: C_12  and  C_14
REMARK    7  A    between atoms: C_18  and  O_22
REMARK    8  A    between atoms: C_19  and  O_20
REMARK    9  A    between atoms: O_20  and  C_21
REMARK   10  A    between atoms: O_22  and  C_23
REMARK   11  A    between atoms: N_33  and  C_34
REMARK                            x       y       z     vdW  Elec       q    Type
REMARK                         _______ _______ _______ _____ _____    ______ ____
ROOT
ATOM      1  C   UNL     1      -0.706   2.114   0.436  0.00  0.00    +0.104 C 
ENDROOT
BRANCH   1   2
ATOM      2  C   UNL     1      -0.846   0.614   0.499  0.00  0.00    -0.028 A 
ATOM      3  C   UNL     1      -0.114  -0.187  -0.359  0.00  0.00    +0.007 A 
ATOM      4  C   UNL     1      -0.242  -1.557  -0.297  0.00  0.00    +0.024 A 
ATOM      5  C   UNL     1      -1.117  -2.145   0.618  0.00  0.00    +0.033 A 
ATOM      6  C   UNL     1      -1.849  -1.339   1.472  0.00  0.00    -0.026 A 
ATOM      7  C   UNL     1      -1.710   0.038   1.408  0.00  0.00    +0.010 A 
ATOM      8  C   UNL     1      -2.802  -1.912   2.491  0.00  0.00    +0.038 C 
ATOM      9  C   UNL     1      -3.098  -3.375   2.154  0.00  0.00    +0.024 C 
ATOM     10  C   UNL     1      -1.763  -4.073   1.866  0.00  0.00    +0.105 C 
ATOM     11  N   UNL     1      -1.213  -3.536   0.620  0.00  0.00    -0.333 N 
ATOM     12  C   UNL     1       0.084  -4.153   0.308  0.00  0.00    +0.129 C 
ENDBRANCH   1   2
BRANCH   1  17
ATOM     13  C   UNL     1       4.344   4.488  -0.440  0.00  0.00    -0.096 C 
ATOM     14  N   UNL     1       2.922   4.133  -0.345  0.00  0.00    +0.379 N 
ATOM     15  C   UNL     1       2.630   2.917  -1.118  0.00  0.00    -0.064 C 
ATOM     16  C   UNL     1       1.128   2.627  -1.060  0.00  0.00    +0.066 C 
ATOM     17  N   UNL     1       0.717   2.468   0.342  0.00  0.00    -0.297 NA
ATOM     18  C   UNL     1       1.009   3.684   1.115  0.00  0.00    +0.066 C 
ATOM     19  C   UNL     1       2.510   3.974   1.056  0.00  0.00    -0.064 C 
ATOM     20  H   UNL     1       2.339   4.959  -0.779  0.00  0.00    -0.082 HD
ENDBRANCH   1  17
BRANCH   1  21
ATOM     21  C   UNL     1      -1.446   2.644  -0.793  0.00  0.00    +0.128 C 
BRANCH  21  22
ATOM     22  N   UNL     1      -1.384   4.108  -0.806  0.00  0.00    -0.309 N 
ATOM     23  C   UNL     1      -2.033   4.801  -1.762  0.00  0.00    +0.248 C 
ATOM     24  O   UNL     1      -2.670   4.212  -2.614  0.00  0.00    -0.270 OA
ATOM     25  H   UNL     1      -0.808   4.641  -0.035  0.00  0.00    +0.149 HD
BRANCH  23  26
ATOM     26  C   UNL     1      -1.971   6.276  -1.775  0.00  0.00    +0.082 A 
ATOM     27  C   UNL     1      -1.240   6.957  -0.797  0.00  0.00    +0.017 A 
ATOM     28  C   UNL     1      -1.185   8.333  -0.812  0.00  0.00    +0.005 A 
ATOM     29  C   UNL     1      -1.850   9.049  -1.794  0.00  0.00    +0.049 A 
ATOM     30  C   UNL     1      -2.578   8.389  -2.769  0.00  0.00    +0.162 A 
ATOM     31  C   UNL     1      -2.639   6.999  -2.770  0.00  0.00    +0.174 A 
BRANCH  31  32
ATOM     32  O   UNL     1      -3.346   6.348  -3.728  0.00  0.00    -0.491 OA
ATOM     33  C   UNL     1      -4.724   6.087  -3.453  0.00  0.00    +0.277 C 
ENDBRANCH  31  32
BRANCH  30  34
ATOM     34  O   UNL     1      -3.229   9.100  -3.729  0.00  0.00    -0.491 OA
ATOM     35  C   UNL     1      -3.119  10.523  -3.670  0.00  0.00    +0.277 C 
ENDBRANCH  30  34
ENDBRANCH  23  26
ENDBRANCH  21  22
ENDBRANCH   1  21
TORSDOF 7
