REMARK  Name = ZINC36156221
REMARK  13 active torsions:
REMARK  status: ('A' for Active; 'I' for Inactive)
REMARK    1  A    between atoms: C_4  and  C_7
REMARK    2  A    between atoms: C_7  and  O_8
REMARK    3  A    between atoms: O_8  and  C_9
REMARK    4  A    between atoms: C_9  and  C_10
REMARK    5  A    between atoms: C_10  and  C_12
REMARK    6  A    between atoms: C_10  and  O_37
REMARK    7  A    between atoms: C_12  and  N_13
REMARK    8  A    between atoms: N_13  and  C_14
REMARK    9  A    between atoms: N_13  and  C_20
REMARK   10  A    between atoms: C_14  and  C_15
REMARK   11  A    between atoms: C_20  and  C_21
REMARK   12  A    between atoms: C_22  and  C_31
REMARK   13  A    between atoms: C_25  and  N_26
REMARK                            x       y       z     vdW  Elec       q    Type
REMARK                         _______ _______ _______ _____ _____    ______ ____
ROOT
ATOM      1  N   UNL     1       7.271  -2.393   4.002  0.00  0.00    +0.389 N 
ATOM      2  H   UNL     1       7.432  -1.586   4.585  0.00  0.00    -0.081 HD
ENDROOT
BRANCH   1   3
ATOM      3  C   UNL     1       7.392  -2.008   2.589  0.00  0.00    -0.044 C 
BRANCH   3   4
ATOM      4  C   UNL     1       6.443  -0.844   2.295  0.00  0.00    +0.124 C 
BRANCH   4   5
ATOM      5  O   UNL     1       6.856   0.305   3.037  0.00  0.00    -0.391 OA
ATOM      6  H   UNL     1       7.750   0.607   2.829  0.00  0.00    +0.210 HD
ENDBRANCH   4   5
BRANCH   4   7
ATOM      7  C   UNL     1       6.477  -0.525   0.799  0.00  0.00    +0.189 C 
BRANCH   7   8
ATOM      8  O   UNL     1       5.506   0.482   0.505  0.00  0.00    -0.373 OA
BRANCH   8   9
ATOM      9  C   UNL     1       5.455   0.856  -0.873  0.00  0.00    +0.195 C 
BRANCH   9  13
ATOM     10  C   UNL     1       2.476   3.867  -1.425  0.00  0.00    +0.000 A 
ATOM     11  C   UNL     1       3.778   4.228  -1.135  0.00  0.00    +0.000 A 
ATOM     12  C   UNL     1       4.742   3.254  -0.957  0.00  0.00    +0.006 A 
ATOM     13  C   UNL     1       4.404   1.918  -1.067  0.00  0.00    -0.022 A 
ATOM     14  C   UNL     1       3.101   1.557  -1.356  0.00  0.00    +0.006 A 
ATOM     15  C   UNL     1       2.138   2.531  -1.536  0.00  0.00    +0.000 A 
ENDBRANCH   9  13
ENDBRANCH   8   9
ENDBRANCH   7   8
ENDBRANCH   4   7
ENDBRANCH   3   4
ENDBRANCH   1   3
BRANCH   1  16
ATOM     16  C   UNL     1       5.922  -2.918   4.252  0.00  0.00    -0.003 C 
BRANCH  16  17
ATOM     17  C   UNL     1       5.755  -3.190   5.725  0.00  0.00    +0.089 A 
ATOM     18  C   UNL     1       5.214  -2.347   6.624  0.00  0.00    +0.042 A 
ATOM     19  C   UNL     1       5.256  -3.002   7.876  0.00  0.00    +0.041 A 
ATOM     20  C   UNL     1       5.819  -4.205   7.668  0.00  0.00    +0.195 A 
ATOM     21  O   UNL     1       6.114  -4.316   6.362  0.00  0.00    -0.470 OA
ENDBRANCH  16  17
ENDBRANCH   1  16
BRANCH   1  22
ATOM     22  C   UNL     1       8.265  -3.429   4.314  0.00  0.00    -0.035 C 
BRANCH  22  23
ATOM     23  C   UNL     1       9.651  -2.867   4.125  0.00  0.00    +0.025 A 
ATOM     24  C   UNL     1      10.447  -2.994   2.968  0.00  0.00    +0.117 A 
ATOM     25  N   UNL     1      11.583  -2.373   3.188  0.00  0.00    -0.076 NA
ATOM     26  O   UNL     1      11.540  -1.832   4.496  0.00  0.00    -0.339 OA
ATOM     27  C   UNL     1      10.350  -2.145   5.037  0.00  0.00    +0.222 A 
BRANCH  24  28
ATOM     28  C   UNL     1      10.069  -3.705   1.721  0.00  0.00    +0.004 A 
ATOM     29  C   UNL     1       9.434  -4.944   1.788  0.00  0.00    +0.010 A 
ATOM     30  C   UNL     1       9.084  -5.601   0.626  0.00  0.00    +0.001 A 
ATOM     31  C   UNL     1       9.361  -5.031  -0.604  0.00  0.00    +0.000 A 
ATOM     32  C   UNL     1       9.991  -3.802  -0.676  0.00  0.00    +0.001 A 
ATOM     33  C   UNL     1      10.341  -3.134   0.480  0.00  0.00    +0.010 A 
ENDBRANCH  24  28
BRANCH  27  34
ATOM     34  N   UNL     1       9.916  -1.795   6.303  0.00  0.00    -0.299 N 
ATOM     35  C   UNL     1       8.669  -2.248   6.936  0.00  0.00    +0.108 C 
ATOM     36  C   UNL     1       8.595  -1.584   8.327  0.00  0.00    +0.020 C 
ATOM     37  C   UNL     1       9.524  -0.351   8.175  0.00  0.00    +0.020 C 
ATOM     38  C   UNL     1      10.630  -0.912   7.243  0.00  0.00    +0.108 C 
ENDBRANCH  27  34
ENDBRANCH  22  23
ENDBRANCH   1  22
TORSDOF 13
