REMARK  Name = ZINC03485878
REMARK  6 active torsions:
REMARK  status: ('A' for Active; 'I' for Inactive)
REMARK    1  A    between atoms: C_1  and  C_2
REMARK    2  A    between atoms: C_2  and  C_4
REMARK    3  A    between atoms: C_2  and  S_17
REMARK    4  A    between atoms: N_6  and  C_7
REMARK    5  A    between atoms: C_9  and  N_14
REMARK    6  A    between atoms: S_17  and  C_18
REMARK                            x       y       z     vdW  Elec       q    Type
REMARK                         _______ _______ _______ _____ _____    ______ ____
ROOT
ATOM      1  C   UNL     1      -6.638  -0.943  -1.653  0.00  0.00    +0.029 C 
ATOM      2  C   UNL     1      -6.191  -0.911  -0.190  0.00  0.00    +0.136 C 
ENDROOT
BRANCH   2   3
ATOM      3  C   UNL     1      -4.894  -0.151  -0.078  0.00  0.00    +0.230 C 
ATOM      4  O   UNL     1      -3.838  -0.748  -0.087  0.00  0.00    -0.274 OA
ATOM      5  N   UNL     1      -4.908   1.192   0.031  0.00  0.00    -0.283 N 
ATOM      6  H   UNL     1      -5.864   1.726   0.130  0.00  0.00    +0.155 HD
BRANCH   5   7
ATOM      7  C   UNL     1      -3.704   1.908   0.019  0.00  0.00    +0.054 A 
ATOM      8  C   UNL     1      -2.582   1.371  -0.597  0.00  0.00    +0.057 A 
ATOM      9  C   UNL     1      -1.396   2.079  -0.608  0.00  0.00    +0.128 A 
ATOM     10  C   UNL     1      -1.324   3.320  -0.002  0.00  0.00    +0.034 A 
ATOM     11  C   UNL     1      -2.441   3.861   0.608  0.00  0.00    +0.024 A 
ATOM     12  C   UNL     1      -3.631   3.157   0.623  0.00  0.00    +0.062 A 
ATOM     13 CL   UNL     1      -5.031   3.833   1.394  0.00  0.00    -0.082 Cl
BRANCH   9  14
ATOM     14  N   UNL     1      -0.200   1.507  -1.265  0.00  0.00    +0.056 N 
ATOM     15  O   UNL     1      -0.261   0.412  -1.795  0.00  0.00    -0.126 OA
ATOM     16  O   UNL     1       0.845   2.133  -1.280  0.00  0.00    -0.126 OA
ENDBRANCH   9  14
ENDBRANCH   5   7
ENDBRANCH   2   3
BRANCH   2  17
ATOM     17  S   UNL     1      -5.951  -2.604   0.404  0.00  0.00    -0.093 S 
BRANCH  17  18
ATOM     18  C   UNL     1      -7.607  -3.199   0.308  0.00  0.00    +0.109 A 
ATOM     19  C   UNL     1      -7.917  -4.536   0.683  0.00  0.00    +0.043 A 
ATOM     20  C   UNL     1      -7.008  -5.578   1.188  0.00  0.00    -0.025 A 
ATOM     21  C   UNL     1      -7.555  -6.768   1.484  0.00  0.00    -0.004 A 
ATOM     22  S   UNL     1      -9.287  -6.585   1.123  0.00  0.00    -0.073 S 
ATOM     23  C   UNL     1      -9.270  -4.900   0.572  0.00  0.00    +0.113 A 
ATOM     24  N   UNL     1     -10.180  -4.050   0.134  0.00  0.00    -0.228 NA
ATOM     25  C   UNL     1      -9.833  -2.824  -0.206  0.00  0.00    +0.223 A 
ATOM     26  N   UNL     1      -8.581  -2.411  -0.121  0.00  0.00    -0.229 NA
ATOM     27  C   UNL     1      -6.534  -7.753   1.987  0.00  0.00    +0.043 C 
ATOM     28  C   UNL     1      -5.319  -6.885   2.381  0.00  0.00    +0.010 C 
ATOM     29  C   UNL     1      -5.505  -5.655   1.471  0.00  0.00    +0.037 C 
ENDBRANCH  17  18
ENDBRANCH   2  17
TORSDOF 5
