REMARK  Name = ZINC39923264
REMARK  13 active torsions:
REMARK  status: ('A' for Active; 'I' for Inactive)
REMARK    1  A    between atoms: C_1  and  C_2
REMARK    2  A    between atoms: C_5  and  C_8
REMARK    3  A    between atoms: C_8  and  O_9
REMARK    4  A    between atoms: O_9  and  C_10
REMARK    5  A    between atoms: C_13  and  C_18
REMARK    6  A    between atoms: C_15  and  O_16
REMARK    7  A    between atoms: O_16  and  C_17
REMARK    8  A    between atoms: C_20  and  C_24
REMARK    9  A    between atoms: N_26  and  N_27
REMARK   10  A    between atoms: C_28  and  C_29
REMARK   11  A    between atoms: C_32  and  C_35
REMARK   12  A    between atoms: C_35  and  O_37
REMARK   13  A    between atoms: O_37  and  C_38
REMARK                            x       y       z     vdW  Elec       q    Type
REMARK                         _______ _______ _______ _____ _____    ______ ____
ROOT
ATOM      1  C   UNL     1       1.839  -9.567   1.258  0.00  0.00    +0.092 C 
ATOM      2  C   UNL     1       0.805 -10.428   1.199  0.00  0.00    +0.041 C 
ATOM      3  C   UNL     1       1.392 -11.656   0.527  0.00  0.00    +0.240 C 
ATOM      4  N   UNL     1       2.793 -11.270   0.287  0.00  0.00    -0.170 NA
ATOM      5  N   UNL     1       2.950 -10.122   0.707  0.00  0.00    -0.153 NA
ENDROOT
BRANCH   1   9
ATOM      6  C   UNL     1       1.642  -5.654   2.923  0.00  0.00    +0.162 A 
ATOM      7  C   UNL     1       0.516  -6.463   2.917  0.00  0.00    +0.050 A 
ATOM      8  C   UNL     1       0.577  -7.731   2.378  0.00  0.00    +0.014 A 
ATOM      9  C   UNL     1       1.772  -8.203   1.837  0.00  0.00    +0.006 A 
ATOM     10  C   UNL     1       2.905  -7.391   1.842  0.00  0.00    +0.059 A 
ATOM     11  C   UNL     1       2.837  -6.117   2.379  0.00  0.00    +0.162 A 
BRANCH  11  12
ATOM     12  O   UNL     1       3.940  -5.321   2.381  0.00  0.00    -0.491 OA
ATOM     13  C   UNL     1       5.131  -5.861   1.806  0.00  0.00    +0.277 C 
ENDBRANCH  11  12
BRANCH   6  14
ATOM     14  O   UNL     1       1.578  -4.404   3.455  0.00  0.00    -0.484 OA
BRANCH  14  15
ATOM     15  C   UNL     1       0.320  -3.993   3.995  0.00  0.00    +0.264 C 
BRANCH  15  20
ATOM     16  C   UNL     1       0.775   1.382   6.067  0.00  0.00    +0.044 C 
ATOM     17  C   UNL     1       0.657  -0.020   5.527  0.00  0.00    -0.050 A 
ATOM     18  C   UNL     1       0.288  -0.224   4.210  0.00  0.00    +0.004 A 
ATOM     19  C   UNL     1       0.179  -1.510   3.715  0.00  0.00    +0.007 A 
ATOM     20  C   UNL     1       0.440  -2.591   4.535  0.00  0.00    -0.010 A 
ATOM     21  C   UNL     1       0.810  -2.387   5.851  0.00  0.00    +0.007 A 
ATOM     22  C   UNL     1       0.923  -1.101   6.346  0.00  0.00    +0.004 A 
ENDBRANCH  15  20
ENDBRANCH  14  15
ENDBRANCH   6  14
ENDBRANCH   1   9
BRANCH   3  23
ATOM     23  C   UNL     1       1.316 -12.851   1.443  0.00  0.00    +0.263 C 
ATOM     24  O   UNL     1       2.295 -13.200   2.068  0.00  0.00    -0.271 OA
ATOM     25  N   UNL     1       0.159 -13.532   1.567  0.00  0.00    -0.205 N 
ATOM     26  H   UNL     1      -0.624 -13.253   1.067  0.00  0.00    +0.177 HD
BRANCH  25  27
ATOM     27  N   UNL     1       0.088 -14.643   2.417  0.00  0.00    -0.188 NA
ATOM     28  C   UNL     1      -0.988 -15.369   2.448  0.00  0.00    +0.138 C 
BRANCH  28  29
ATOM     29  C   UNL     1      -1.922 -15.350   1.309  0.00  0.00    -0.005 A 
ATOM     30  C   UNL     1      -3.205 -15.890   1.448  0.00  0.00    +0.010 A 
ATOM     31  C   UNL     1      -4.072 -15.871   0.392  0.00  0.00    +0.015 A 
ATOM     32  C   UNL     1      -3.676 -15.313  -0.827  0.00  0.00    +0.059 A 
ATOM     33  C   UNL     1      -2.393 -14.773  -0.966  0.00  0.00    +0.015 A 
ATOM     34  C   UNL     1      -1.529 -14.787   0.091  0.00  0.00    +0.010 A 
BRANCH  32  35
ATOM     35  C   UNL     1      -4.612 -15.293  -1.968  0.00  0.00    +0.339 C 
ATOM     36  O   UNL     1      -5.726 -15.762  -1.847  0.00  0.00    -0.245 OA
BRANCH  35  37
ATOM     37  O   UNL     1      -4.231 -14.755  -3.143  0.00  0.00    -0.464 OA
ATOM     38  C   UNL     1      -5.188 -14.769  -4.204  0.00  0.00    +0.280 C 
ENDBRANCH  35  37
ENDBRANCH  32  35
ENDBRANCH  28  29
ENDBRANCH  25  27
ENDBRANCH   3  23
TORSDOF 10
