REMARK  Name = ZINC02332610
REMARK  9 active torsions:
REMARK  status: ('A' for Active; 'I' for Inactive)
REMARK    1  A    between atoms: C_1  and  C_2
REMARK    2  A    between atoms: C_5  and  C_8
REMARK    3  A    between atoms: C_9  and  C_14
REMARK    4  A    between atoms: N_15  and  N_16
REMARK    5  A    between atoms: C_17  and  C_27
REMARK    6  A    between atoms: C_27  and  O_28
REMARK    7  A    between atoms: O_28  and  N_29
REMARK    8  A    between atoms: N_29  and  C_30
REMARK    9  A    between atoms: C_30  and  C_32
REMARK                            x       y       z     vdW  Elec       q    Type
REMARK                         _______ _______ _______ _____ _____    ______ ____
ROOT
ATOM      1  N   UNL     1       0.049  -2.793  -0.037  0.00  0.00    -0.179 N 
ATOM      2  C   UNL     1      -1.007  -1.962   0.169  0.00  0.00    +0.163 A 
ATOM      3  N   UNL     1      -0.917  -0.667   0.117  0.00  0.00    -0.229 NA
ATOM      4  C   UNL     1       0.259  -0.047  -0.150  0.00  0.00    +0.078 A 
ATOM      5  C   UNL     1       0.359   1.345  -0.205  0.00  0.00    +0.028 A 
ATOM      6  C   UNL     1       1.576   1.928  -0.479  0.00  0.00    +0.002 A 
ATOM      7  C   UNL     1       2.704   1.149  -0.701  0.00  0.00    +0.001 A 
ATOM      8  C   UNL     1       2.632  -0.216  -0.652  0.00  0.00    +0.015 A 
ATOM      9  C   UNL     1       1.413  -0.832  -0.377  0.00  0.00    +0.067 A 
ATOM     10  C   UNL     1       1.276  -2.293  -0.311  0.00  0.00    +0.282 A 
ATOM     11  O   UNL     1       2.231  -3.026  -0.498  0.00  0.00    -0.265 OA
ENDROOT
BRANCH   1  13
ATOM     12  C   UNL     1       0.394  -4.855   1.014  0.00  0.00    +0.145 C 
ATOM     13  N   UNL     1      -0.135  -4.180   0.037  0.00  0.00    -0.170 NA
BRANCH  12  15
ATOM     14  C   UNL     1       1.781  -4.727   3.159  0.00  0.00    +0.101 A 
ATOM     15  C   UNL     1       1.038  -4.148   2.132  0.00  0.00    +0.040 A 
ATOM     16  C   UNL     1       1.021  -2.757   2.365  0.00  0.00    +0.115 A 
ATOM     17  N   UNL     1       1.698  -2.511   3.454  0.00  0.00    -0.284 N 
ATOM     18  N   UNL     1       2.184  -3.715   3.976  0.00  0.00    -0.173 NA
ATOM     19  H   UNL     1       1.845  -1.606   3.852  0.00  0.00    +0.188 HD
BRANCH  14  24
ATOM     20  C   UNL     1       2.924 -10.326   3.825  0.00  0.00    +0.044 C 
ATOM     21  C   UNL     1       2.624  -8.859   3.650  0.00  0.00    -0.050 A 
ATOM     22  C   UNL     1       3.642  -7.929   3.772  0.00  0.00    +0.004 A 
ATOM     23  C   UNL     1       3.375  -6.586   3.614  0.00  0.00    +0.010 A 
ATOM     24  C   UNL     1       2.074  -6.164   3.330  0.00  0.00    +0.003 A 
ATOM     25  C   UNL     1       1.051  -7.107   3.213  0.00  0.00    +0.010 A 
ATOM     26  C   UNL     1       1.333  -8.449   3.369  0.00  0.00    +0.004 A 
ENDBRANCH  14  24
ENDBRANCH  12  15
ENDBRANCH   1  13
BRANCH   2  27
ATOM     27  C   UNL     1      -2.351  -2.574   0.471  0.00  0.00    +0.268 C 
BRANCH  27  28
ATOM     28  O   UNL     1      -3.317  -1.536   0.652  0.00  0.00    -0.266 OA
BRANCH  28  29
ATOM     29  N   UNL     1      -4.620  -2.007   0.942  0.00  0.00    -0.265 N 
ATOM     30  H   UNL     1      -4.790  -2.960   1.001  0.00  0.00    +0.194 HD
BRANCH  29  31
ATOM     31  C   UNL     1      -5.661  -1.099   1.142  0.00  0.00    +0.061 C 
ATOM     32  C   UNL     1      -5.428   0.211   1.061  0.00  0.00    +0.038 C 
BRANCH  31  33
ATOM     33  C   UNL     1      -7.025  -1.592   1.446  0.00  0.00    -0.000 A 
ATOM     34  C   UNL     1      -7.272  -2.962   1.526  0.00  0.00    +0.010 A 
ATOM     35  C   UNL     1      -8.543  -3.415   1.815  0.00  0.00    +0.001 A 
ATOM     36  C   UNL     1      -9.573  -2.513   2.013  0.00  0.00    +0.000 A 
ATOM     37  C   UNL     1      -9.335  -1.153   1.929  0.00  0.00    +0.001 A 
ATOM     38  C   UNL     1      -8.067  -0.688   1.647  0.00  0.00    +0.010 A 
ENDBRANCH  31  33
ENDBRANCH  29  31
ENDBRANCH  28  29
ENDBRANCH  27  28
ENDBRANCH   2  27
TORSDOF 8
