REMARK  Name = ZINC23125446
REMARK  11 active torsions:
REMARK  status: ('A' for Active; 'I' for Inactive)
REMARK    1  A    between atoms: C_1  and  C_2
REMARK    2  A    between atoms: C_2  and  N_3
REMARK    3  A    between atoms: C_5  and  C_23
REMARK    4  A    between atoms: C_6  and  N_22
REMARK    5  A    between atoms: N_7  and  C_9
REMARK    6  A    between atoms: C_9  and  C_10
REMARK    7  A    between atoms: N_12  and  C_13
REMARK    8  A    between atoms: C_15  and  C_21
REMARK    9  A    between atoms: C_18  and  O_19
REMARK   10  A    between atoms: O_19  and  C_20
REMARK   11  A    between atoms: C_25  and  C_28
REMARK                            x       y       z     vdW  Elec       q    Type
REMARK                         _______ _______ _______ _____ _____    ______ ____
ROOT
ATOM      1  N   UNL     1       6.272   3.172  -0.047  0.00  0.00    -0.329 N 
ATOM      2  C   UNL     1       6.778   1.871  -0.054  0.00  0.00    +0.127 A 
ATOM      3  C   UNL     1       6.010   0.678  -0.043  0.00  0.00    +0.117 A 
ATOM      4  C   UNL     1       6.909  -0.384  -0.049  0.00  0.00    +0.127 A 
ATOM      5  N   UNL     1       8.151   0.143  -0.072  0.00  0.00    -0.262 N 
ATOM      6  N   UNL     1       8.043   1.538  -0.071  0.00  0.00    -0.282 N 
ATOM      7  H   UNL     1       5.184   3.339  -0.032  0.00  0.00    +0.147 HD
ATOM      8  H   UNL     1       8.817   2.320  -0.082  0.00  0.00    +0.188 HD
ENDROOT
BRANCH   3   9
ATOM      9  C   UNL     1       4.544   0.582  -0.023  0.00  0.00    +0.265 A 
ATOM     10  N   UNL     1       3.687   1.590  -0.018  0.00  0.00    -0.187 NA
ATOM     11  C   UNL     1       2.463   1.022   0.005  0.00  0.00    +0.202 A 
ATOM     12  N   UNL     1       2.633  -0.275   0.003  0.00  0.00    -0.056 NA
ATOM     13  O   UNL     1       3.815  -0.547  -0.013  0.00  0.00    -0.332 OA
BRANCH  11  14
ATOM     14  C   UNL     1       1.163   1.738   0.022  0.00  0.00    +0.023 A 
ATOM     15  C   UNL     1      -0.030   1.018   0.038  0.00  0.00    +0.013 A 
ATOM     16  C   UNL     1      -1.237   1.688   0.049  0.00  0.00    +0.021 A 
ATOM     17  C   UNL     1      -1.263   3.072   0.054  0.00  0.00    +0.041 A 
ATOM     18  C   UNL     1      -0.080   3.791   0.037  0.00  0.00    +0.021 A 
ATOM     19  C   UNL     1       1.131   3.131   0.021  0.00  0.00    +0.013 A 
ATOM     20 CL   UNL     1      -2.784   3.909   0.075  0.00  0.00    -0.084 Cl
ENDBRANCH  11  14
ENDBRANCH   3   9
BRANCH   4  21
ATOM     21  N   UNL     1       6.590  -1.729  -0.037  0.00  0.00    -0.343 N 
ATOM     22  H   UNL     1       7.389  -2.484  -0.043  0.00  0.00    +0.144 HD
ATOM     23  H   UNL     1       5.536  -2.044  -0.021  0.00  0.00    +0.144 HD
ENDBRANCH   4  21
BRANCH   1  25
ATOM     24  C   UNL     1       6.382   5.615  -0.049  0.00  0.00    +0.024 C 
ATOM     25  C   UNL     1       7.188   4.314  -0.060  0.00  0.00    +0.099 C 
ENDBRANCH   1  25
BRANCH   5  26
ATOM     26  C   UNL     1       9.403  -0.618  -0.089  0.00  0.00    +0.239 C 
BRANCH  26  27
ATOM     27  C   UNL     1       9.852  -0.879   1.325  0.00  0.00    +0.239 C 
ATOM     28  O   UNL     1       9.191  -0.469   2.256  0.00  0.00    -0.273 OA
ATOM     29  N   UNL     1      10.987  -1.567   1.556  0.00  0.00    -0.281 N 
ATOM     30  H   UNL     1      11.547  -2.001   0.714  0.00  0.00    +0.155 HD
BRANCH  29  31
ATOM     31  C   UNL     1      11.454  -1.730   2.867  0.00  0.00    +0.076 A 
ATOM     32  C   UNL     1      10.555  -1.870   3.913  0.00  0.00    +0.030 A 
ATOM     33  C   UNL     1      11.018  -2.030   5.205  0.00  0.00    -0.048 A 
ATOM     34  C   UNL     1      12.377  -2.051   5.459  0.00  0.00    +0.007 A 
ATOM     35  C   UNL     1      13.279  -1.912   4.421  0.00  0.00    +0.048 A 
ATOM     36  C   UNL     1      12.823  -1.756   3.122  0.00  0.00    +0.141 A 
ATOM     37  C   UNL     1      10.039  -2.183   6.341  0.00  0.00    +0.044 C 
BRANCH  36  38
ATOM     38  O   UNL     1      13.710  -1.625   2.099  0.00  0.00    -0.493 OA
ATOM     39  C   UNL     1      15.098  -1.662   2.436  0.00  0.00    +0.277 C 
ENDBRANCH  36  38
ENDBRANCH  29  31
ENDBRANCH  26  27
ENDBRANCH   5  26
TORSDOF 8
