REMARK  Name = ZINC46084957
REMARK  9 active torsions:
REMARK  status: ('A' for Active; 'I' for Inactive)
REMARK    1  A    between atoms: C_2  and  C_3
REMARK    2  A    between atoms: C_3  and  O_4
REMARK    3  A    between atoms: O_4  and  C_5
REMARK    4  A    between atoms: C_10  and  C_11
REMARK    5  A    between atoms: C_11  and  N_12
REMARK    6  A    between atoms: N_20  and  N_21
REMARK    7  A    between atoms: C_22  and  C_24
REMARK    8  A    between atoms: C_24  and  O_25
REMARK    9  A    between atoms: O_25  and  C_26
REMARK                            x       y       z     vdW  Elec       q    Type
REMARK                         _______ _______ _______ _____ _____    ______ ____
ROOT
ATOM      1  N   UNL     1      -0.102  -4.657  -2.061  0.00  0.00    -0.261 N 
ATOM      2  C   UNL     1       0.887  -4.049  -1.295  0.00  0.00    +0.046 A 
ATOM      3  C   UNL     1       1.184  -2.711  -1.063  0.00  0.00    +0.024 A 
ATOM      4  C   UNL     1       2.240  -2.367  -0.245  0.00  0.00    +0.002 A 
ATOM      5  C   UNL     1       3.016  -3.345   0.354  0.00  0.00    +0.001 A 
ATOM      6  C   UNL     1       2.736  -4.679   0.136  0.00  0.00    +0.012 A 
ATOM      7  C   UNL     1       1.674  -5.036  -0.687  0.00  0.00    +0.028 A 
ATOM      8  C   UNL     1       1.118  -6.339  -1.119  0.00  0.00    +0.153 C 
ATOM      9  N   UNL     1       1.542  -7.536  -0.792  0.00  0.00    -0.174 NA
ATOM     10  C   UNL     1      -0.022  -5.997  -1.994  0.00  0.00    +0.272 C 
ATOM     11  O   UNL     1      -0.756  -6.787  -2.557  0.00  0.00    -0.268 OA
ENDROOT
BRANCH   9  12
ATOM     12  N   UNL     1       0.894  -8.671  -1.296  0.00  0.00    -0.203 N 
ATOM     13  C   UNL     1       1.330  -9.901  -0.960  0.00  0.00    +0.270 C 
ATOM     14  O   UNL     1       2.283 -10.025  -0.221  0.00  0.00    -0.270 OA
ATOM     15  H   UNL     1       0.131  -8.571  -1.887  0.00  0.00    +0.177 HD
BRANCH  13  16
ATOM     16  C   UNL     1       0.632 -11.122  -1.502  0.00  0.00    +0.326 C 
BRANCH  16  17
ATOM     17  O   UNL     1       1.275 -12.297  -1.006  0.00  0.00    -0.482 OA
BRANCH  17  18
ATOM     18  C   UNL     1       0.766 -13.492  -1.402  0.00  0.00    +0.129 A 
ATOM     19  C   UNL     1      -0.310 -13.537  -2.244  0.00  0.00    +0.046 A 
ATOM     20  C   UNL     1      -0.843 -14.754  -2.659  0.00  0.00    +0.004 A 
ATOM     21  C   UNL     1      -0.309 -15.934  -2.240  0.00  0.00    +0.009 A 
ATOM     22  C   UNL     1       0.798 -15.932  -1.375  0.00  0.00    -0.014 A 
ATOM     23  C   UNL     1       1.347 -14.695  -0.953  0.00  0.00    +0.024 A 
ATOM     24  C   UNL     1       2.457 -14.693  -0.091  0.00  0.00    +0.012 A 
ATOM     25  C   UNL     1       2.991 -15.874   0.322  0.00  0.00    +0.001 A 
ATOM     26  C   UNL     1       2.454 -17.090  -0.096  0.00  0.00    +0.001 A 
ATOM     27  C   UNL     1       1.373 -17.131  -0.922  0.00  0.00    +0.008 A 
ENDBRANCH  17  18
ENDBRANCH  16  17
ENDBRANCH  13  16
ENDBRANCH   9  12
BRANCH   1  28
ATOM     28  C   UNL     1      -1.107  -3.929  -2.839  0.00  0.00    +0.152 C 
BRANCH  28  34
ATOM     29  C   UNL     1      -2.318  -2.629  -1.069  0.00  0.00    +0.126 A 
ATOM     30  C   UNL     1      -3.437  -2.395  -0.283  0.00  0.00    +0.046 A 
ATOM     31  C   UNL     1      -4.548  -3.206  -0.407  0.00  0.00    +0.004 A 
ATOM     32  C   UNL     1      -4.546  -4.251  -1.313  0.00  0.00    +0.001 A 
ATOM     33  C   UNL     1      -3.431  -4.487  -2.096  0.00  0.00    +0.009 A 
ATOM     34  C   UNL     1      -2.319  -3.675  -1.980  0.00  0.00    +0.012 A 
BRANCH  29  35
ATOM     35  O   UNL     1      -1.224  -1.832  -0.949  0.00  0.00    -0.488 OA
BRANCH  35  36
ATOM     36  C   UNL     1      -1.293  -0.775   0.010  0.00  0.00    +0.256 C 
BRANCH  36  38
ATOM     37  C   UNL     1      -0.016   1.306   0.009  0.00  0.00    +0.007 C 
ATOM     38  C   UNL     1       0.002  -0.004   0.002  0.00  0.00    +0.006 C 
ENDBRANCH  36  38
ENDBRANCH  35  36
ENDBRANCH  29  35
ENDBRANCH  28  34
ENDBRANCH   1  28
TORSDOF 9
