REMARK  Name = ZINC08780946
REMARK  9 active torsions:
REMARK  status: ('A' for Active; 'I' for Inactive)
REMARK    1  A    between atoms: C_3  and  C_9
REMARK    2  A    between atoms: C_4  and  O_8
REMARK    3  A    between atoms: C_6  and  O_7
REMARK    4  A    between atoms: C_15  and  C_31
REMARK    5  A    between atoms: C_16  and  C_23
REMARK    6  A    between atoms: C_18  and  C_21
REMARK    7  A    between atoms: C_19  and  N_20
REMARK    8  A    between atoms: C_26  and  O_30
REMARK    9  A    between atoms: C_28  and  O_29
REMARK                            x       y       z     vdW  Elec       q    Type
REMARK                         _______ _______ _______ _____ _____    ______ ____
ROOT
ATOM      1  C   UNL     1      -1.527  -4.172  -0.648  0.00  0.00    +0.032 C 
ATOM      2  C   UNL     1      -0.996  -2.932  -0.819  0.00  0.00    +0.080 A 
ATOM      3  C   UNL     1       0.405  -2.533  -0.972  0.00  0.00    +0.271 A 
ATOM      4  O   UNL     1       1.294  -3.365  -0.958  0.00  0.00    -0.266 OA
ATOM      5  N   UNL     1       0.689  -1.225  -1.129  0.00  0.00    -0.256 N 
ATOM      6  C   UNL     1      -0.370  -0.337  -1.135  0.00  0.00    +0.104 A 
ATOM      7  C   UNL     1      -0.241   1.006  -1.284  0.00  0.00    +0.073 C 
ATOM      8  C   UNL     1       1.151   1.581  -1.455  0.00  0.00    +0.109 C 
ATOM      9  C   UNL     1       2.284   0.575  -1.443  0.00  0.00    +0.080 C 
ATOM     10  C   UNL     1       1.990  -0.734  -1.284  0.00  0.00    +0.119 C 
ATOM     11  S   UNL     1      -1.818  -1.350  -0.915  0.00  0.00    -0.065 S 
ENDROOT
BRANCH   1  14
ATOM     12  C   UNL     1      -5.168  -3.558  -1.276  0.00  0.00    +0.046 A 
ATOM     13  C   UNL     1      -3.804  -3.376  -1.246  0.00  0.00    +0.015 A 
ATOM     14  C   UNL     1      -2.981  -4.357  -0.677  0.00  0.00    +0.018 A 
ATOM     15  C   UNL     1      -3.556  -5.517  -0.130  0.00  0.00    +0.127 A 
ATOM     16  C   UNL     1      -4.929  -5.683  -0.162  0.00  0.00    +0.091 A 
ATOM     17  C   UNL     1      -5.734  -4.707  -0.734  0.00  0.00    +0.120 A 
BRANCH  17  18
ATOM     18  O   UNL     1      -7.081  -4.875  -0.763  0.00  0.00    -0.507 OA
ATOM     19  H   UNL     1      -7.538  -4.520   0.012  0.00  0.00    +0.292 HD
ENDBRANCH  17  18
BRANCH  15  20
ATOM     20  O   UNL     1      -2.768  -6.471   0.428  0.00  0.00    -0.506 OA
ATOM     21  H   UNL     1      -2.606  -6.344   1.373  0.00  0.00    +0.292 HD
ENDBRANCH  15  20
ENDBRANCH   1  14
BRANCH   8  22
ATOM     22  C   UNL     1       1.196   2.326  -2.764  0.00  0.00    +0.008 A 
ATOM     23  C   UNL     1       0.948   1.657  -3.948  0.00  0.00    +0.012 A 
ATOM     24  C   UNL     1       0.982   2.338  -5.149  0.00  0.00    +0.046 A 
ATOM     25  C   UNL     1       1.278   3.694  -5.172  0.00  0.00    +0.120 A 
ATOM     26  C   UNL     1       1.533   4.366  -3.986  0.00  0.00    +0.091 A 
ATOM     27  C   UNL     1       1.492   3.681  -2.781  0.00  0.00    +0.124 A 
BRANCH  27  28
ATOM     28  O   UNL     1       1.740   4.338  -1.618  0.00  0.00    -0.506 OA
ATOM     29  H   UNL     1       2.672   4.339  -1.358  0.00  0.00    +0.292 HD
ENDBRANCH  27  28
BRANCH  25  30
ATOM     30  O   UNL     1       1.318   4.362  -6.354  0.00  0.00    -0.507 OA
ATOM     31  H   UNL     1       2.189   4.366  -6.774  0.00  0.00    +0.292 HD
ENDBRANCH  25  30
ENDBRANCH   8  22
BRANCH  10  32
ATOM     32  N   UNL     1       3.028  -1.635  -1.276  0.00  0.00    -0.343 N 
ATOM     33  H   UNL     1       2.880  -2.548  -1.568  0.00  0.00    +0.144 HD
ATOM     34  H   UNL     1       3.908  -1.358  -0.977  0.00  0.00    +0.144 HD
ENDBRANCH  10  32
BRANCH   9  35
ATOM     35  C   UNL     1       3.641   1.004  -1.597  0.00  0.00    +0.099 C 
ATOM     36  N   UNL     1       4.718   1.345  -1.719  0.00  0.00    -0.191 NA
ENDBRANCH   9  35
BRANCH   7  37
ATOM     37  C   UNL     1      -1.393   1.858  -1.285  0.00  0.00    +0.098 C 
ATOM     38  N   UNL     1      -2.306   2.534  -1.286  0.00  0.00    -0.191 NA
ENDBRANCH   7  37
TORSDOF 9
