REMARK  Name = ZINC67102864
REMARK  9 active torsions:
REMARK  status: ('A' for Active; 'I' for Inactive)
REMARK    1  A    between atoms: C_1  and  C_2
REMARK    2  A    between atoms: C_6  and  C_8
REMARK    3  A    between atoms: N_10  and  N_11
REMARK    4  A    between atoms: C_18  and  N_21
REMARK    5  A    between atoms: C_22  and  O_24
REMARK    6  A    between atoms: O_24  and  C_25
REMARK    7  A    between atoms: C_25  and  C_26
REMARK    8  A    between atoms: C_25  and  C_27
REMARK    9  A    between atoms: C_25  and  C_28
REMARK                            x       y       z     vdW  Elec       q    Type
REMARK                         _______ _______ _______ _____ _____    ______ ____
ROOT
ATOM      1  N   UNL     1       0.082  -4.905   3.651  0.00  0.00    -0.218 N 
ATOM      2  C   UNL     1       0.205  -6.247   3.636  0.00  0.00    +0.319 C 
ATOM      3  O   UNL     1       0.222  -6.868   4.682  0.00  0.00    -0.251 OA
ATOM      4  N   UNL     1       0.310  -6.901   2.463  0.00  0.00    -0.283 N 
ATOM      5  C   UNL     1       0.411  -6.159   1.199  0.00  0.00    +0.109 C 
ATOM      6  C   UNL     1      -0.676  -6.662   0.243  0.00  0.00    +0.021 C 
ATOM      7  C   UNL     1      -0.554  -8.180   0.092  0.00  0.00    +0.025 C 
ATOM      8  C   UNL     1      -0.761  -8.848   1.453  0.00  0.00    +0.094 C 
ATOM      9  C   UNL     1       0.331  -8.370   2.423  0.00  0.00    +0.131 C 
ATOM     10  H   UNL     1      -0.007  -4.417   2.818  0.00  0.00    +0.174 HD
ENDROOT
BRANCH   1  13
ATOM     11  C   UNL     1       0.059  -2.868   4.883  0.00  0.00    +0.260 C 
ATOM     12  O   UNL     1       0.041  -2.251   3.836  0.00  0.00    -0.269 OA
ATOM     13  N   UNL     1       0.081  -4.215   4.871  0.00  0.00    -0.229 N 
ATOM     14  H   UNL     1       0.096  -4.708   5.707  0.00  0.00    +0.173 HD
BRANCH  11  20
ATOM     15  C   UNL     1       0.013   1.435   7.409  0.00  0.00    +0.044 C 
ATOM     16  C   UNL     1       0.037  -0.071   7.390  0.00  0.00    -0.050 A 
ATOM     17  C   UNL     1       0.058  -0.776   8.580  0.00  0.00    +0.003 A 
ATOM     18  C   UNL     1       0.080  -2.160   8.571  0.00  0.00    +0.001 A 
ATOM     19  C   UNL     1       0.081  -2.845   7.374  0.00  0.00    +0.013 A 
ATOM     20  C   UNL     1       0.059  -2.140   6.170  0.00  0.00    +0.038 A 
ATOM     21  C   UNL     1       0.032  -0.744   6.186  0.00  0.00    +0.016 A 
ENDBRANCH  11  20
ENDBRANCH   1  13
BRANCH   8  22
ATOM     22  N   UNL     1      -0.676 -10.303   1.302  0.00  0.00    -0.277 N 
ATOM     23  C   UNL     1      -1.296 -11.109   2.186  0.00  0.00    +0.401 C 
ATOM     24  O   UNL     1      -1.926 -10.630   3.108  0.00  0.00    -0.226 OA
ATOM     25  H   UNL     1      -0.173 -10.685   0.566  0.00  0.00    +0.152 HD
BRANCH  23  26
ATOM     26  O   UNL     1      -1.218 -12.446   2.047  0.00  0.00    -0.445 OA
BRANCH  26  27
ATOM     27  C   UNL     1      -1.900 -13.240   3.020  0.00  0.00    +0.107 C 
ATOM     28  C   UNL     1      -3.393 -12.911   2.992  0.00  0.00    +0.055 C 
ATOM     29  C   UNL     1      -1.699 -14.723   2.700  0.00  0.00    +0.055 C 
ATOM     30  C   UNL     1      -1.337 -12.938   4.410  0.00  0.00    +0.055 C 
ENDBRANCH  26  27
ENDBRANCH  23  26
ENDBRANCH   8  22
TORSDOF 5
