REMARK  Name = ZINC22111349
REMARK  5 active torsions:
REMARK  status: ('A' for Active; 'I' for Inactive)
REMARK    1  A    between atoms: C_4  and  C_8
REMARK    2  A    between atoms: C_11  and  C_13
REMARK    3  A    between atoms: C_13  and  N_14
REMARK    4  A    between atoms: N_14  and  N_15
REMARK    5  A    between atoms: C_16  and  C_21
REMARK                            x       y       z     vdW  Elec       q    Type
REMARK                         _______ _______ _______ _____ _____    ______ ____
ROOT
ATOM      1  N   UNL     1      -1.075  -0.844   0.007  0.00  0.00    -0.274 N 
ATOM      2  H   UNL     1      -1.877  -0.936   0.754  0.00  0.00    +0.167 HD
ENDROOT
BRANCH   1   3
ATOM      3  N   UNL     1       0.002  -0.004   0.002  0.00  0.00    -0.222 N 
ATOM      4  C   UNL     1      -0.017   1.372   0.010  0.00  0.00    +0.180 A 
ATOM      5  N   UNL     1       1.233   1.775  -0.000  0.00  0.00    -0.152 NA
ATOM      6  N   UNL     1       2.021   0.759  -0.013  0.00  0.00    -0.253 N 
ATOM      7  C   UNL     1       1.321  -0.355  -0.013  0.00  0.00    +0.193 A 
ATOM      8  S   UNL     1       1.966  -1.994  -0.028  0.00  0.00    -0.010 S 
ATOM      9  H   UNL     1       3.110   0.908  -0.023  0.00  0.00    +0.191 HD
BRANCH   4  10
ATOM     10  C   UNL     1      -1.217   2.234   0.020  0.00  0.00    +0.024 A 
ATOM     11  C   UNL     1      -2.479   1.714  -0.293  0.00  0.00    +0.031 A 
ATOM     12  C   UNL     1      -3.573   2.554  -0.267  0.00  0.00    +0.111 A 
ATOM     13  N   UNL     1      -3.440   3.831   0.039  0.00  0.00    -0.263 NA
ATOM     14  C   UNL     1      -2.269   4.362   0.335  0.00  0.00    +0.111 A 
ATOM     15  C   UNL     1      -1.123   3.595   0.338  0.00  0.00    +0.031 A 
ENDBRANCH   4  10
ENDBRANCH   1   3
BRANCH   1  16
ATOM     16  C   UNL     1      -1.079  -1.702  -1.185  0.00  0.00    +0.195 C 
BRANCH  16  20
ATOM     17  C   UNL     1      -3.549  -4.357  -0.737  0.00  0.00    +0.137 A 
ATOM     18  C   UNL     1      -4.314  -3.453  -1.404  0.00  0.00    +0.050 A 
ATOM     19  C   UNL     1      -3.494  -2.335  -1.657  0.00  0.00    +0.047 A 
ATOM     20  C   UNL     1      -2.279  -2.613  -1.145  0.00  0.00    +0.124 A 
ATOM     21  O   UNL     1      -2.317  -3.834  -0.587  0.00  0.00    -0.458 OA
BRANCH  17  25
ATOM     22  C   UNL     1      -4.823  -8.171   0.635  0.00  0.00    +0.021 A 
ATOM     23  C   UNL     1      -5.577  -7.048   0.926  0.00  0.00    +0.022 A 
ATOM     24  C   UNL     1      -5.166  -5.804   0.487  0.00  0.00    +0.052 A 
ATOM     25  C   UNL     1      -3.992  -5.684  -0.260  0.00  0.00    +0.037 A 
ATOM     26  C   UNL     1      -3.237  -6.821  -0.550  0.00  0.00    +0.033 A 
ATOM     27  C   UNL     1      -3.656  -8.057  -0.101  0.00  0.00    +0.042 A 
ATOM     28 CL   UNL     1      -2.718  -9.473  -0.460  0.00  0.00    -0.084 Cl
ATOM     29 CL   UNL     1      -6.110  -4.395   0.859  0.00  0.00    -0.083 Cl
ENDBRANCH  17  25
ENDBRANCH  16  20
ENDBRANCH   1  16
TORSDOF 5
