REMARK  Name = ZINC43666583
REMARK  6 active torsions:
REMARK  status: ('A' for Active; 'I' for Inactive)
REMARK    1  A    between atoms: C_1  and  C_2
REMARK    2  A    between atoms: C_2  and  C_3
REMARK    3  A    between atoms: C_2  and  C_4
REMARK    4  A    between atoms: C_2  and  C_5
REMARK    5  A    between atoms: C_11  and  N_13
REMARK    6  A    between atoms: C_14  and  N_19
REMARK                            x       y       z     vdW  Elec       q    Type
REMARK                         _______ _______ _______ _____ _____    ______ ____
ROOT
ATOM      1  C   UNL     1       0.518  -0.567  -1.381  0.00  0.00    +0.019 C 
ATOM      2  C   UNL     1       0.406  -2.088  -1.500  0.00  0.00    +0.006 C 
ATOM      3  C   UNL     1       0.967  -2.537  -2.851  0.00  0.00    +0.000 C 
ATOM      4  C   UNL     1       2.437  -2.123  -2.955  0.00  0.00    +0.002 C 
ATOM      5  C   UNL     1       2.548  -0.602  -2.836  0.00  0.00    +0.027 C 
ATOM      6  C   UNL     1       1.987  -0.154  -1.485  0.00  0.00    +0.113 C 
ENDROOT
BRANCH   6   7
ATOM      7  N   UNL     1       2.750  -0.785  -0.406  0.00  0.00    -0.247 N 
ATOM      8  C   UNL     1       3.571  -0.151   0.471  0.00  0.00    +0.128 A 
ATOM      9  C   UNL     1       4.082  -1.095   1.308  0.00  0.00    +0.072 A 
ATOM     10  C   UNL     1       3.558  -2.334   0.929  0.00  0.00    +0.150 A 
ATOM     11  N   UNL     1       2.759  -2.150  -0.090  0.00  0.00    -0.177 NA
ATOM     12  I   UNL     1       5.419  -0.752   2.885  0.00  0.00    -0.039 I 
BRANCH   8  13
ATOM     13  N   UNL     1       3.839   1.215   0.507  0.00  0.00    -0.343 N 
ATOM     14  H   UNL     1       3.422   1.809  -0.137  0.00  0.00    +0.144 HD
ATOM     15  H   UNL     1       4.444   1.573   1.176  0.00  0.00    +0.144 HD
ENDBRANCH   8  13
ENDBRANCH   6   7
BRANCH   1  17
ATOM     16  C   UNL     1       0.236   1.373   0.169  0.00  0.00    +0.011 C 
ATOM     17  C   UNL     1      -0.043  -0.119  -0.030  0.00  0.00    -0.033 C 
ATOM     18  C   UNL     1       0.626  -0.917   1.091  0.00  0.00    +0.011 C 
ATOM     19  C   UNL     1      -1.553  -0.363   0.002  0.00  0.00    +0.011 C 
ENDBRANCH   1  17
TORSDOF 3
