REMARK  Name = ZINC12137712
REMARK  11 active torsions:
REMARK  status: ('A' for Active; 'I' for Inactive)
REMARK    1  A    between atoms: C_1  and  C_2
REMARK    2  A    between atoms: N_4  and  C_5
REMARK    3  A    between atoms: C_5  and  C_17
REMARK    4  A    between atoms: C_6  and  C_7
REMARK    5  A    between atoms: C_10  and  O_15
REMARK    6  A    between atoms: C_11  and  O_13
REMARK    7  A    between atoms: O_13  and  C_14
REMARK    8  A    between atoms: O_15  and  C_16
REMARK    9  A    between atoms: C_24  and  C_25
REMARK   10  A    between atoms: C_24  and  C_31
REMARK   11  A    between atoms: C_24  and  N_70
REMARK                            x       y       z     vdW  Elec       q    Type
REMARK                         _______ _______ _______ _____ _____    ______ ____
ROOT
ATOM      1  C   UNL     1      -0.915   4.169   2.475  0.00  0.00    +0.261 C 
ATOM      2  O   UNL     1      -1.791   4.956   2.783  0.00  0.00    -0.269 OA
ATOM      3  N   UNL     1      -0.979   3.516   1.298  0.00  0.00    -0.300 N 
ATOM      4  C   UNL     1      -0.022   2.447   0.975  0.00  0.00    +0.089 C 
ATOM      5  C   UNL     1       0.588   2.739  -0.400  0.00  0.00    -0.058 C 
ATOM      6  C   UNL     1      -1.317   4.092  -1.047  0.00  0.00    -0.058 C 
ATOM      7  C   UNL     1      -2.006   3.856   0.301  0.00  0.00    +0.089 C 
ATOM      8  N   UNL     1      -0.506   2.901  -1.381  0.00  0.00    +0.389 N 
ATOM      9  H   UNL     1      -1.108   2.069  -1.349  0.00  0.00    -0.080 HD
ENDROOT
BRANCH   1  10
ATOM     10  C   UNL     1       0.210   3.930   3.387  0.00  0.00    +0.097 C 
ATOM     11  C   UNL     1       0.695   4.942   4.144  0.00  0.00    +0.036 C 
BRANCH  11  12
ATOM     12  C   UNL     1       1.715   4.671   5.168  0.00  0.00    -0.019 A 
ATOM     13  C   UNL     1       1.779   3.414   5.779  0.00  0.00    +0.012 A 
ATOM     14  C   UNL     1       2.740   3.161   6.734  0.00  0.00    +0.050 A 
ATOM     15  C   UNL     1       3.637   4.154   7.101  0.00  0.00    +0.162 A 
ATOM     16  C   UNL     1       3.575   5.412   6.502  0.00  0.00    +0.162 A 
ATOM     17  C   UNL     1       2.620   5.672   5.539  0.00  0.00    +0.057 A 
BRANCH  16  18
ATOM     18  O   UNL     1       4.457   6.382   6.865  0.00  0.00    -0.491 OA
ATOM     19  C   UNL     1       4.336   7.646   6.209  0.00  0.00    +0.277 C 
ENDBRANCH  16  18
BRANCH  15  20
ATOM     20  O   UNL     1       4.578   3.901   8.048  0.00  0.00    -0.491 OA
ATOM     21  C   UNL     1       4.585   2.592   8.621  0.00  0.00    +0.277 C 
ENDBRANCH  15  20
ENDBRANCH  11  12
BRANCH  10  25
ATOM     22  C   UNL     1       0.620   0.217   3.861  0.00  0.00    +0.109 C 
ATOM     23  C   UNL     1      -0.002   1.577   3.672  0.00  0.00    +0.214 C 
ATOM     24  O   UNL     1      -1.208   1.700   3.696  0.00  0.00    -0.276 OA
ATOM     25  N   UNL     1       0.782   2.655   3.474  0.00  0.00    -0.282 N 
ATOM     26  H   UNL     1       1.743   2.547   3.393  0.00  0.00    +0.155 HD
ENDBRANCH  10  25
ENDBRANCH   1  10
BRANCH   8  27
ATOM     27  C   UNL     1       0.053   3.037  -2.742  0.00  0.00    -0.007 C 
BRANCH  27  28
ATOM     28  C   UNL     1       0.889   1.822  -3.051  0.00  0.00    -0.057 A 
ATOM     29  C   UNL     1       0.412   0.560  -2.750  0.00  0.00    +0.002 A 
ATOM     30  C   UNL     1       1.178  -0.555  -3.038  0.00  0.00    +0.000 A 
ATOM     31  C   UNL     1       2.424  -0.406  -3.617  0.00  0.00    +0.000 A 
ATOM     32  C   UNL     1       2.904   0.856  -3.912  0.00  0.00    +0.000 A 
ATOM     33  C   UNL     1       2.136   1.970  -3.630  0.00  0.00    +0.002 A 
ENDBRANCH  27  28
BRANCH  27  34
ATOM     34  C   UNL     1      -1.083   3.128  -3.728  0.00  0.00    -0.057 A 
ATOM     35  C   UNL     1      -2.202   2.333  -3.570  0.00  0.00    +0.002 A 
ATOM     36  C   UNL     1      -3.246   2.420  -4.472  0.00  0.00    +0.000 A 
ATOM     37  C   UNL     1      -3.167   3.296  -5.538  0.00  0.00    +0.000 A 
ATOM     38  C   UNL     1      -2.045   4.088  -5.700  0.00  0.00    +0.000 A 
ATOM     39  C   UNL     1      -1.003   4.004  -4.795  0.00  0.00    +0.002 A 
ENDBRANCH  27  34
ENDBRANCH   8  27
TORSDOF 8
