REMARK  Name = ZINC63187805
REMARK  9 active torsions:
REMARK  status: ('A' for Active; 'I' for Inactive)
REMARK    1  A    between atoms: C_7  and  C_10
REMARK    2  A    between atoms: C_10  and  C_11
REMARK    3  A    between atoms: C_11  and  C_13
REMARK    4  A    between atoms: C_11  and  N_26
REMARK    5  A    between atoms: C_13  and  O_15
REMARK    6  A    between atoms: O_15  and  C_16
REMARK    7  A    between atoms: C_16  and  C_17
REMARK    8  A    between atoms: C_21  and  N_23
REMARK    9  A    between atoms: C_27  and  C_29
REMARK                            x       y       z     vdW  Elec       q    Type
REMARK                         _______ _______ _______ _____ _____    ______ ____
ROOT
ATOM      1  C   UNL     1       0.576  -3.621  -1.486  0.00  0.00    +0.186 C 
ENDROOT
BRANCH   1   2
ATOM      2  N   UNL     1       1.860  -4.164  -1.937  0.00  0.00    -0.298 N 
ATOM      3  C   UNL     1       2.854  -3.329  -2.298  0.00  0.00    +0.246 C 
ATOM      4  O   UNL     1       2.686  -2.126  -2.251  0.00  0.00    -0.270 OA
ATOM      5  H   UNL     1       1.994  -5.124  -1.974  0.00  0.00    +0.150 HD
BRANCH   3   6
ATOM      6  C   UNL     1       4.149  -3.877  -2.752  0.00  0.00    +0.055 A 
ATOM      7  C   UNL     1       4.344  -5.258  -2.814  0.00  0.00    +0.014 A 
ATOM      8  C   UNL     1       5.555  -5.763  -3.239  0.00  0.00    +0.001 A 
ATOM      9  C   UNL     1       6.577  -4.904  -3.604  0.00  0.00    +0.001 A 
ATOM     10  C   UNL     1       6.393  -3.535  -3.546  0.00  0.00    +0.021 A 
ATOM     11  C   UNL     1       5.183  -3.015  -3.128  0.00  0.00    +0.053 A 
ATOM     12 CL   UNL     1       4.950  -1.296  -3.063  0.00  0.00    -0.083 Cl
ENDBRANCH   3   6
ENDBRANCH   1   2
BRANCH   1  13
ATOM     13  C   UNL     1      -0.522  -4.607  -1.792  0.00  0.00    +0.328 C 
ATOM     14  O   UNL     1      -0.259  -5.656  -2.332  0.00  0.00    -0.249 OA
BRANCH  13  15
ATOM     15  O   UNL     1      -1.792  -4.320  -1.466  0.00  0.00    -0.459 OA
BRANCH  15  16
ATOM     16  C   UNL     1      -2.781  -5.301  -1.786  0.00  0.00    +0.267 C 
BRANCH  16  17
ATOM     17  C   UNL     1      -4.137  -4.808  -1.349  0.00  0.00    -0.008 A 
ATOM     18  C   UNL     1      -4.596  -5.088  -0.076  0.00  0.00    +0.007 A 
ATOM     19  C   UNL     1      -5.840  -4.636   0.325  0.00  0.00    +0.003 A 
ATOM     20  C   UNL     1      -6.623  -3.904  -0.547  0.00  0.00    +0.033 A 
ATOM     21  C   UNL     1      -6.163  -3.624  -1.820  0.00  0.00    +0.127 A 
ATOM     22  C   UNL     1      -4.918  -4.072  -2.220  0.00  0.00    +0.039 A 
BRANCH  21  23
ATOM     23  N   UNL     1      -7.003  -2.840  -2.755  0.00  0.00    +0.056 N 
ATOM     24  O   UNL     1      -8.091  -2.446  -2.404  0.00  0.00    -0.126 OA
ATOM     25  O   UNL     1      -6.601  -2.595  -3.868  0.00  0.00    -0.126 OA
ENDBRANCH  21  23
ENDBRANCH  16  17
ENDBRANCH  15  16
ENDBRANCH  13  15
ENDBRANCH   1  13
BRANCH   1  26
ATOM     26  C   UNL     1       0.629  -3.369   0.022  0.00  0.00    +0.067 C 
BRANCH  26  33
ATOM     27  C   UNL     1       4.575  -5.187   1.499  0.00  0.00    +0.001 A 
ATOM     28  C   UNL     1       4.421  -6.432   2.124  0.00  0.00    +0.002 A 
ATOM     29  C   UNL     1       3.220  -7.030   2.273  0.00  0.00    +0.026 A 
ATOM     30  C   UNL     1       2.039  -6.402   1.788  0.00  0.00    +0.043 A 
ATOM     31  N   UNL     1       0.782  -6.772   1.809  0.00  0.00    -0.380 N 
ATOM     32  C   UNL     1      -0.023  -5.731   1.160  0.00  0.00    +0.144 C 
ATOM     33  C   UNL     1       0.953  -4.657   0.735  0.00  0.00    -0.039 C 
ATOM     34  C   UNL     1       2.175  -5.086   1.123  0.00  0.00    -0.001 A 
ATOM     35  C   UNL     1       3.518  -4.505   1.003  0.00  0.00    +0.010 A 
ATOM     36  H   UNL     1       0.441  -7.596   2.190  0.00  0.00    +0.160 HD
ENDBRANCH  26  33
ENDBRANCH   1  26
TORSDOF 9
