REMARK  Name = ZINC34749626
REMARK  6 active torsions:
REMARK  status: ('A' for Active; 'I' for Inactive)
REMARK    1  A    between atoms: C_1  and  C_2
REMARK    2  A    between atoms: C_2  and  C_4
REMARK    3  A    between atoms: C_4  and  N_5
REMARK    4  A    between atoms: C_15  and  C_18
REMARK    5  A    between atoms: N_26  and  C_27
REMARK    6  A    between atoms: C_27  and  C_28
REMARK                            x       y       z     vdW  Elec       q    Type
REMARK                         _______ _______ _______ _____ _____    ______ ____
ROOT
ATOM      1  N   UNL     1      -3.100  -1.192  -0.676  0.00  0.00    +0.384 N 
ATOM      2  C   UNL     1      -4.221  -1.855  -1.353  0.00  0.00    -0.059 C 
ATOM      3  C   UNL     1      -3.982  -1.844  -2.867  0.00  0.00    +0.089 C 
ATOM      4  N   UNL     1      -3.752  -0.454  -3.292  0.00  0.00    -0.304 N 
ATOM      5  C   UNL     1      -2.755   0.340  -2.556  0.00  0.00    +0.089 C 
ATOM      6  C   UNL     1      -3.053   0.225  -1.058  0.00  0.00    -0.059 C 
ATOM      7  C   UNL     1      -4.447   0.086  -4.344  0.00  0.00    +0.202 A 
ATOM      8  N   UNL     1      -4.968   1.290  -4.229  0.00  0.00    -0.208 NA
ATOM      9  C   UNL     1      -5.646   1.839  -5.231  0.00  0.00    +0.118 A 
ATOM     10  C   UNL     1      -5.841   1.172  -6.452  0.00  0.00    +0.080 A 
ATOM     11  C   UNL     1      -6.608   1.916  -7.446  0.00  0.00    +0.004 A 
ATOM     12  C   UNL     1      -7.059   3.152  -7.129  0.00  0.00    +0.056 A 
ATOM     13  S   UNL     1      -6.475   3.391  -5.462  0.00  0.00    -0.076 S 
ATOM     14  C   UNL     1      -5.266  -0.133  -6.547  0.00  0.00    +0.264 A 
ATOM     15  O   UNL     1      -5.385  -0.787  -7.569  0.00  0.00    -0.267 OA
ATOM     16  N   UNL     1      -4.586  -0.628  -5.497  0.00  0.00    -0.276 N 
ATOM     17  H   UNL     1      -2.236  -1.641  -0.944  0.00  0.00    -0.081 HD
ENDROOT
BRANCH  11  18
ATOM     18  C   UNL     1      -6.888   1.329  -8.778  0.00  0.00    -0.017 A 
ATOM     19  C   UNL     1      -5.852   0.775  -9.530  0.00  0.00    +0.008 A 
ATOM     20  C   UNL     1      -6.118   0.229 -10.769  0.00  0.00    +0.001 A 
ATOM     21  C   UNL     1      -7.409   0.232 -11.266  0.00  0.00    +0.000 A 
ATOM     22  C   UNL     1      -8.441   0.781 -10.525  0.00  0.00    +0.001 A 
ATOM     23  C   UNL     1      -8.188   1.323  -9.282  0.00  0.00    +0.008 A 
ENDBRANCH  11  18
BRANCH   1  24
ATOM     24  C   UNL     1      -3.276  -1.301   0.778  0.00  0.00    -0.048 C 
BRANCH  24  26
ATOM     25  C   UNL     1      -1.875  -3.413   1.400  0.00  0.00    +0.036 C 
ATOM     26  C   UNL     1      -3.211  -2.750   1.186  0.00  0.00    -0.096 C 
ATOM     27  C   UNL     1      -4.316  -3.433   1.354  0.00  0.00    +0.005 C 
ENDBRANCH  24  26
ENDBRANCH   1  24
BRANCH  16  28
ATOM     28  C   UNL     1      -3.989  -1.963  -5.592  0.00  0.00    +0.164 C 
BRANCH  28  29
ATOM     29  C   UNL     1      -2.932  -1.965  -6.665  0.00  0.00    -0.009 A 
ATOM     30  C   UNL     1      -3.231  -2.439  -7.929  0.00  0.00    +0.007 A 
ATOM     31  C   UNL     1      -2.261  -2.441  -8.914  0.00  0.00    +0.000 A 
ATOM     32  C   UNL     1      -0.992  -1.970  -8.636  0.00  0.00    +0.001 A 
ATOM     33  C   UNL     1      -0.691  -1.496  -7.373  0.00  0.00    +0.020 A 
ATOM     34  C   UNL     1      -1.663  -1.488  -6.388  0.00  0.00    +0.046 A 
ATOM     35 CL   UNL     1      -1.289  -0.887  -4.803  0.00  0.00    -0.083 Cl
ENDBRANCH  28  29
ENDBRANCH  16  28
TORSDOF 5
