REMARK  Name = ZINC40138180
REMARK  11 active torsions:
REMARK  status: ('A' for Active; 'I' for Inactive)
REMARK    1  A    between atoms: C_1  and  C_2
REMARK    2  A    between atoms: C_7  and  O_8
REMARK    3  A    between atoms: O_8  and  C_9
REMARK    4  A    between atoms: C_9  and  C_10
REMARK    5  A    between atoms: C_10  and  C_11
REMARK    6  A    between atoms: C_11  and  N_12
REMARK    7  A    between atoms: N_20  and  N_21
REMARK    8  A    between atoms: C_22  and  C_24
REMARK    9  A    between atoms: C_24  and  O_25
REMARK   10  A    between atoms: O_25  and  C_26
REMARK   11  A    between atoms: C_31  and  C_32
REMARK                            x       y       z     vdW  Elec       q    Type
REMARK                         _______ _______ _______ _____ _____    ______ ____
ROOT
ATOM      1  N   UNL     1       0.070   0.146   7.239  0.00  0.00    -0.265 N 
ATOM      2  C   UNL     1       1.219   0.639   7.848  0.00  0.00    +0.046 A 
ATOM      3  C   UNL     1       2.567   0.457   7.562  0.00  0.00    +0.024 A 
ATOM      4  C   UNL     1       3.530   1.070   8.338  0.00  0.00    +0.002 A 
ATOM      5  C   UNL     1       3.168   1.870   9.409  0.00  0.00    +0.001 A 
ATOM      6  C   UNL     1       1.834   2.063   9.708  0.00  0.00    +0.012 A 
ATOM      7  C   UNL     1       0.857   1.450   8.932  0.00  0.00    +0.028 A 
ATOM      8  C   UNL     1      -0.624   1.447   8.980  0.00  0.00    +0.153 C 
ATOM      9  N   UNL     1      -1.396   2.074   9.834  0.00  0.00    -0.174 NA
ATOM     10  C   UNL     1      -1.040   0.589   7.852  0.00  0.00    +0.271 C 
ATOM     11  O   UNL     1      -2.186   0.327   7.537  0.00  0.00    -0.268 OA
ENDROOT
BRANCH   9  12
ATOM     12  N   UNL     1      -2.788   1.960   9.734  0.00  0.00    -0.203 N 
ATOM     13  C   UNL     1      -3.582   2.605  10.612  0.00  0.00    +0.270 C 
ATOM     14  O   UNL     1      -3.091   3.283  11.489  0.00  0.00    -0.270 OA
ATOM     15  H   UNL     1      -3.181   1.418   9.032  0.00  0.00    +0.177 HD
BRANCH  13  16
ATOM     16  C   UNL     1      -5.080   2.483  10.504  0.00  0.00    +0.326 C 
BRANCH  16  17
ATOM     17  O   UNL     1      -5.697   3.252  11.539  0.00  0.00    -0.482 OA
BRANCH  17  18
ATOM     18  C   UNL     1      -7.055   3.249  11.583  0.00  0.00    +0.124 A 
ATOM     19  C   UNL     1      -7.779   2.518  10.653  0.00  0.00    +0.047 A 
ATOM     20  C   UNL     1      -9.160   2.516  10.700  0.00  0.00    +0.023 A 
ATOM     21  C   UNL     1      -9.821   3.245  11.674  0.00  0.00    +0.041 A 
ATOM     22  C   UNL     1      -9.100   3.975  12.602  0.00  0.00    +0.027 A 
ATOM     23  C   UNL     1      -7.719   3.974  12.562  0.00  0.00    -0.007 A 
ATOM     24  C   UNL     1      -6.935   4.764  13.578  0.00  0.00    +0.047 C 
ATOM     25 CL   UNL     1     -11.556   3.242  11.730  0.00  0.00    -0.084 Cl
ENDBRANCH  17  18
ENDBRANCH  16  17
ENDBRANCH  13  16
ENDBRANCH   9  12
BRANCH   1  26
ATOM     26  C   UNL     1       0.071  -0.738   6.071  0.00  0.00    +0.117 C 
BRANCH  26  27
ATOM     27  C   UNL     1       0.047   0.104   4.793  0.00  0.00    +0.060 C 
BRANCH  27  28
ATOM     28  C   UNL     1       0.048  -0.820   3.574  0.00  0.00    +0.230 C 
BRANCH  28  29
ATOM     29  O   UNL     1       0.025  -0.033   2.381  0.00  0.00    -0.492 OA
BRANCH  29  36
ATOM     30  C   UNL     1      -0.018   1.503   0.010  0.00  0.00    +0.047 C 
ATOM     31  C   UNL     1       0.002  -0.004   0.002  0.00  0.00    -0.009 A 
ATOM     32  C   UNL     1       0.006  -0.689  -1.198  0.00  0.00    +0.007 A 
ATOM     33  C   UNL     1       0.024  -2.071  -1.206  0.00  0.00    +0.000 A 
ATOM     34  C   UNL     1       0.039  -2.772  -0.014  0.00  0.00    +0.004 A 
ATOM     35  C   UNL     1       0.036  -2.092   1.188  0.00  0.00    +0.046 A 
ATOM     36  C   UNL     1       0.023  -0.705   1.199  0.00  0.00    +0.123 A 
ENDBRANCH  29  36
ENDBRANCH  28  29
ENDBRANCH  27  28
ENDBRANCH  26  27
ENDBRANCH   1  26
TORSDOF 9
