REMARK  Name = ZINC36396731
REMARK  3 active torsions:
REMARK  status: ('A' for Active; 'I' for Inactive)
REMARK    1  A    between atoms: C_1  and  C_2
REMARK    2  A    between atoms: C_5  and  C_16
REMARK    3  A    between atoms: C_8  and  C_10
REMARK                            x       y       z     vdW  Elec       q    Type
REMARK                         _______ _______ _______ _____ _____    ______ ____
ROOT
ATOM      1  C   UNL     1      -0.018   1.503   0.010  0.00  0.00    +0.111 C 
ATOM      2  C   UNL     1       0.002  -0.004   0.002  0.00  0.00    +0.232 C 
ATOM      3  O   UNL     1       1.061  -0.596  -0.011  0.00  0.00    -0.274 OA
ATOM      4  N   UNL     1      -1.156  -0.694   0.009  0.00  0.00    -0.182 N 
ATOM      5  C   UNL     1      -1.279  -2.160   0.009  0.00  0.00    +0.172 C 
ATOM      6  C   UNL     1      -2.802  -2.395   0.019  0.00  0.00    +0.090 C 
ATOM      7  C   UNL     1      -3.386  -1.000   0.025  0.00  0.00    +0.070 C 
ATOM      8  N   UNL     1      -2.432  -0.135   0.025  0.00  0.00    -0.181 NA
ENDROOT
BRANCH   7   9
ATOM      9  C   UNL     1      -4.826  -0.680   0.034  0.00  0.00    +0.016 A 
ATOM     10  C   UNL     1      -5.259   0.652   0.033  0.00  0.00    +0.013 A 
ATOM     11  C   UNL     1      -6.621   0.898   0.042  0.00  0.00    +0.020 A 
ATOM     12  C   UNL     1      -7.502  -0.169   0.052  0.00  0.00    +0.111 A 
ATOM     13  N   UNL     1      -7.065  -1.414   0.053  0.00  0.00    -0.263 NA
ATOM     14  C   UNL     1      -5.780  -1.700   0.039  0.00  0.00    +0.120 A 
ENDBRANCH   7   9
BRANCH   5  15
ATOM     15  C   UNL     1      -0.640  -2.747   1.241  0.00  0.00    +0.128 A 
ATOM     16  C   UNL     1       0.078  -3.883   1.290  0.00  0.00    +0.046 A 
ATOM     17  C   UNL     1       0.483  -4.054   2.634  0.00  0.00    +0.041 A 
ATOM     18  C   UNL     1      -0.011  -3.012   3.325  0.00  0.00    +0.195 A 
ATOM     19  O   UNL     1      -0.686  -2.220   2.476  0.00  0.00    -0.466 OA
ENDBRANCH   5  15
TORSDOF 2
