REMARK  Name = ZINC40731257
REMARK  5 active torsions:
REMARK  status: ('A' for Active; 'I' for Inactive)
REMARK    1  A    between atoms: C_1  and  C_2
REMARK    2  A    between atoms: C_10  and  N_29
REMARK    3  A    between atoms: C_11  and  N_15
REMARK    4  A    between atoms: N_15  and  N_16
REMARK    5  A    between atoms: C_17  and  C_19
REMARK                            x       y       z     vdW  Elec       q    Type
REMARK                         _______ _______ _______ _____ _____    ______ ____
ROOT
ATOM      1  C   UNL     1       3.738   0.555   0.779  0.00  0.00    +0.009 C 
ATOM      2  C   UNL     1       2.307   0.046   0.959  0.00  0.00    +0.003 C 
ATOM      3  C   UNL     1       1.472   0.423  -0.267  0.00  0.00    +0.006 C 
ATOM      4  C   UNL     1       0.032  -0.057  -0.074  0.00  0.00    +0.019 C 
ATOM      5  C   UNL     1       0.022  -1.583   0.067  0.00  0.00    +0.106 C 
ATOM      6  N   UNL     1       0.936  -1.964   1.152  0.00  0.00    -0.313 N 
ATOM      7  C   UNL     1       2.322  -1.478   1.112  0.00  0.00    +0.109 C 
ATOM      8  C   UNL     1       0.498  -2.768   2.197  0.00  0.00    +0.147 A 
ATOM      9  C   UNL     1       0.503  -4.158   2.073  0.00  0.00    +0.107 A 
ATOM     10  C   UNL     1       0.052  -4.919   3.153  0.00  0.00    +0.161 A 
ATOM     11  N   UNL     1      -0.363  -4.294   4.252  0.00  0.00    -0.217 NA
ATOM     12  C   UNL     1      -0.352  -2.979   4.329  0.00  0.00    +0.225 A 
ATOM     13  N   UNL     1       0.071  -2.224   3.335  0.00  0.00    -0.219 NA
ENDROOT
BRANCH   9  14
ATOM     14  N   UNL     1       0.950  -4.775   0.892  0.00  0.00    -0.353 N 
ATOM     15  H   UNL     1       1.328  -4.239   0.178  0.00  0.00    +0.143 HD
ATOM     16  H   UNL     1       0.880  -5.737   0.791  0.00  0.00    +0.143 HD
ENDBRANCH   9  14
BRANCH  10  17
ATOM     17  N   UNL     1       0.037  -6.307   3.081  0.00  0.00    -0.247 N 
ATOM     18  H   UNL     1       0.341  -6.754   2.276  0.00  0.00    +0.172 HD
BRANCH  17  19
ATOM     19  N   UNL     1      -0.418  -7.059   4.171  0.00  0.00    -0.231 N 
ATOM     20  C   UNL     1      -0.433  -8.405   4.102  0.00  0.00    +0.261 C 
ATOM     21  O   UNL     1      -0.052  -8.966   3.092  0.00  0.00    -0.269 OA
ATOM     22  H   UNL     1      -0.722  -6.612   4.977  0.00  0.00    +0.173 HD
BRANCH  20  23
ATOM     23  C   UNL     1      -0.912  -9.198   5.250  0.00  0.00    +0.046 A 
ATOM     24  C   UNL     1      -1.463  -8.568   6.356  0.00  0.00    +0.014 A 
ATOM     25  C   UNL     1      -1.915  -9.309   7.440  0.00  0.00    +0.001 A 
ATOM     26  C   UNL     1      -1.831 -10.669   7.450  0.00  0.00    +0.008 A 
ATOM     27  C   UNL     1      -1.280 -11.349   6.350  0.00  0.00    -0.017 A 
ATOM     28  C   UNL     1      -0.819 -10.612   5.233  0.00  0.00    -0.006 A 
ATOM     29  C   UNL     1      -0.275 -11.292   4.135  0.00  0.00    +0.009 A 
ATOM     30  C   UNL     1      -0.201 -12.652   4.153  0.00  0.00    +0.001 A 
ATOM     31  C   UNL     1      -0.660 -13.380   5.248  0.00  0.00    +0.001 A 
ATOM     32  C   UNL     1      -1.183 -12.752   6.337  0.00  0.00    +0.008 A 
ENDBRANCH  20  23
ENDBRANCH  17  19
ENDBRANCH  10  17
TORSDOF 4
