REMARK  Name = ZINC29468215
REMARK  16 active torsions:
REMARK  status: ('A' for Active; 'I' for Inactive)
REMARK    1  A    between atoms: C_1  and  C_2
REMARK    2  A    between atoms: C_2  and  C_3
REMARK    3  A    between atoms: C_4  and  C_34
REMARK    4  A    between atoms: C_6  and  C_8
REMARK    5  A    between atoms: C_8  and  C_9
REMARK    6  A    between atoms: C_9  and  C_10
REMARK    7  A    between atoms: C_12  and  O_32
REMARK    8  A    between atoms: C_14  and  N_16
REMARK    9  A    between atoms: N_16  and  C_17
REMARK   10  A    between atoms: C_17  and  C_18
REMARK   11  A    between atoms: C_20  and  N_25
REMARK   12  A    between atoms: C_26  and  O_28
REMARK   13  A    between atoms: O_28  and  C_29
REMARK   14  A    between atoms: C_29  and  C_30
REMARK   15  A    between atoms: C_29  and  C_31
REMARK   16  A    between atoms: O_32  and  C_33
REMARK                            x       y       z     vdW  Elec       q    Type
REMARK                         _______ _______ _______ _____ _____    ______ ____
ROOT
ATOM      1  C   UNL     1      -2.130   9.408   2.879  0.00  0.00    +0.021 A 
ATOM      2  C   UNL     1      -2.192  10.298   1.828  0.00  0.00    +0.067 A 
ATOM      3  C   UNL     1      -2.288   9.809   0.526  0.00  0.00    +0.125 A 
ATOM      4  C   UNL     1      -2.318   8.433   0.337  0.00  0.00    +0.087 A 
ATOM      5  C   UNL     1      -2.251   7.599   1.446  0.00  0.00    +0.100 A 
ATOM      6  N   UNL     1      -2.165   8.105   2.667  0.00  0.00    -0.347 N 
ATOM      7  H   UNL     1      -2.123   7.408   3.518  0.00  0.00    +0.167 HD
ENDROOT
BRANCH   5   8
ATOM      8  N   UNL     1      -2.281   6.220   1.273  0.00  0.00    -0.326 N 
ATOM      9  H   UNL     1      -2.228   5.554   2.147  0.00  0.00    +0.148 HD
BRANCH   8  10
ATOM     10  C   UNL     1      -2.382   5.653  -0.074  0.00  0.00    +0.138 C 
BRANCH  10  11
ATOM     11  C   UNL     1      -2.395   4.148   0.013  0.00  0.00    -0.027 A 
ATOM     12  C   UNL     1      -1.206   3.445  -0.024  0.00  0.00    +0.028 A 
ATOM     13  C   UNL     1      -1.218   2.059   0.052  0.00  0.00    +0.038 A 
ATOM     14  C   UNL     1      -2.425   1.383   0.176  0.00  0.00    +0.043 A 
ATOM     15  C   UNL     1      -3.611   2.092   0.218  0.00  0.00    +0.043 A 
ATOM     16  C   UNL     1      -3.595   3.474   0.137  0.00  0.00    +0.025 A 
ATOM     17 CL   UNL     1      -5.121   1.250   0.373  0.00  0.00    -0.083 Cl
BRANCH  13  18
ATOM     18  N   UNL     1      -0.016   1.344   0.009  0.00  0.00    -0.251 N 
ATOM     19  C   UNL     1       0.032   0.141  -0.597  0.00  0.00    +0.405 C 
ATOM     20  O   UNL     1      -0.987  -0.363  -1.029  0.00  0.00    -0.226 OA
ATOM     21  H   UNL     1       0.890   1.763   0.471  0.00  0.00    +0.158 HD
BRANCH  19  22
ATOM     22  O   UNL     1       1.208  -0.502  -0.725  0.00  0.00    -0.447 OA
BRANCH  22  23
ATOM     23  C   UNL     1       1.184  -1.793  -1.389  0.00  0.00    +0.172 C 
ATOM     24  C   UNL     1       1.393  -1.598  -2.892  0.00  0.00    +0.052 C 
ATOM     25  C   UNL     1       2.302  -2.675  -0.830  0.00  0.00    +0.052 C 
ENDBRANCH  22  23
ENDBRANCH  19  22
ENDBRANCH  13  18
ENDBRANCH  10  11
ENDBRANCH   8  10
ENDBRANCH   5   8
BRANCH   3  26
ATOM     26  O   UNL     1      -2.352  10.657  -0.532  0.00  0.00    -0.495 OA
ATOM     27  C   UNL     1      -2.450  10.069  -1.830  0.00  0.00    +0.277 C 
ENDBRANCH   3  26
BRANCH   1  28
ATOM     28  C   UNL     1      -2.025   9.929   4.289  0.00  0.00    +0.060 C 
BRANCH  28  29
ATOM     29  C   UNL     1      -3.158   9.343   5.135  0.00  0.00    +0.069 C 
BRANCH  29  33
ATOM     30  C   UNL     1      -2.629  10.445   9.093  0.00  0.00    +0.012 A 
ATOM     31  C   UNL     1      -3.401  11.261   8.331  0.00  0.00    +0.049 A 
ATOM     32  N   UNL     1      -3.587  10.945   7.066  0.00  0.00    -0.249 NA
ATOM     33  C   UNL     1      -3.054   9.864   6.545  0.00  0.00    +0.079 A 
ATOM     34  S   UNL     1      -2.191   9.194   7.895  0.00  0.00    -0.077 S 
ATOM     35  C   UNL     1      -4.025  12.501   8.917  0.00  0.00    +0.066 C 
BRANCH  30  37
ATOM     36  C   UNL     1      -3.287   9.840  11.406  0.00  0.00    +0.009 C 
ATOM     37  C   UNL     1      -2.247  10.562  10.546  0.00  0.00    +0.041 C 
ENDBRANCH  30  37
ENDBRANCH  29  33
ENDBRANCH  28  29
ENDBRANCH   1  28
TORSDOF 11
