REMARK  Name = ZINC37288097
REMARK  3 active torsions:
REMARK  status: ('A' for Active; 'I' for Inactive)
REMARK    1  A    between atoms: C_6  and  C_7
REMARK    2  A    between atoms: C_8  and  C_13
REMARK    3  A    between atoms: C_11  and  N_12
REMARK                            x       y       z     vdW  Elec       q    Type
REMARK                         _______ _______ _______ _____ _____    ______ ____
ROOT
ATOM      1  C   UNL     1      -1.270  -0.765   0.010  0.00  0.00    +0.071 A 
ATOM      2  C   UNL     1      -1.758  -1.641   1.077  0.00  0.00    +0.124 A 
ATOM      3  N   UNL     1      -2.917  -2.116   0.688  0.00  0.00    -0.075 NA
ATOM      4  O   UNL     1      -3.219  -1.594  -0.591  0.00  0.00    -0.339 OA
ATOM      5  C   UNL     1      -2.227  -0.780  -0.984  0.00  0.00    +0.224 A 
ENDROOT
BRANCH   2   6
ATOM      6  C   UNL     1      -1.070  -1.936   2.358  0.00  0.00    +0.024 A 
ATOM      7  C   UNL     1       0.162  -1.351   2.641  0.00  0.00    +0.027 A 
ATOM      8  C   UNL     1       0.797  -1.629   3.835  0.00  0.00    +0.019 A 
ATOM      9  C   UNL     1       0.212  -2.486   4.751  0.00  0.00    +0.017 A 
ATOM     10  C   UNL     1      -1.011  -3.070   4.476  0.00  0.00    +0.022 A 
ATOM     11  C   UNL     1      -1.658  -2.795   3.286  0.00  0.00    +0.050 A 
ATOM     12 CL   UNL     1      -3.197  -3.522   2.945  0.00  0.00    -0.083 Cl
ATOM     13 BR   UNL     1       2.471  -0.837   4.221  0.00  0.00    -0.050 Br
ENDBRANCH   2   6
BRANCH   1  19
ATOM     14  C   UNL     1      -0.017   1.390   0.010  0.00  0.00    +0.011 A 
ATOM     15  C   UNL     1       1.170   2.094   0.002  0.00  0.00    +0.039 A 
ATOM     16  C   UNL     1       2.379   1.418  -0.013  0.00  0.00    +0.123 A 
ATOM     17  C   UNL     1       2.403   0.033  -0.022  0.00  0.00    +0.039 A 
ATOM     18  C   UNL     1       1.222  -0.680  -0.014  0.00  0.00    +0.011 A 
ATOM     19  C   UNL     1       0.002  -0.004   0.002  0.00  0.00    -0.011 A 
ATOM     20  F   UNL     1       3.538   2.111  -0.021  0.00  0.00    -0.205 F 
ENDBRANCH   1  19
BRANCH   5  21
ATOM     21  N   UNL     1      -2.172  -0.085  -2.174  0.00  0.00    -0.327 N 
ATOM     22  H   UNL     1      -1.409   0.480  -2.372  0.00  0.00    +0.145 HD
ATOM     23  H   UNL     1      -2.898  -0.160  -2.814  0.00  0.00    +0.145 HD
ENDBRANCH   5  21
TORSDOF 3
