REMARK  Name = ZINC20003829
REMARK  11 active torsions:
REMARK  status: ('A' for Active; 'I' for Inactive)
REMARK    1  A    between atoms: C_1  and  C_2
REMARK    2  A    between atoms: C_2  and  C_4
REMARK    3  A    between atoms: C_2  and  S_16
REMARK    4  A    between atoms: S_16  and  C_17
REMARK    5  A    between atoms: C_20  and  C_28
REMARK    6  A    between atoms: N_21  and  C_22
REMARK    7  A    between atoms: C_28  and  C_30
REMARK    8  A    between atoms: C_28  and  O_31
REMARK    9  A    between atoms: O_31  and  C_32
REMARK   10  A    between atoms: C_36  and  O_38
REMARK   11  A    between atoms: O_38  and  C_39
REMARK                            x       y       z     vdW  Elec       q    Type
REMARK                         _______ _______ _______ _____ _____    ______ ____
ROOT
ATOM      1  C   UNL     1       3.672   1.858   0.216  0.00  0.00    +0.197 A 
ATOM      2  N   UNL     1       3.066   3.015   0.349  0.00  0.00    -0.122 NA
ATOM      3  N   UNL     1       1.792   2.846   0.338  0.00  0.00    -0.129 NA
ATOM      4  C   UNL     1       1.508   1.581   0.207  0.00  0.00    +0.179 A 
ATOM      5  N   UNL     1       2.696   0.904   0.121  0.00  0.00    -0.271 N 
ENDROOT
BRANCH   5   6
ATOM      6  C   UNL     1       2.874  -0.478  -0.032  0.00  0.00    +0.050 A 
ATOM      7  C   UNL     1       2.475  -1.346   0.975  0.00  0.00    +0.026 A 
ATOM      8  C   UNL     1       2.647  -2.708   0.819  0.00  0.00    +0.002 A 
ATOM      9  C   UNL     1       3.226  -3.206  -0.333  0.00  0.00    +0.000 A 
ATOM     10  C   UNL     1       3.629  -2.343  -1.336  0.00  0.00    +0.002 A 
ATOM     11  C   UNL     1       3.455  -0.981  -1.188  0.00  0.00    +0.026 A 
ENDBRANCH   5   6
BRANCH   4  12
ATOM     12  C   UNL     1       0.129   0.976   0.154  0.00  0.00    +0.238 C 
ATOM     13  C   UNL     1      -0.502   1.263  -1.210  0.00  0.00    +0.060 C 
BRANCH  12  14
ATOM     14  O   UNL     1      -0.682   1.547   1.184  0.00  0.00    -0.481 OA
BRANCH  14  15
ATOM     15  C   UNL     1      -1.725   0.800   1.633  0.00  0.00    +0.125 A 
ATOM     16  C   UNL     1      -2.484   1.243   2.707  0.00  0.00    +0.046 A 
ATOM     17  C   UNL     1      -3.546   0.486   3.163  0.00  0.00    +0.007 A 
ATOM     18  C   UNL     1      -3.854  -0.715   2.551  0.00  0.00    +0.046 A 
ATOM     19  C   UNL     1      -3.098  -1.162   1.477  0.00  0.00    +0.124 A 
ATOM     20  C   UNL     1      -2.035  -0.401   1.014  0.00  0.00    +0.091 A 
BRANCH  19  21
ATOM     21  O   UNL     1      -3.402  -2.342   0.876  0.00  0.00    -0.495 OA
ATOM     22  C   UNL     1      -4.513  -3.070   1.401  0.00  0.00    +0.277 C 
ENDBRANCH  19  21
ENDBRANCH  14  15
ENDBRANCH  12  14
ENDBRANCH   4  12
BRANCH   1  23
ATOM     23  S   UNL     1       5.412   1.586   0.168  0.00  0.00    -0.075 S 
BRANCH  23  25
ATOM     24  C   UNL     1       5.605   3.821   1.726  0.00  0.00    +0.027 C 
ATOM     25  C   UNL     1       6.001   3.288   0.348  0.00  0.00    +0.117 C 
BRANCH  25  26
ATOM     26  C   UNL     1       7.502   3.317   0.211  0.00  0.00    +0.124 A 
ATOM     27  N   UNL     1       8.073   4.391  -0.393  0.00  0.00    -0.309 N 
ATOM     28  H   UNL     1       7.443   5.209  -0.772  0.00  0.00    +0.170 HD
ATOM     29  C   UNL     1       9.417   4.467  -0.537  0.00  0.00    +0.259 A 
ATOM     30  O   UNL     1       9.942   5.425  -1.073  0.00  0.00    -0.267 OA
ATOM     31  C   UNL     1      10.217   3.344  -0.025  0.00  0.00    +0.065 A 
ATOM     32  C   UNL     1      11.606   3.322  -0.127  0.00  0.00    +0.015 A 
ATOM     33  C   UNL     1      12.306   2.244   0.369  0.00  0.00    +0.001 A 
ATOM     34  C   UNL     1      11.639   1.184   0.969  0.00  0.00    +0.002 A 
ATOM     35  C   UNL     1      10.267   1.187   1.080  0.00  0.00    +0.028 A 
ATOM     36  C   UNL     1       9.535   2.268   0.585  0.00  0.00    +0.078 A 
ATOM     37  N   UNL     1       8.182   2.311   0.673  0.00  0.00    -0.233 NA
ENDBRANCH  25  26
ENDBRANCH  23  25
ENDBRANCH   1  23
TORSDOF 8
