REMARK  Name = ZINC29168702
REMARK  9 active torsions:
REMARK  status: ('A' for Active; 'I' for Inactive)
REMARK    1  A    between atoms: C_1  and  C_2
REMARK    2  A    between atoms: C_5  and  C_8
REMARK    3  A    between atoms: C_8  and  C_9
REMARK    4  A    between atoms: C_9  and  C_10
REMARK    5  A    between atoms: N_13  and  C_16
REMARK    6  A    between atoms: C_16  and  C_17
REMARK    7  A    between atoms: N_19  and  C_20
REMARK    8  A    between atoms: C_22  and  C_33
REMARK    9  A    between atoms: N_24  and  C_25
REMARK                            x       y       z     vdW  Elec       q    Type
REMARK                         _______ _______ _______ _____ _____    ______ ____
ROOT
ATOM      1  C   UNL     1      -0.145   1.005  -2.408  0.00  0.00    +0.019 C 
ENDROOT
BRANCH   1   5
ATOM      2  C   UNL     1      -0.764   3.110   1.262  0.00  0.00    -0.014 C 
ATOM      3  C   UNL     1      -0.729   1.579   1.267  0.00  0.00    -0.015 C 
ATOM      4  C   UNL     1      -0.013   1.086   0.008  0.00  0.00    -0.078 C 
ATOM      5  N   UNL     1      -0.723   1.572  -1.182  0.00  0.00    +0.385 N 
ATOM      6  C   UNL     1      -0.729   3.040  -1.234  0.00  0.00    -0.078 C 
ATOM      7  C   UNL     1      -1.466   3.591  -0.011  0.00  0.00    -0.015 C 
ATOM      8  H   UNL     1      -1.767   1.235  -1.111  0.00  0.00    -0.081 HD
BRANCH   2   9
ATOM      9  C   UNL     1      -1.531   3.609   2.488  0.00  0.00    +0.008 C 
BRANCH   9  10
ATOM     10  C   UNL     1      -0.763   3.235   3.757  0.00  0.00    +0.035 C 
BRANCH  10  15
ATOM     11  C   UNL     1      -3.659   5.121   8.389  0.00  0.00    +0.044 C 
ATOM     12  C   UNL     1      -2.903   4.629   7.181  0.00  0.00    -0.050 A 
ATOM     13  C   UNL     1      -3.150   3.365   6.679  0.00  0.00    +0.003 A 
ATOM     14  C   UNL     1      -2.457   2.913   5.571  0.00  0.00    +0.004 A 
ATOM     15  C   UNL     1      -1.518   3.727   4.965  0.00  0.00    -0.047 A 
ATOM     16  C   UNL     1      -1.267   4.989   5.470  0.00  0.00    +0.004 A 
ATOM     17  C   UNL     1      -1.963   5.441   6.576  0.00  0.00    +0.003 A 
ENDBRANCH  10  15
ENDBRANCH   9  10
ENDBRANCH   2   9
ENDBRANCH   1   5
BRANCH   1  18
ATOM     18  C   UNL     1      -1.039   1.323  -3.578  0.00  0.00    +0.202 C 
ATOM     19  O   UNL     1      -2.057   1.961  -3.408  0.00  0.00    -0.278 OA
ATOM     20  N   UNL     1      -0.708   0.901  -4.814  0.00  0.00    -0.272 N 
ATOM     21  H   UNL     1       0.215   0.323  -4.969  0.00  0.00    +0.156 HD
BRANCH  20  22
ATOM     22  C   UNL     1      -1.535   1.196  -5.898  0.00  0.00    +0.124 A 
ATOM     23  C   UNL     1      -2.700   1.899  -5.852  0.00  0.00    +0.068 A 
ATOM     24  C   UNL     1      -3.210   1.966  -7.152  0.00  0.00    +0.062 A 
ATOM     25  N   UNL     1      -2.389   1.332  -7.949  0.00  0.00    -0.175 NA
ATOM     26  N   UNL     1      -1.323   0.841  -7.186  0.00  0.00    -0.246 N 
ATOM     27  C   UNL     1      -4.487   2.652  -7.564  0.00  0.00    +0.067 C 
BRANCH  26  28
ATOM     28  C   UNL     1      -0.180   0.075  -7.692  0.00  0.00    +0.132 C 
ATOM     29  C   UNL     1       0.566   0.898  -8.755  0.00  0.00    +0.051 C 
ATOM     30  C   UNL     1       1.564  -0.006  -9.518  0.00  0.00    +0.168 C 
ATOM     31  S   UNL     1       0.777  -1.664  -9.400  0.00  0.00    -0.029 S 
ATOM     32  O   UNL     1       1.631  -2.531  -8.666  0.00  0.00    -0.174 OA
ATOM     33  O   UNL     1       0.326  -2.055 -10.690  0.00  0.00    -0.174 OA
ATOM     34  C   UNL     1      -0.682  -1.237  -8.359  0.00  0.00    +0.192 C 
ENDBRANCH  26  28
ENDBRANCH  20  22
ENDBRANCH   1  18
TORSDOF 7
