REMARK  Name = ZINC01103148
REMARK  4 active torsions:
REMARK  status: ('A' for Active; 'I' for Inactive)
REMARK    1  A    between atoms: C_1  and  C_2
REMARK    2  A    between atoms: C_10  and  C_15
REMARK    3  A    between atoms: C_18  and  N_20
REMARK    4  A    between atoms: N_20  and  C_21
REMARK                            x       y       z     vdW  Elec       q    Type
REMARK                         _______ _______ _______ _____ _____    ______ ____
ROOT
ATOM      1  C   UNL     1      -0.059   1.431   0.684  0.00  0.00    +0.063 C 
ATOM      2  C   UNL     1      -0.032  -0.069   0.549  0.00  0.00    +0.037 C 
ATOM      3  C   UNL     1      -1.223  -0.759   0.400  0.00  0.00    +0.040 C 
ATOM      4  C   UNL     1      -1.207  -2.247   0.154  0.00  0.00    +0.019 C 
ATOM      5  C   UNL     1      -1.096  -2.514  -1.348  0.00  0.00    +0.013 C 
ATOM      6  C   UNL     1      -1.078  -4.023  -1.598  0.00  0.00    +0.001 C 
ATOM      7  C   UNL     1      -2.371  -4.643  -1.065  0.00  0.00    +0.000 C 
ATOM      8  C   UNL     1      -2.484  -4.375   0.438  0.00  0.00    +0.001 C 
ATOM      9  C   UNL     1      -2.501  -2.866   0.687  0.00  0.00    +0.013 C 
ATOM     10  C   UNL     1      -0.009  -2.870   0.873  0.00  0.00    +0.139 C 
ATOM     11  C   UNL     1       1.214  -2.018   0.665  0.00  0.00    +0.087 C 
ATOM     12  N   UNL     1       1.128  -0.699   0.570  0.00  0.00    -0.215 NA
ATOM     13  S   UNL     1       2.748  -2.768   0.542  0.00  0.00    -0.037 S 
ATOM     14  C   UNL     1      -2.428  -0.084   0.476  0.00  0.00    +0.246 C 
ATOM     15  O   UNL     1      -3.587  -0.772   0.481  0.00  0.00    -0.270 OA
ENDROOT
BRANCH  10  16
ATOM     16  C   UNL     1      -0.305  -2.966   2.347  0.00  0.00    +0.221 C 
ATOM     17  O   UNL     1      -0.623  -1.974   2.968  0.00  0.00    -0.275 OA
ATOM     18  N   UNL     1      -0.216  -4.154   2.976  0.00  0.00    -0.329 N 
ATOM     19  H   UNL     1       0.038  -4.948   2.480  0.00  0.00    +0.145 HD
ATOM     20  H   UNL     1      -0.406  -4.216   3.925  0.00  0.00    +0.145 HD
ENDBRANCH  10  16
BRANCH  14  21
ATOM     21  N   UNL     1      -2.443   1.280   0.546  0.00  0.00    -0.282 N 
ATOM     22  H   UNL     1      -2.039   1.807  -0.162  0.00  0.00    +0.155 HD
BRANCH  21  23
ATOM     23  C   UNL     1      -3.040   1.917   1.637  0.00  0.00    +0.034 A 
ATOM     24  C   UNL     1      -3.503   1.169   2.712  0.00  0.00    +0.023 A 
ATOM     25  C   UNL     1      -4.092   1.802   3.789  0.00  0.00    +0.002 A 
ATOM     26  C   UNL     1      -4.222   3.178   3.799  0.00  0.00    +0.000 A 
ATOM     27  C   UNL     1      -3.763   3.926   2.730  0.00  0.00    +0.002 A 
ATOM     28  C   UNL     1      -3.167   3.300   1.652  0.00  0.00    +0.023 A 
ENDBRANCH  21  23
ENDBRANCH  14  21
TORSDOF 3
