REMARK  Name = ZINC15135359
REMARK  12 active torsions:
REMARK  status: ('A' for Active; 'I' for Inactive)
REMARK    1  A    between atoms: C_1  and  C_2
REMARK    2  A    between atoms: C_2  and  C_3
REMARK    3  A    between atoms: C_2  and  C_4
REMARK    4  A    between atoms: C_2  and  C_5
REMARK    5  A    between atoms: C_5  and  C_7
REMARK    6  A    between atoms: C_5  and  N_22
REMARK    7  A    between atoms: C_7  and  N_9
REMARK    8  A    between atoms: C_7  and  O_14
REMARK    9  A    between atoms: O_14  and  C_15
REMARK   10  A    between atoms: C_23  and  C_27
REMARK   11  A    between atoms: C_27  and  C_29
REMARK   12  A    between atoms: C_27  and  N_70
REMARK                            x       y       z     vdW  Elec       q    Type
REMARK                         _______ _______ _______ _____ _____    ______ ____
ROOT
ATOM      1  C   UNL     1       1.340  -2.002  -0.178  0.00  0.00    +0.179 C 
ENDROOT
BRANCH   1   2
ATOM      2  N   UNL     1       0.835  -0.701  -0.622  0.00  0.00    -0.221 N 
ATOM      3  C   UNL     1      -0.394  -0.444  -1.108  0.00  0.00    +0.143 A 
ATOM      4  N   UNL     1      -0.429   0.838  -1.383  0.00  0.00    -0.115 NA
ATOM      5  N   UNL     1       0.718   1.341  -1.081  0.00  0.00    -0.023 NA
ATOM      6  N   UNL     1       1.484   0.414  -0.621  0.00  0.00    -0.043 NA
BRANCH   3   7
ATOM      7  C   UNL     1      -1.512  -1.436  -1.298  0.00  0.00    +0.033 C 
BRANCH   7  13
ATOM      8  C   UNL     1      -2.637  -0.438   0.599  0.00  0.00    -0.077 C 
ATOM      9  C   UNL     1      -3.911   0.288   1.037  0.00  0.00    -0.019 C 
ATOM     10  C   UNL     1      -5.109  -0.653   0.877  0.00  0.00    -0.004 C 
ATOM     11  C   UNL     1      -5.194  -1.114  -0.580  0.00  0.00    -0.019 C 
ATOM     12  C   UNL     1      -3.883  -1.799  -0.971  0.00  0.00    -0.077 C 
ATOM     13  N   UNL     1      -2.773  -0.834  -0.819  0.00  0.00    +0.389 N 
ATOM     14  H   UNL     1      -2.979   0.001  -1.379  0.00  0.00    -0.080 HD
ENDBRANCH   7  13
BRANCH   7  15
ATOM     15  C   UNL     1      -1.653  -1.759  -2.763  0.00  0.00    -0.054 A 
ATOM     16  C   UNL     1      -2.331  -0.894  -3.600  0.00  0.00    +0.002 A 
ATOM     17  C   UNL     1      -2.456  -1.189  -4.945  0.00  0.00    +0.000 A 
ATOM     18  C   UNL     1      -1.910  -2.353  -5.451  0.00  0.00    +0.000 A 
ATOM     19  C   UNL     1      -1.236  -3.222  -4.613  0.00  0.00    +0.000 A 
ATOM     20  C   UNL     1      -1.107  -2.925  -3.269  0.00  0.00    +0.002 A 
ENDBRANCH   7  15
ENDBRANCH   3   7
ENDBRANCH   1   2
BRANCH   1  22
ATOM     21  C   UNL     1       3.706  -1.421  -0.729  0.00  0.00    +0.013 C 
ATOM     22  C   UNL     1       2.559  -2.390  -1.018  0.00  0.00    -0.010 C 
ATOM     23  C   UNL     1       2.992  -3.814  -0.662  0.00  0.00    +0.013 C 
ATOM     24  C   UNL     1       2.196  -2.324  -2.503  0.00  0.00    +0.013 C 
ENDBRANCH   1  22
BRANCH   1  25
ATOM     25  C   UNL     1       1.742  -1.917   1.296  0.00  0.00    +0.319 C 
BRANCH  25  26
ATOM     26  N   UNL     1       0.615  -1.410   2.081  0.00  0.00    -0.211 N 
ATOM     27  C   UNL     1       0.051  -1.995   3.152  0.00  0.00    +0.223 A 
ATOM     28  N   UNL     1      -0.924  -1.228   3.567  0.00  0.00    -0.223 NA
ATOM     29  C   UNL     1      -1.012  -0.149   2.791  0.00  0.00    +0.245 A 
ATOM     30  N   UNL     1      -0.087  -0.212   1.869  0.00  0.00    -0.155 NA
ENDBRANCH  25  26
BRANCH  25  31
ATOM     31  O   UNL     1       2.104  -3.217   1.766  0.00  0.00    -0.465 OA
BRANCH  31  32
ATOM     32  C   UNL     1       2.909  -3.276   2.860  0.00  0.00    +0.124 A 
ATOM     33  C   UNL     1       3.289  -4.505   3.378  0.00  0.00    +0.047 A 
ATOM     34  C   UNL     1       4.112  -4.563   4.486  0.00  0.00    +0.023 A 
ATOM     35  C   UNL     1       4.548  -3.395   5.086  0.00  0.00    +0.041 A 
ATOM     36  C   UNL     1       4.166  -2.167   4.574  0.00  0.00    +0.023 A 
ATOM     37  C   UNL     1       3.348  -2.106   3.463  0.00  0.00    +0.047 A 
ATOM     38 CL   UNL     1       5.577  -3.469   6.482  0.00  0.00    -0.084 Cl
ENDBRANCH  31  32
ENDBRANCH  25  31
ENDBRANCH   1  25
TORSDOF 9
