REMARK  Name = ZINC34749101
REMARK  7 active torsions:
REMARK  status: ('A' for Active; 'I' for Inactive)
REMARK    1  A    between atoms: C_1  and  C_2
REMARK    2  A    between atoms: C_2  and  C_3
REMARK    3  A    between atoms: C_4  and  C_34
REMARK    4  A    between atoms: N_10  and  C_26
REMARK    5  A    between atoms: N_16  and  C_19
REMARK    6  A    between atoms: C_19  and  C_20
REMARK    7  A    between atoms: C_26  and  C_27
REMARK                            x       y       z     vdW  Elec       q    Type
REMARK                         _______ _______ _______ _____ _____    ______ ____
ROOT
ATOM      1  C   UNL     1      -1.437  -0.204  -0.053  0.00  0.00    -0.023 A 
ATOM      2  C   UNL     1      -2.146  -0.056   1.076  0.00  0.00    -0.007 A 
ATOM      3  S   UNL     1      -3.800  -0.510   0.588  0.00  0.00    -0.073 S 
ATOM      4  C   UNL     1      -3.490  -0.886  -1.119  0.00  0.00    +0.117 A 
ATOM      5  C   UNL     1      -2.111  -0.642  -1.263  0.00  0.00    +0.076 A 
ATOM      6  C   UNL     1      -1.573  -0.864  -2.570  0.00  0.00    +0.264 A 
ATOM      7  O   UNL     1      -0.388  -0.684  -2.788  0.00  0.00    -0.267 OA
ATOM      8  N   UNL     1      -2.394  -1.275  -3.554  0.00  0.00    -0.276 N 
ATOM      9  C   UNL     1      -3.722  -1.482  -3.328  0.00  0.00    +0.202 A 
ATOM     10  N   UNL     1      -4.242  -1.296  -2.133  0.00  0.00    -0.208 NA
ATOM     11  N   UNL     1      -4.527  -1.901  -4.359  0.00  0.00    -0.304 N 
ATOM     12  C   UNL     1      -4.511  -1.212  -5.659  0.00  0.00    +0.089 C 
ATOM     13  C   UNL     1      -5.955  -0.888  -6.055  0.00  0.00    -0.059 C 
ATOM     14  N   UNL     1      -6.757  -2.118  -6.030  0.00  0.00    +0.384 N 
ATOM     15  C   UNL     1      -6.830  -2.639  -4.659  0.00  0.00    -0.059 C 
ATOM     16  C   UNL     1      -5.426  -3.054  -4.196  0.00  0.00    +0.089 C 
ATOM     17  C   UNL     1      -1.662   0.388   2.432  0.00  0.00    +0.052 C 
ATOM     18  H   UNL     1      -6.329  -2.808  -6.628  0.00  0.00    -0.081 HD
ENDROOT
BRANCH   1  20
ATOM     19  C   UNL     1       0.269   1.558  -0.417  0.00  0.00    +0.009 C 
ATOM     20  C   UNL     1       0.042   0.086  -0.067  0.00  0.00    +0.033 C 
ENDBRANCH   1  20
BRANCH  14  21
ATOM     21  C   UNL     1      -8.112  -1.826  -6.514  0.00  0.00    -0.043 C 
BRANCH  21  22
ATOM     22  C   UNL     1      -8.900  -3.108  -6.606  0.00  0.00    -0.064 A 
ATOM     23  C   UNL     1      -8.884  -3.846  -7.775  0.00  0.00    +0.002 A 
ATOM     24  C   UNL     1      -9.606  -5.022  -7.859  0.00  0.00    +0.000 A 
ATOM     25  C   UNL     1     -10.343  -5.460  -6.774  0.00  0.00    +0.000 A 
ATOM     26  C   UNL     1     -10.358  -4.722  -5.605  0.00  0.00    +0.000 A 
ATOM     27  C   UNL     1      -9.632  -3.548  -5.520  0.00  0.00    +0.002 A 
ENDBRANCH  21  22
ENDBRANCH  14  21
BRANCH   8  28
ATOM     28  C   UNL     1      -1.849  -1.504  -4.895  0.00  0.00    +0.163 C 
BRANCH  28  29
ATOM     29  C   UNL     1      -1.421  -2.943  -5.024  0.00  0.00    -0.027 A 
ATOM     30  C   UNL     1      -0.172  -3.335  -4.580  0.00  0.00    +0.007 A 
ATOM     31  C   UNL     1       0.221  -4.655  -4.699  0.00  0.00    +0.020 A 
ATOM     32  C   UNL     1      -0.636  -5.583  -5.261  0.00  0.00    +0.041 A 
ATOM     33  C   UNL     1      -1.886  -5.191  -5.706  0.00  0.00    +0.020 A 
ATOM     34  C   UNL     1      -2.280  -3.872  -5.582  0.00  0.00    +0.007 A 
ATOM     35 CL   UNL     1      -0.143  -7.241  -5.411  0.00  0.00    -0.084 Cl
ENDBRANCH  28  29
ENDBRANCH   8  28
TORSDOF 5
