REMARK  Name = ZINC35576997
REMARK  5 active torsions:
REMARK  status: ('A' for Active; 'I' for Inactive)
REMARK    1  A    between atoms: C_5  and  C_7
REMARK    2  A    between atoms: C_7  and  N_8
REMARK    3  A    between atoms: C_11  and  C_26
REMARK    4  A    between atoms: C_13  and  N_25
REMARK    5  A    between atoms: N_14  and  C_18
REMARK                            x       y       z     vdW  Elec       q    Type
REMARK                         _______ _______ _______ _____ _____    ______ ____
ROOT
ATOM      1  N   UNL     1       0.549  -2.750  -1.417  0.00  0.00    -0.308 N 
ATOM      2  C   UNL     1       0.920  -4.057  -1.676  0.00  0.00    +0.218 A 
ATOM      3  N   UNL     1       0.991  -4.450  -2.944  0.00  0.00    -0.214 NA
ATOM      4  C   UNL     1       1.339  -5.686  -3.281  0.00  0.00    +0.089 A 
ATOM      5  C   UNL     1       1.641  -6.601  -2.248  0.00  0.00    +0.086 A 
ATOM      6  C   UNL     1       2.031  -7.934  -2.182  0.00  0.00    +0.131 A 
ATOM      7  N   UNL     1       2.169  -8.251  -0.879  0.00  0.00    -0.216 N 
ATOM      8  N   UNL     1       1.873  -7.138  -0.084  0.00  0.00    -0.144 NA
ATOM      9  C   UNL     1       1.551  -6.123  -0.857  0.00  0.00    +0.189 A 
ATOM     10  N   UNL     1       1.190  -4.842  -0.653  0.00  0.00    -0.193 NA
ATOM     11  H   UNL     1       0.344  -2.149  -2.151  0.00  0.00    +0.149 HD
ENDROOT
BRANCH   7  12
ATOM     12  C   UNL     1       2.551  -9.508  -0.394  0.00  0.00    +0.068 A 
ATOM     13  C   UNL     1       2.149 -10.661  -1.056  0.00  0.00    +0.029 A 
ATOM     14  C   UNL     1       2.527 -11.899  -0.575  0.00  0.00    +0.022 A 
ATOM     15  C   UNL     1       3.306 -11.991   0.566  0.00  0.00    +0.041 A 
ATOM     16  C   UNL     1       3.708 -10.844   1.227  0.00  0.00    +0.022 A 
ATOM     17  C   UNL     1       3.337  -9.603   0.747  0.00  0.00    +0.029 A 
ATOM     18 CL   UNL     1       3.779 -13.549   1.168  0.00  0.00    -0.084 Cl
ENDBRANCH   7  12
BRANCH   4  19
ATOM     19  C   UNL     1       1.407  -6.094  -4.702  0.00  0.00    +0.001 A 
ATOM     20  C   UNL     1       0.831  -7.297  -5.113  0.00  0.00    +0.013 A 
ATOM     21  C   UNL     1       0.898  -7.673  -6.438  0.00  0.00    +0.039 A 
ATOM     22  C   UNL     1       1.536  -6.859  -7.361  0.00  0.00    +0.123 A 
ATOM     23  C   UNL     1       2.110  -5.663  -6.957  0.00  0.00    +0.039 A 
ATOM     24  C   UNL     1       2.044  -5.276  -5.636  0.00  0.00    +0.013 A 
ATOM     25  F   UNL     1       1.599  -7.232  -8.658  0.00  0.00    -0.205 F 
ENDBRANCH   4  19
BRANCH   6  26
ATOM     26  N   UNL     1       2.240  -8.779  -3.255  0.00  0.00    -0.342 N 
ATOM     27  H   UNL     1       2.265  -8.421  -4.157  0.00  0.00    +0.144 HD
ATOM     28  H   UNL     1       2.361  -9.730  -3.107  0.00  0.00    +0.144 HD
ENDBRANCH   6  26
BRANCH   1  29
ATOM     29  C   UNL     1       0.465  -2.272  -0.035  0.00  0.00    +0.160 C 
BRANCH  29  34
ATOM     30  C   UNL     1      -1.672   0.829   0.130  0.00  0.00    +0.003 A 
ATOM     31  C   UNL     1      -0.688   1.794  -0.020  0.00  0.00    +0.020 A 
ATOM     32  C   UNL     1       0.628   1.398  -0.168  0.00  0.00    +0.111 A 
ATOM     33  N   UNL     1       0.951   0.119  -0.168  0.00  0.00    -0.258 NA
ATOM     34  C   UNL     1       0.042  -0.826  -0.027  0.00  0.00    +0.058 A 
ATOM     35  C   UNL     1      -1.294  -0.505   0.126  0.00  0.00    +0.025 A 
ENDBRANCH  29  34
ENDBRANCH   1  29
TORSDOF 5
