REMARK  Name = ZINC52167199
REMARK  10 active torsions:
REMARK  status: ('A' for Active; 'I' for Inactive)
REMARK    1  A    between atoms: C_1  and  C_2
REMARK    2  A    between atoms: C_2  and  C_3
REMARK    3  A    between atoms: C_3  and  C_5
REMARK    4  A    between atoms: C_3  and  C_6
REMARK    5  A    between atoms: C_6  and  C_8
REMARK    6  A    between atoms: C_6  and  N_25
REMARK    7  A    between atoms: N_10  and  C_11
REMARK    8  A    between atoms: C_11  and  C_12
REMARK    9  A    between atoms: C_15  and  C_18
REMARK   10  A    between atoms: C_18  and  N_19
REMARK                            x       y       z     vdW  Elec       q    Type
REMARK                         _______ _______ _______ _____ _____    ______ ____
ROOT
ATOM      1  C   UNL     1       1.212  -2.504   2.760  0.00  0.00    +0.234 C 
ATOM      2  O   UNL     1       2.328  -2.780   3.145  0.00  0.00    -0.274 OA
ATOM      3  N   UNL     1       0.165  -2.601   3.603  0.00  0.00    -0.310 N 
ATOM      4  H   UNL     1      -0.728  -2.381   3.295  0.00  0.00    +0.149 HD
ENDROOT
BRANCH   1   5
ATOM      5  C   UNL     1       0.995  -2.054   1.338  0.00  0.00    +0.163 C 
BRANCH   5   6
ATOM      6  N   UNL     1       2.131  -2.473   0.514  0.00  0.00    -0.288 N 
ATOM      7  C   UNL     1       2.156  -3.710  -0.021  0.00  0.00    +0.298 C 
ATOM      8  O   UNL     1       1.282  -4.509   0.255  0.00  0.00    -0.253 OA
ATOM      9  N   UNL     1       3.149  -4.061  -0.861  0.00  0.00    -0.313 N 
ATOM     10  H   UNL     1       2.866  -1.861   0.353  0.00  0.00    +0.151 HD
ATOM     11  H   UNL     1       3.846  -3.424  -1.081  0.00  0.00    +0.146 HD
ATOM     12  H   UNL     1       3.167  -4.952  -1.246  0.00  0.00    +0.146 HD
ENDBRANCH   5   6
BRANCH   5  13
ATOM     13  C   UNL     1       0.871  -0.530   1.299  0.00  0.00    +0.015 C 
ATOM     14  C   UNL     1       2.163   0.100   1.822  0.00  0.00    +0.010 C 
BRANCH  13  16
ATOM     15  C   UNL     1       0.382   1.435  -0.165  0.00  0.00    +0.004 C 
ATOM     16  C   UNL     1       0.629  -0.074  -0.142  0.00  0.00    +0.002 C 
ENDBRANCH  13  16
ENDBRANCH   5  13
ENDBRANCH   1   5
BRANCH   3  17
ATOM     17  C   UNL     1       0.376  -3.038   4.985  0.00  0.00    +0.139 C 
BRANCH  17  18
ATOM     18  C   UNL     1      -0.944  -3.061   5.712  0.00  0.00    -0.030 A 
ATOM     19  C   UNL     1      -1.387  -1.932   6.375  0.00  0.00    +0.005 A 
ATOM     20  C   UNL     1      -2.598  -1.953   7.042  0.00  0.00    +0.002 A 
ATOM     21  C   UNL     1      -3.366  -3.103   7.045  0.00  0.00    -0.064 A 
ATOM     22  C   UNL     1      -2.923  -4.231   6.381  0.00  0.00    +0.002 A 
ATOM     23  C   UNL     1      -1.714  -4.209   5.710  0.00  0.00    +0.005 A 
BRANCH  21  24
ATOM     24  C   UNL     1      -4.686  -3.126   7.772  0.00  0.00    -0.043 C 
BRANCH  24  25
ATOM     25  N   UNL     1      -5.756  -2.707   6.858  0.00  0.00    +0.382 N 
ATOM     26  C   UNL     1      -5.544  -1.309   6.466  0.00  0.00    -0.078 C 
ATOM     27  C   UNL     1      -6.610  -0.892   5.451  0.00  0.00    -0.019 C 
ATOM     28  C   UNL     1      -7.996  -1.041   6.084  0.00  0.00    -0.004 C 
ATOM     29  C   UNL     1      -8.178  -2.487   6.556  0.00  0.00    -0.019 C 
ATOM     30  C   UNL     1      -7.054  -2.844   7.531  0.00  0.00    -0.078 C 
ATOM     31  H   UNL     1      -5.742  -3.291   6.035  0.00  0.00    -0.081 HD
ENDBRANCH  24  25
ENDBRANCH  21  24
ENDBRANCH  17  18
ENDBRANCH   3  17
TORSDOF 8
