REMARK  Name = ZINC39736414
REMARK  16 active torsions:
REMARK  status: ('A' for Active; 'I' for Inactive)
REMARK    1  A    between atoms: C_1  and  C_2
REMARK    2  A    between atoms: C_2  and  N_3
REMARK    3  A    between atoms: N_3  and  C_4
REMARK    4  A    between atoms: N_3  and  C_6
REMARK    5  A    between atoms: C_4  and  C_5
REMARK    6  A    between atoms: C_6  and  C_7
REMARK    7  A    between atoms: C_7  and  N_8
REMARK    8  A    between atoms: C_14  and  O_18
REMARK    9  A    between atoms: O_18  and  C_19
REMARK   10  A    between atoms: C_20  and  C_22
REMARK   11  A    between atoms: C_25  and  S_28
REMARK   12  A    between atoms: S_28  and  N_31
REMARK   13  A    between atoms: N_31  and  C_32
REMARK   14  A    between atoms: N_31  and  C_33
REMARK   15  A    between atoms: C_33  and  C_34
REMARK   16  A    between atoms: C_33  and  C_35
REMARK                            x       y       z     vdW  Elec       q    Type
REMARK                         _______ _______ _______ _____ _____    ______ ____
ROOT
ATOM      1  N   UNL     1      -3.044  -4.552   0.655  0.00  0.00    -0.248 N 
ATOM      2  C   UNL     1      -3.434  -5.201   1.815  0.00  0.00    +0.168 A 
ATOM      3  N   UNL     1      -4.195  -4.758   2.788  0.00  0.00    -0.224 NA
ATOM      4  C   UNL     1      -4.497  -5.508   3.872  0.00  0.00    +0.081 A 
ATOM      5  C   UNL     1      -5.298  -5.154   4.982  0.00  0.00    +0.032 A 
ATOM      6  C   UNL     1      -5.508  -6.038   6.007  0.00  0.00    +0.048 A 
ATOM      7  C   UNL     1      -4.944  -7.310   5.995  0.00  0.00    +0.121 A 
ATOM      8  C   UNL     1      -4.153  -7.690   4.921  0.00  0.00    +0.063 A 
ATOM      9  C   UNL     1      -3.940  -6.807   3.891  0.00  0.00    +0.044 A 
ATOM     10  S   UNL     1      -3.038  -6.855   2.362  0.00  0.00    -0.052 S 
ATOM     11  C   UNL     1      -2.256  -5.184  -0.238  0.00  0.00    +0.252 C 
ATOM     12  O   UNL     1      -1.932  -6.341  -0.051  0.00  0.00    -0.270 OA
ENDROOT
BRANCH  11  13
ATOM     13  C   UNL     1      -1.785  -4.470  -1.443  0.00  0.00    +0.037 A 
ATOM     14  C   UNL     1      -1.588  -3.089  -1.408  0.00  0.00    +0.015 A 
ATOM     15  C   UNL     1      -1.149  -2.429  -2.537  0.00  0.00    +0.029 A 
ATOM     16  C   UNL     1      -0.903  -3.133  -3.702  0.00  0.00    +0.106 A 
ATOM     17  C   UNL     1      -1.096  -4.502  -3.744  0.00  0.00    +0.029 A 
ATOM     18  C   UNL     1      -1.529  -5.176  -2.620  0.00  0.00    +0.015 A 
BRANCH  16  19
ATOM     19  S   UNL     1      -0.342  -2.282  -5.139  0.00  0.00    +0.061 S 
ATOM     20  O   UNL     1      -0.815  -3.019  -6.258  0.00  0.00    -0.153 OA
ATOM     21  O   UNL     1      -0.652  -0.909  -4.945  0.00  0.00    -0.153 OA
BRANCH  19  22
ATOM     22  N   UNL     1       1.310  -2.395  -5.162  0.00  0.00    -0.177 NA
ATOM     23  C   UNL     1       1.961  -3.456  -5.934  0.00  0.00    +0.132 C 
BRANCH  22  24
ATOM     24  C   UNL     1       2.120  -1.434  -4.409  0.00  0.00    +0.073 C 
ATOM     25  C   UNL     1       3.048  -2.187  -3.453  0.00  0.00    +0.025 C 
ATOM     26  C   UNL     1       2.958  -0.601  -5.382  0.00  0.00    +0.025 C 
ENDBRANCH  22  24
ENDBRANCH  19  22
ENDBRANCH  16  19
ENDBRANCH  11  13
BRANCH   7  27
ATOM     27  O   UNL     1      -5.165  -8.170   7.025  0.00  0.00    -0.495 OA
ATOM     28  C   UNL     1      -5.990  -7.704   8.094  0.00  0.00    +0.277 C 
ENDBRANCH   7  27
BRANCH   1  29
ATOM     29  C   UNL     1      -3.487  -3.180   0.398  0.00  0.00    +0.097 C 
BRANCH  29  30
ATOM     30  C   UNL     1      -2.653  -2.209   1.237  0.00  0.00    -0.059 C 
BRANCH  30  31
ATOM     31  N   UNL     1      -3.011  -0.828   0.888  0.00  0.00    +0.380 N 
ATOM     32  H   UNL     1      -2.893  -0.690  -0.104  0.00  0.00    -0.082 HD
BRANCH  31  34
ATOM     33  C   UNL     1      -4.822   0.817   0.778  0.00  0.00    -0.017 C 
ATOM     34  C   UNL     1      -4.412  -0.578   1.254  0.00  0.00    -0.082 C 
ENDBRANCH  31  34
BRANCH  31  35
ATOM     35  C   UNL     1      -2.141   0.103   1.619  0.00  0.00    -0.082 C 
ATOM     36  C   UNL     1      -0.704  -0.038   1.113  0.00  0.00    -0.017 C 
ENDBRANCH  31  35
ENDBRANCH  30  31
ENDBRANCH  29  30
ENDBRANCH   1  29
TORSDOF 10
