REMARK  Name = ZINC10696597
REMARK  9 active torsions:
REMARK  status: ('A' for Active; 'I' for Inactive)
REMARK    1  A    between atoms: C_4  and  C_7
REMARK    2  A    between atoms: C_7  and  C_9
REMARK    3  A    between atoms: C_7  and  C_29
REMARK    4  A    between atoms: C_9  and  N_10
REMARK    5  A    between atoms: C_11  and  C_13
REMARK    6  A    between atoms: C_13  and  C_14
REMARK    7  A    between atoms: C_14  and  C_15
REMARK    8  A    between atoms: C_15  and  N_16
REMARK    9  A    between atoms: C_20  and  N_26
REMARK                            x       y       z     vdW  Elec       q    Type
REMARK                         _______ _______ _______ _____ _____    ______ ____
ROOT
ATOM      1  N   UNL     1      -4.437   8.558  -3.019  0.00  0.00    -0.314 N 
ATOM      2  C   UNL     1      -3.979   7.313  -2.784  0.00  0.00    +0.213 C 
ATOM      3  O   UNL     1      -3.717   6.577  -3.712  0.00  0.00    -0.276 OA
ATOM      4  H   UNL     1      -4.647   9.146  -2.277  0.00  0.00    +0.149 HD
ENDROOT
BRANCH   1   5
ATOM      5  C   UNL     1      -4.619   9.024  -4.397  0.00  0.00    +0.117 C 
BRANCH   5   6
ATOM      6  C   UNL     1      -5.145  10.460  -4.384  0.00  0.00    +0.068 C 
BRANCH   6   7
ATOM      7  C   UNL     1      -5.216  10.982  -5.796  0.00  0.00    -0.013 A 
ATOM      8  C   UNL     1      -5.936  10.464  -6.804  0.00  0.00    +0.088 A 
ATOM      9  N   UNL     1      -5.753  11.207  -7.938  0.00  0.00    -0.360 N 
ATOM     10  H   UNL     1      -6.173  11.028  -8.794  0.00  0.00    +0.165 HD
ATOM     11  C   UNL     1      -4.882  12.242  -7.684  0.00  0.00    +0.047 A 
ATOM     12  C   UNL     1      -4.507  12.147  -6.332  0.00  0.00    +0.003 A 
ATOM     13  C   UNL     1      -3.619  13.076  -5.788  0.00  0.00    +0.010 A 
ATOM     14  C   UNL     1      -3.118  14.076  -6.573  0.00  0.00    +0.001 A 
ATOM     15  C   UNL     1      -3.484  14.174  -7.908  0.00  0.00    +0.002 A 
ATOM     16  C   UNL     1      -4.359  13.267  -8.466  0.00  0.00    +0.026 A 
ENDBRANCH   6   7
BRANCH   6  20
ATOM     17  C   UNL     1      -9.045  10.534  -2.643  0.00  0.00    +0.000 A 
ATOM     18  C   UNL     1      -8.018  11.260  -2.069  0.00  0.00    +0.000 A 
ATOM     19  C   UNL     1      -6.756  11.237  -2.633  0.00  0.00    +0.004 A 
ATOM     20  C   UNL     1      -6.521  10.486  -3.770  0.00  0.00    -0.038 A 
ATOM     21  C   UNL     1      -7.549   9.764  -4.346  0.00  0.00    +0.004 A 
ATOM     22  C   UNL     1      -8.810   9.784  -3.780  0.00  0.00    +0.000 A 
ENDBRANCH   6  20
ENDBRANCH   5   6
ENDBRANCH   1   5
BRANCH   2  23
ATOM     23  C   UNL     1      -3.792   6.834  -1.367  0.00  0.00    +0.097 C 
BRANCH  23  24
ATOM     24  C   UNL     1      -3.266   5.397  -1.380  0.00  0.00    +0.031 C 
BRANCH  24  25
ATOM     25  C   UNL     1      -3.076   4.911   0.058  0.00  0.00    +0.129 C 
BRANCH  25  26
ATOM     26  N   UNL     1      -2.573   3.536   0.046  0.00  0.00    -0.274 N 
ATOM     27  C   UNL     1      -1.233   3.148   0.031  0.00  0.00    +0.090 A 
ATOM     28  C   UNL     1      -0.039   3.851   0.023  0.00  0.00    +0.032 A 
ATOM     29  C   UNL     1       1.161   3.167   0.008  0.00  0.00    +0.035 A 
ATOM     30  C   UNL     1       1.174   1.784   0.000  0.00  0.00    +0.130 A 
ATOM     31  C   UNL     1      -0.013   1.076   0.008  0.00  0.00    +0.081 A 
ATOM     32  C   UNL     1      -1.222   1.753   0.017  0.00  0.00    +0.159 A 
ATOM     33  O   UNL     1      -2.513   1.340   0.034  0.00  0.00    -0.407 OA
ATOM     34  C   UNL     1      -3.319   2.413   0.048  0.00  0.00    +0.421 A 
ATOM     35  O   UNL     1      -4.534   2.378   0.060  0.00  0.00    -0.223 OA
BRANCH  30  36
ATOM     36  N   UNL     1       2.464   1.058  -0.016  0.00  0.00    +0.057 N 
ATOM     37  O   UNL     1       2.478  -0.160  -0.023  0.00  0.00    -0.126 OA
ATOM     38  O   UNL     1       3.511   1.679  -0.023  0.00  0.00    -0.126 OA
ENDBRANCH  30  36
ENDBRANCH  25  26
ENDBRANCH  24  25
ENDBRANCH  23  24
ENDBRANCH   2  23
TORSDOF 9
