REMARK  Name = ZINC45873616
REMARK  11 active torsions:
REMARK  status: ('A' for Active; 'I' for Inactive)
REMARK    1  A    between atoms: C_1  and  C_2
REMARK    2  A    between atoms: C_5  and  N_8
REMARK    3  A    between atoms: C_12  and  S_13
REMARK    4  A    between atoms: S_13  and  C_14
REMARK    5  A    between atoms: C_14  and  C_15
REMARK    6  A    between atoms: N_17  and  C_18
REMARK    7  A    between atoms: C_21  and  O_32
REMARK    8  A    between atoms: C_22  and  C_24
REMARK    9  A    between atoms: C_27  and  O_30
REMARK   10  A    between atoms: O_30  and  C_31
REMARK   11  A    between atoms: O_32  and  C_33
REMARK                            x       y       z     vdW  Elec       q    Type
REMARK                         _______ _______ _______ _____ _____    ______ ____
ROOT
ATOM      1  C   UNL     1       4.460  -5.899   2.846  0.00  0.00    +0.227 C 
ATOM      2  O   UNL     1       5.114  -4.886   2.713  0.00  0.00    -0.275 OA
ATOM      3  N   UNL     1       4.753  -6.766   3.836  0.00  0.00    -0.285 N 
ATOM      4  H   UNL     1       4.190  -7.541   3.984  0.00  0.00    +0.155 HD
ENDROOT
BRANCH   3   5
ATOM      5  C   UNL     1       5.872  -6.546   4.650  0.00  0.00    +0.034 A 
ATOM      6  C   UNL     1       6.238  -5.250   4.991  0.00  0.00    +0.027 A 
ATOM      7  C   UNL     1       7.340  -5.027   5.794  0.00  0.00    +0.048 A 
ATOM      8  C   UNL     1       8.086  -6.096   6.264  0.00  0.00    +0.135 A 
ATOM      9  C   UNL     1       7.722  -7.402   5.926  0.00  0.00    +0.026 A 
ATOM     10  C   UNL     1       6.608  -7.623   5.120  0.00  0.00    +0.035 A 
BRANCH   9  11
ATOM     11  C   UNL     1       8.517  -8.550   6.426  0.00  0.00    -0.014 A 
ATOM     12  C   UNL     1       9.904  -8.553   6.286  0.00  0.00    +0.012 A 
ATOM     13  C   UNL     1      10.641  -9.621   6.753  0.00  0.00    +0.046 A 
ATOM     14  C   UNL     1      10.002 -10.693   7.362  0.00  0.00    +0.120 A 
ATOM     15  C   UNL     1       8.621 -10.693   7.503  0.00  0.00    +0.046 A 
ATOM     16  C   UNL     1       7.880  -9.625   7.043  0.00  0.00    +0.012 A 
BRANCH  14  17
ATOM     17  O   UNL     1      10.731 -11.744   7.822  0.00  0.00    -0.495 OA
ATOM     18  C   UNL     1      10.010 -12.813   8.438  0.00  0.00    +0.277 C 
ENDBRANCH  14  17
ENDBRANCH   9  11
BRANCH   8  19
ATOM     19  O   UNL     1       9.170  -5.874   7.054  0.00  0.00    -0.434 OA
BRANCH  19  20
ATOM     20  C   UNL     1       9.483  -4.514   7.359  0.00  0.00    +0.541 C 
ATOM     21  F   UNL     1       9.733  -3.815   6.173  0.00  0.00    -0.166 F 
ATOM     22  F   UNL     1       8.404  -3.926   8.028  0.00  0.00    -0.166 F 
ENDBRANCH  19  20
ENDBRANCH   8  19
ENDBRANCH   3   5
BRANCH   1  23
ATOM     23  C   UNL     1       3.320  -6.188   1.904  0.00  0.00    +0.173 C 
BRANCH  23  24
ATOM     24  S   UNL     1       3.180  -4.845   0.693  0.00  0.00    -0.076 S 
BRANCH  24  29
ATOM     25  N   UNL     1       1.318  -4.633  -1.389  0.00  0.00    -0.277 N 
ATOM     26  C   UNL     1       0.281  -5.391  -1.864  0.00  0.00    +0.230 A 
ATOM     27  N   UNL     1       0.195  -6.449  -1.108  0.00  0.00    -0.137 NA
ATOM     28  N   UNL     1       1.099  -6.414  -0.195  0.00  0.00    -0.122 NA
ATOM     29  C   UNL     1       1.821  -5.325  -0.322  0.00  0.00    +0.196 A 
BRANCH  25  34
ATOM     30  C   UNL     1       3.160   0.330  -3.436  0.00  0.00    +0.044 C 
ATOM     31  C   UNL     1       2.671  -0.988  -2.893  0.00  0.00    -0.050 A 
ATOM     32  C   UNL     1       2.478  -2.058  -3.747  0.00  0.00    +0.005 A 
ATOM     33  C   UNL     1       2.030  -3.267  -3.252  0.00  0.00    +0.026 A 
ATOM     34  C   UNL     1       1.774  -3.407  -1.895  0.00  0.00    +0.050 A 
ATOM     35  C   UNL     1       1.968  -2.331  -1.039  0.00  0.00    +0.026 A 
ATOM     36  C   UNL     1       2.422  -1.126  -1.540  0.00  0.00    +0.005 A 
ENDBRANCH  25  34
ENDBRANCH  24  29
ENDBRANCH  23  24
ENDBRANCH   1  23
TORSDOF 9
