REMARK  Name = ZINC39676406
REMARK  5 active torsions:
REMARK  status: ('A' for Active; 'I' for Inactive)
REMARK    1  A    between atoms: C_6  and  C_11
REMARK    2  A    between atoms: C_11  and  C_12
REMARK    3  A    between atoms: C_12  and  N_13
REMARK    4  A    between atoms: C_14  and  C_16
REMARK    5  A    between atoms: C_27  and  C_29
REMARK                            x       y       z     vdW  Elec       q    Type
REMARK                         _______ _______ _______ _____ _____    ______ ____
ROOT
ATOM      1  C   UNL     1      -8.794  -0.466  -2.705  0.00  0.00    +0.100 C 
ATOM      2  C   UNL     1      -9.767  -1.506  -2.106  0.00  0.00    +0.121 C 
ATOM      3  N   UNL     1     -10.982  -1.411  -2.949  0.00  0.00    -0.296 N 
ATOM      4  C   UNL     1     -10.462  -1.232  -4.326  0.00  0.00    +0.115 C 
ATOM      5  C   UNL     1      -9.253  -0.289  -4.163  0.00  0.00    -0.004 C 
ATOM      6  C   UNL     1      -8.137  -0.693  -5.121  0.00  0.00    -0.010 C 
ATOM      7  C   UNL     1      -8.596  -0.454  -6.562  0.00  0.00    -0.082 C 
ATOM      8  N   UNL     1      -8.933   0.963  -6.742  0.00  0.00    +0.379 N 
ATOM      9  C   UNL     1     -10.069   1.320  -5.883  0.00  0.00    -0.082 C 
ATOM     10  C   UNL     1      -9.672   1.156  -4.413  0.00  0.00    -0.010 C 
ATOM     11  C   UNL     1     -12.269  -1.474  -2.554  0.00  0.00    +0.247 C 
ATOM     12  O   UNL     1     -12.540  -1.495  -1.369  0.00  0.00    -0.270 OA
ATOM     13  H   UNL     1      -8.136   1.531  -6.495  0.00  0.00    -0.086 HD
ATOM     14  H   UNL     1      -9.177   1.130  -7.706  0.00  0.00    -0.086 HD
ENDROOT
BRANCH  11  15
ATOM     15  C   UNL     1     -13.350  -1.518  -3.561  0.00  0.00    +0.042 A 
ATOM     16  C   UNL     1     -13.075  -1.923  -4.867  0.00  0.00    +0.051 A 
ATOM     17  C   UNL     1     -14.090  -1.961  -5.805  0.00  0.00    +0.127 A 
ATOM     18  C   UNL     1     -15.379  -1.599  -5.449  0.00  0.00    +0.076 A 
ATOM     19  C   UNL     1     -15.658  -1.196  -4.153  0.00  0.00    +0.127 A 
ATOM     20  C   UNL     1     -14.652  -1.159  -3.206  0.00  0.00    +0.051 A 
ATOM     21  F   UNL     1     -16.917  -0.844  -3.813  0.00  0.00    -0.205 F 
ATOM     22  F   UNL     1     -13.824  -2.353  -7.070  0.00  0.00    -0.205 F 
ENDBRANCH  11  15
BRANCH   1  24
ATOM     23  N   UNL     1      -6.350  -0.121  -2.541  0.00  0.00    -0.315 N 
ATOM     24  C   UNL     1      -7.379  -0.983  -2.660  0.00  0.00    +0.218 C 
ATOM     25  O   UNL     1      -7.167  -2.175  -2.730  0.00  0.00    -0.275 OA
ATOM     26  H   UNL     1      -6.520   0.832  -2.485  0.00  0.00    +0.149 HD
BRANCH  23  27
ATOM     27  C   UNL     1      -4.975  -0.624  -2.497  0.00  0.00    +0.109 C 
BRANCH  27  28
ATOM     28  C   UNL     1      -4.006   0.552  -2.360  0.00  0.00    +0.056 C 
BRANCH  28  34
ATOM     29  C   UNL     1       0.308  -1.036  -5.161  0.00  0.00    +0.022 A 
ATOM     30  C   UNL     1       0.505  -1.104  -3.799  0.00  0.00    +0.027 A 
ATOM     31  C   UNL     1      -0.517  -0.727  -2.934  0.00  0.00    +0.047 A 
ATOM     32  N   UNL     1      -0.630  -0.682  -1.562  0.00  0.00    -0.360 N 
ATOM     33  C   UNL     1      -1.871  -0.226  -1.212  0.00  0.00    +0.087 A 
ATOM     34  C   UNL     1      -2.591   0.034  -2.314  0.00  0.00    -0.021 A 
ATOM     35  C   UNL     1      -1.741  -0.280  -3.465  0.00  0.00    +0.004 A 
ATOM     36  C   UNL     1      -1.919  -0.219  -4.849  0.00  0.00    +0.030 A 
ATOM     37  C   UNL     1      -0.900  -0.589  -5.681  0.00  0.00    +0.042 A 
ATOM     38 CL   UNL     1      -1.122  -0.513  -7.401  0.00  0.00    -0.084 Cl
ATOM     39  H   UNL     1       0.068  -0.936  -0.937  0.00  0.00    +0.165 HD
ENDBRANCH  28  34
ENDBRANCH  27  28
ENDBRANCH  23  27
ENDBRANCH   1  24
TORSDOF 5
