REMARK  Name = ZINC63798198
REMARK  10 active torsions:
REMARK  status: ('A' for Active; 'I' for Inactive)
REMARK    1  A    between atoms: C_1  and  C_2
REMARK    2  A    between atoms: C_2  and  C_3
REMARK    3  A    between atoms: N_5  and  C_6
REMARK    4  A    between atoms: C_9  and  C_12
REMARK    5  A    between atoms: C_12  and  C_14
REMARK    6  A    between atoms: C_14  and  S_15
REMARK    7  A    between atoms: S_15  and  C_16
REMARK    8  A    between atoms: C_19  and  C_28
REMARK    9  A    between atoms: N_20  and  C_21
REMARK   10  A    between atoms: C_21  and  C_22
REMARK                            x       y       z     vdW  Elec       q    Type
REMARK                         _______ _______ _______ _____ _____    ______ ____
ROOT
ATOM      1  C   UNL     1       5.110  -6.808  -7.991  0.00  0.00    +0.192 A 
ATOM      2  N   UNL     1       4.565  -7.734  -7.215  0.00  0.00    -0.122 NA
ATOM      3  N   UNL     1       4.842  -8.906  -7.663  0.00  0.00    -0.129 NA
ATOM      4  C   UNL     1       5.584  -8.803  -8.757  0.00  0.00    +0.163 A 
ATOM      5  N   UNL     1       5.767  -7.452  -8.994  0.00  0.00    -0.300 N 
ENDROOT
BRANCH   4   6
ATOM      6  C   UNL     1       6.084  -9.863  -9.530  0.00  0.00    +0.025 C 
ATOM      7  C   UNL     1       5.898 -11.228  -9.310  0.00  0.00    +0.006 A 
ATOM      8  C   UNL     1       5.201 -11.947  -8.316  0.00  0.00    +0.010 A 
ATOM      9  C   UNL     1       5.189 -13.304  -8.350  0.00  0.00    +0.001 A 
ATOM     10  C   UNL     1       5.854 -14.017  -9.351  0.00  0.00    +0.002 A 
ATOM     11  C   UNL     1       6.543 -13.391 -10.337  0.00  0.00    +0.026 A 
ATOM     12  C   UNL     1       6.600 -11.974 -10.367  0.00  0.00    +0.043 A 
ATOM     13  N   UNL     1       7.192 -11.143 -11.203  0.00  0.00    -0.380 N 
ATOM     14  C   UNL     1       6.931  -9.763 -10.779  0.00  0.00    +0.152 C 
ATOM     15  H   UNL     1       7.714 -11.403 -11.978  0.00  0.00    +0.160 HD
ENDBRANCH   4   6
BRANCH   1  16
ATOM     16  S   UNL     1       4.998  -5.064  -7.769  0.00  0.00    -0.078 S 
BRANCH  16  17
ATOM     17  C   UNL     1       3.998  -4.875  -6.268  0.00  0.00    +0.157 C 
BRANCH  17  18
ATOM     18  C   UNL     1       3.824  -3.410  -5.961  0.00  0.00    +0.173 C 
ATOM     19  O   UNL     1       4.325  -2.575  -6.684  0.00  0.00    -0.291 OA
BRANCH  18  23
ATOM     20  C   UNL     1       1.583  -2.208  -2.574  0.00  0.00    +0.033 A 
ATOM     21  C   UNL     1       2.158  -1.248  -3.402  0.00  0.00    +0.024 A 
ATOM     22  C   UNL     1       2.884  -1.632  -4.500  0.00  0.00    +0.013 A 
ATOM     23  C   UNL     1       3.047  -2.993  -4.787  0.00  0.00    +0.018 A 
ATOM     24  C   UNL     1       2.468  -3.956  -3.950  0.00  0.00    +0.013 A 
ATOM     25  C   UNL     1       1.748  -3.562  -2.852  0.00  0.00    +0.024 A 
BRANCH  20  28
ATOM     26  C   UNL     1       0.889  -2.545  -0.329  0.00  0.00    +0.217 C 
ATOM     27  O   UNL     1       1.501  -3.591  -0.307  0.00  0.00    -0.275 OA
ATOM     28  N   UNL     1       0.847  -1.812  -1.460  0.00  0.00    -0.286 N 
ATOM     29  H   UNL     1       0.303  -1.010  -1.498  0.00  0.00    +0.155 HD
BRANCH  26  31
ATOM     30  C   UNL     1       0.381  -3.071   2.040  0.00  0.00    +0.013 C 
ATOM     31  C   UNL     1       0.175  -2.063   0.908  0.00  0.00    +0.093 C 
ENDBRANCH  26  31
ENDBRANCH  20  28
ENDBRANCH  18  23
ENDBRANCH  17  18
ENDBRANCH  16  17
ENDBRANCH   1  16
BRANCH   5  32
ATOM     32  C   UNL     1       6.517  -6.842 -10.095  0.00  0.00    +0.157 C 
BRANCH  32  33
ATOM     33  C   UNL     1       7.977  -6.656  -9.677  0.00  0.00    +0.138 C 
ATOM     34  C   UNL     1       8.807  -6.095 -10.858  0.00  0.00    +0.035 C 
ATOM     35  C   UNL     1       9.970  -5.401 -10.098  0.00  0.00    +0.031 C 
ATOM     36  C   UNL     1       9.268  -4.888  -8.822  0.00  0.00    +0.160 C 
ATOM     37  O   UNL     1       8.076  -5.664  -8.642  0.00  0.00    -0.375 OA
ENDBRANCH  32  33
ENDBRANCH   5  32
TORSDOF 9
