REMARK  Name = ZINC04182722
REMARK  8 active torsions:
REMARK  status: ('A' for Active; 'I' for Inactive)
REMARK    1  A    between atoms: C_1  and  C_2
REMARK    2  A    between atoms: C_2  and  C_4
REMARK    3  A    between atoms: C_2  and  N_14
REMARK    4  A    between atoms: N_16  and  C_17
REMARK    5  A    between atoms: C_17  and  C_18
REMARK    6  A    between atoms: C_18  and  C_19
REMARK    7  A    between atoms: C_22  and  S_25
REMARK    8  A    between atoms: S_25  and  N_28
REMARK                            x       y       z     vdW  Elec       q    Type
REMARK                         _______ _______ _______ _____ _____    ______ ____
ROOT
ATOM      1  N   UNL     1       0.711  -0.489   1.189  0.00  0.00    -0.364 N 
ATOM      2  C   UNL     1       2.072  -0.601   1.173  0.00  0.00    +0.139 C 
ATOM      3  N   UNL     1       2.733  -1.054   2.280  0.00  0.00    -0.324 N 
ATOM      4  S   UNL     1       2.924  -0.187  -0.190  0.00  0.00    -0.016 SA
ATOM      5  H   UNL     1       2.235  -1.296   3.077  0.00  0.00    +0.148 HD
ATOM      6  H   UNL     1       0.213  -0.731   1.986  0.00  0.00    +0.162 HD
ENDROOT
BRANCH   1   8
ATOM      7  C   UNL     1      -0.019   1.526   0.010  0.00  0.00    +0.031 C 
ATOM      8  C   UNL     1       0.002  -0.004   0.002  0.00  0.00    +0.084 C 
BRANCH   8   9
ATOM      9  C   UNL     1      -1.433  -0.534   0.013  0.00  0.00    -0.008 C 
ATOM     10  C   UNL     1      -2.149  -0.040   1.272  0.00  0.00    +0.012 C 
ATOM     11  C   UNL     1      -3.585  -0.570   1.282  0.00  0.00    -0.010 C 
ATOM     12  C   UNL     1      -4.325  -0.063   0.043  0.00  0.00    +0.007 C 
ATOM     13  C   UNL     1      -3.609  -0.556  -1.216  0.00  0.00    -0.010 C 
ATOM     14  C   UNL     1      -2.173  -0.027  -1.227  0.00  0.00    +0.012 C 
ATOM     15  C   UNL     1      -3.588  -2.086  -1.224  0.00  0.00    +0.007 C 
ATOM     16  C   UNL     1      -2.848  -2.593   0.015  0.00  0.00    -0.010 C 
ATOM     17  C   UNL     1      -3.564  -2.100   1.274  0.00  0.00    +0.007 C 
ATOM     18  C   UNL     1      -1.413  -2.063   0.004  0.00  0.00    +0.012 C 
ENDBRANCH   8   9
ENDBRANCH   1   8
BRANCH   3  19
ATOM     19  C   UNL     1       4.193  -1.174   2.264  0.00  0.00    +0.108 C 
BRANCH  19  20
ATOM     20  C   UNL     1       4.677  -1.699   3.617  0.00  0.00    +0.054 C 
BRANCH  20  21
ATOM     21  C   UNL     1       6.179  -1.823   3.600  0.00  0.00    -0.046 A 
ATOM     22  C   UNL     1       6.771  -3.001   3.185  0.00  0.00    +0.005 A 
ATOM     23  C   UNL     1       8.148  -3.114   3.170  0.00  0.00    +0.029 A 
ATOM     24  C   UNL     1       8.934  -2.049   3.568  0.00  0.00    +0.105 A 
ATOM     25  C   UNL     1       8.342  -0.871   3.982  0.00  0.00    +0.029 A 
ATOM     26  C   UNL     1       6.964  -0.756   3.994  0.00  0.00    +0.005 A 
BRANCH  24  27
ATOM     27  S   UNL     1      10.690  -2.194   3.550  0.00  0.00    +0.056 S 
ATOM     28  O   UNL     1      11.185  -1.247   4.486  0.00  0.00    -0.153 OA
ATOM     29  O   UNL     1      10.984  -3.581   3.641  0.00  0.00    -0.153 OA
BRANCH  27  30
ATOM     30  N   UNL     1      11.206  -1.698   2.056  0.00  0.00    -0.204 NA
ATOM     31  H   UNL     1      12.080  -1.289   1.956  0.00  0.00    +0.144 HD
ATOM     32  H   UNL     1      10.634  -1.817   1.282  0.00  0.00    +0.144 HD
ENDBRANCH  27  30
ENDBRANCH  24  27
ENDBRANCH  20  21
ENDBRANCH  19  20
ENDBRANCH   3  19
TORSDOF 7
