REMARK  Name = ZINC31642270
REMARK  11 active torsions:
REMARK  status: ('A' for Active; 'I' for Inactive)
REMARK    1  A    between atoms: C_1  and  C_2
REMARK    2  A    between atoms: N_4  and  C_5
REMARK    3  A    between atoms: C_8  and  S_11
REMARK    4  A    between atoms: S_11  and  N_14
REMARK    5  A    between atoms: N_14  and  C_15
REMARK    6  A    between atoms: C_15  and  C_16
REMARK    7  A    between atoms: C_16  and  C_17
REMARK    8  A    between atoms: N_19  and  C_20
REMARK    9  A    between atoms: C_23  and  C_26
REMARK   10  A    between atoms: N_28  and  C_29
REMARK   11  A    between atoms: C_29  and  C_30
REMARK                            x       y       z     vdW  Elec       q    Type
REMARK                         _______ _______ _______ _____ _____    ______ ____
ROOT
ATOM      1  C   UNL     1       1.456   9.028   4.089  0.00  0.00    +0.218 C 
ATOM      2  O   UNL     1       2.241   8.170   3.748  0.00  0.00    -0.275 OA
ATOM      3  N   UNL     1       1.674   9.732   5.217  0.00  0.00    -0.285 N 
ATOM      4  H   UNL     1       0.924  10.457   5.568  0.00  0.00    +0.155 HD
ENDROOT
BRANCH   3   5
ATOM      5  C   UNL     1       2.851   9.541   5.941  0.00  0.00    +0.033 A 
ATOM      6  C   UNL     1       3.421   8.275   6.018  0.00  0.00    +0.024 A 
ATOM      7  C   UNL     1       4.585   8.084   6.727  0.00  0.00    +0.015 A 
ATOM      8  C   UNL     1       5.189   9.163   7.379  0.00  0.00    +0.037 A 
ATOM      9  C   UNL     1       4.611  10.433   7.304  0.00  0.00    +0.015 A 
ATOM     10  C   UNL     1       3.449  10.617   6.589  0.00  0.00    +0.024 A 
BRANCH   8  11
ATOM     11  C   UNL     1       6.435   8.961   8.144  0.00  0.00    +0.244 C 
ATOM     12  O   UNL     1       6.959   9.901   8.710  0.00  0.00    -0.270 OA
ATOM     13  N   UNL     1       6.992   7.736   8.215  0.00  0.00    -0.303 N 
ATOM     14  H   UNL     1       6.517   6.886   7.703  0.00  0.00    +0.149 HD
BRANCH  13  15
ATOM     15  C   UNL     1       8.228   7.536   8.975  0.00  0.00    +0.217 C 
BRANCH  15  16
ATOM     16  C   UNL     1       8.643   6.066   8.895  0.00  0.00    +0.405 C 
ATOM     17  F   UNL     1       8.855   5.713   7.558  0.00  0.00    -0.169 F 
ATOM     18  F   UNL     1       9.824   5.875   9.620  0.00  0.00    -0.169 F 
ATOM     19  F   UNL     1       7.630   5.265   9.434  0.00  0.00    -0.169 F 
ENDBRANCH  15  16
ENDBRANCH  13  15
ENDBRANCH   8  11
ENDBRANCH   3   5
BRANCH   1  20
ATOM     20  C   UNL     1       0.235   9.309   3.250  0.00  0.00    +0.113 C 
BRANCH  20  21
ATOM     21  C   UNL     1       0.227   8.379   2.035  0.00  0.00    +0.115 C 
BRANCH  21  22
ATOM     22  N   UNL     1      -0.960   8.652   1.220  0.00  0.00    -0.189 NA
ATOM     23  H   UNL     1      -1.855   9.094   1.682  0.00  0.00    +0.148 HD
BRANCH  22  24
ATOM     24  S   UNL     1      -1.050   8.074  -0.329  0.00  0.00    +0.058 S 
ATOM     25  O   UNL     1       0.173   8.421  -0.964  0.00  0.00    -0.153 OA
ATOM     26  O   UNL     1      -2.314   8.476  -0.839  0.00  0.00    -0.153 OA
BRANCH  24  30
ATOM     27  C   UNL     1      -1.139   3.554  -0.070  0.00  0.00    +0.033 A 
ATOM     28  C   UNL     1       0.075   4.222  -0.164  0.00  0.00    +0.025 A 
ATOM     29  C   UNL     1       0.098   5.600  -0.249  0.00  0.00    +0.030 A 
ATOM     30  C   UNL     1      -1.085   6.315  -0.228  0.00  0.00    +0.105 A 
ATOM     31  C   UNL     1      -2.295   5.654  -0.129  0.00  0.00    +0.030 A 
ATOM     32  C   UNL     1      -2.325   4.275  -0.050  0.00  0.00    +0.025 A 
BRANCH  27  36
ATOM     33  C   UNL     1      -2.143  -0.039  -0.577  0.00  0.00    +0.109 C 
ATOM     34  C   UNL     1      -2.167   1.468  -0.573  0.00  0.00    +0.214 C 
ATOM     35  O   UNL     1      -3.090   2.061  -1.091  0.00  0.00    -0.276 OA
ATOM     36  N   UNL     1      -1.166   2.157   0.009  0.00  0.00    -0.286 N 
ATOM     37  H   UNL     1      -0.370   1.621   0.548  0.00  0.00    +0.155 HD
ENDBRANCH  27  36
ENDBRANCH  24  30
ENDBRANCH  22  24
ENDBRANCH  21  22
ENDBRANCH  20  21
ENDBRANCH   1  20
TORSDOF 10
