REMARK  Name = ZINC33720900
REMARK  13 active torsions:
REMARK  status: ('A' for Active; 'I' for Inactive)
REMARK    1  A    between atoms: C_1  and  C_2
REMARK    2  A    between atoms: C_2  and  C_3
REMARK    3  A    between atoms: C_2  and  C_4
REMARK    4  A    between atoms: C_2  and  C_5
REMARK    5  A    between atoms: C_5  and  C_6
REMARK    6  A    between atoms: C_6  and  C_7
REMARK    7  A    between atoms: C_6  and  C_8
REMARK    8  A    between atoms: C_6  and  N_9
REMARK    9  A    between atoms: N_9  and  C_10
REMARK   10  A    between atoms: C_11  and  C_19
REMARK   11  A    between atoms: C_22  and  O_25
REMARK   12  A    between atoms: O_25  and  S_26
REMARK   13  A    between atoms: S_26  and  C_29
REMARK                            x       y       z     vdW  Elec       q    Type
REMARK                         _______ _______ _______ _____ _____    ______ ____
ROOT
ATOM      1  C   UNL     1       3.668   1.297   0.310  0.00  0.00    +0.129 A 
ATOM      2  C   UNL     1       2.847   0.632   1.196  0.00  0.00    +0.087 A 
ATOM      3  N   UNL     1       3.593  -0.269   1.860  0.00  0.00    -0.338 N 
ATOM      4  C   UNL     1       4.845  -0.196   1.438  0.00  0.00    +0.117 A 
ATOM      5  N   UNL     1       4.924   0.778   0.469  0.00  0.00    -0.289 N 
ATOM      6  C   UNL     1       6.119   1.056  -0.137  0.00  0.00    +0.094 A 
ATOM      7  C   UNL     1       7.235   0.380   0.204  0.00  0.00    +0.018 A 
ATOM      8  C   UNL     1       7.185  -0.621   1.190  0.00  0.00    +0.005 A 
ATOM      9  C   UNL     1       6.006  -0.909   1.802  0.00  0.00    +0.045 A 
ATOM     10  H   UNL     1       3.128  -0.916   2.619  0.00  0.00    +0.167 HD
ENDROOT
BRANCH   2  11
ATOM     11  C   UNL     1       1.395   0.864   1.379  0.00  0.00    +0.002 A 
ATOM     12  C   UNL     1       0.547  -0.204   1.671  0.00  0.00    +0.014 A 
ATOM     13  C   UNL     1      -0.805   0.015   1.834  0.00  0.00    +0.049 A 
ATOM     14  C   UNL     1      -1.320   1.299   1.720  0.00  0.00    +0.157 A 
ATOM     15  C   UNL     1      -0.480   2.365   1.429  0.00  0.00    +0.049 A 
ATOM     16  C   UNL     1       0.872   2.152   1.259  0.00  0.00    +0.014 A 
BRANCH  14  17
ATOM     17  O   UNL     1      -2.652   1.512   1.888  0.00  0.00    -0.342 OA
BRANCH  17  18
ATOM     18  S   UNL     1      -3.464   1.400   0.606  0.00  0.00    +0.151 S 
ATOM     19  O   UNL     1      -4.776   1.850   0.914  0.00  0.00    -0.131 OA
ATOM     20  O   UNL     1      -2.679   1.987  -0.424  0.00  0.00    -0.131 OA
BRANCH  18  21
ATOM     21  C   UNL     1      -3.596  -0.315   0.222  0.00  0.00    +0.128 A 
ATOM     22  C   UNL     1      -2.644  -0.920  -0.577  0.00  0.00    +0.033 A 
ATOM     23  C   UNL     1      -2.744  -2.265  -0.875  0.00  0.00    +0.040 A 
ATOM     24  C   UNL     1      -3.806  -3.006  -0.381  0.00  0.00    +0.124 A 
ATOM     25  C   UNL     1      -4.762  -2.397   0.414  0.00  0.00    +0.040 A 
ATOM     26  C   UNL     1      -4.657  -1.053   0.715  0.00  0.00    +0.033 A 
ATOM     27  F   UNL     1      -3.908  -4.320  -0.676  0.00  0.00    -0.205 F 
ENDBRANCH  18  21
ENDBRANCH  17  18
ENDBRANCH  14  17
ENDBRANCH   2  11
BRANCH   1  28
ATOM     28  N   UNL     1       3.292   2.308  -0.576  0.00  0.00    -0.323 N 
ATOM     29  H   UNL     1       2.285   2.683  -0.810  0.00  0.00    +0.148 HD
BRANCH  28  30
ATOM     30  C   UNL     1       4.466   2.891  -1.239  0.00  0.00    +0.028 C 
ATOM     31  C   UNL     1       5.509   3.272  -0.186  0.00  0.00    +0.031 C 
ATOM     32  C   UNL     1       5.066   1.868  -2.205  0.00  0.00    +0.031 C 
BRANCH  30  33
ATOM     33  C   UNL     1       4.044   4.140  -2.015  0.00  0.00    +0.031 C 
BRANCH  33  35
ATOM     34  C   UNL     1       5.417   3.737  -4.064  0.00  0.00    +0.010 C 
ATOM     35  C   UNL     1       5.225   4.645  -2.848  0.00  0.00    -0.036 C 
ATOM     36  C   UNL     1       4.943   6.074  -3.317  0.00  0.00    +0.010 C 
ATOM     37  C   UNL     1       6.494   4.630  -1.994  0.00  0.00    +0.010 C 
ENDBRANCH  33  35
ENDBRANCH  30  33
ENDBRANCH  28  30
ENDBRANCH   1  28
TORSDOF 8
