REMARK  Name = ZINC35910675
REMARK  11 active torsions:
REMARK  status: ('A' for Active; 'I' for Inactive)
REMARK    1  A    between atoms: C_1  and  O_2
REMARK    2  A    between atoms: O_2  and  C_3
REMARK    3  A    between atoms: C_7  and  C_11
REMARK    4  A    between atoms: C_8  and  O_9
REMARK    5  A    between atoms: O_9  and  C_10
REMARK    6  A    between atoms: C_11  and  C_13
REMARK    7  A    between atoms: C_11  and  C_31
REMARK    8  A    between atoms: C_13  and  C_14
REMARK    9  A    between atoms: N_19  and  C_22
REMARK   10  A    between atoms: C_22  and  C_23
REMARK   11  A    between atoms: C_24  and  C_25
REMARK                            x       y       z     vdW  Elec       q    Type
REMARK                         _______ _______ _______ _____ _____    ______ ____
ROOT
ATOM      1  C   UNL     1      -1.661  -3.332  -1.571  0.00  0.00    +0.063 C 
ENDROOT
BRANCH   1   2
ATOM      2  C   UNL     1      -2.099  -2.757  -2.893  0.00  0.00    -0.014 A 
ATOM      3  C   UNL     1      -3.364  -2.587  -3.310  0.00  0.00    +0.087 A 
ATOM      4  N   UNL     1      -3.372  -2.038  -4.563  0.00  0.00    -0.360 N 
ATOM      5  H   UNL     1      -4.169  -1.822  -5.072  0.00  0.00    +0.165 HD
ATOM      6  C   UNL     1      -2.080  -1.836  -4.995  0.00  0.00    +0.047 A 
ATOM      7  C   UNL     1      -1.226  -2.272  -3.965  0.00  0.00    +0.003 A 
ATOM      8  C   UNL     1       0.158  -2.182  -4.123  0.00  0.00    +0.010 A 
ATOM      9  C   UNL     1       0.677  -1.667  -5.277  0.00  0.00    +0.001 A 
ATOM     10  C   UNL     1      -0.162  -1.232  -6.294  0.00  0.00    +0.002 A 
ATOM     11  C   UNL     1      -1.530  -1.320  -6.163  0.00  0.00    +0.026 A 
ENDBRANCH   1   2
BRANCH   1  16
ATOM     12  C   UNL     1      -2.025  -0.598   1.021  0.00  0.00    +0.162 A 
ATOM     13  C   UNL     1      -3.228  -0.946   1.614  0.00  0.00    +0.049 A 
ATOM     14  C   UNL     1      -3.919  -2.060   1.176  0.00  0.00    +0.004 A 
ATOM     15  C   UNL     1      -3.411  -2.831   0.146  0.00  0.00    +0.008 A 
ATOM     16  C   UNL     1      -2.211  -2.490  -0.449  0.00  0.00    +0.006 A 
ATOM     17  C   UNL     1      -1.517  -1.370  -0.019  0.00  0.00    +0.165 A 
BRANCH  12  19
ATOM     18  C   UNL     1      -1.927   1.244   2.523  0.00  0.00    +0.277 C 
ATOM     19  O   UNL     1      -1.345   0.498   1.451  0.00  0.00    -0.491 OA
ENDBRANCH  12  19
BRANCH  17  20
ATOM     20  O   UNL     1      -0.340  -1.030  -0.608  0.00  0.00    -0.491 OA
ATOM     21  C   UNL     1       0.858  -1.478   0.031  0.00  0.00    +0.277 C 
ENDBRANCH  17  20
ENDBRANCH   1  16
BRANCH   1  22
ATOM     22  C   UNL     1      -2.185  -4.764  -1.438  0.00  0.00    +0.109 C 
BRANCH  22  23
ATOM     23  C   UNL     1      -1.722  -5.349  -0.129  0.00  0.00    +0.217 C 
ATOM     24  O   UNL     1      -0.921  -4.747   0.555  0.00  0.00    -0.276 OA
ATOM     25  N   UNL     1      -2.200  -6.540   0.283  0.00  0.00    -0.299 N 
ATOM     26  C   UNL     1      -3.168  -7.288  -0.533  0.00  0.00    +0.123 C 
ATOM     27  C   UNL     1      -2.654  -8.721  -0.706  0.00  0.00    +0.103 C 
ATOM     28  N   UNL     1      -2.375  -9.301   0.614  0.00  0.00    -0.296 NA
ATOM     29  C   UNL     1      -1.308  -8.565   1.305  0.00  0.00    +0.103 C 
ATOM     30  C   UNL     1      -1.762  -7.129   1.558  0.00  0.00    +0.123 C 
BRANCH  28  31
ATOM     31  C   UNL     1      -2.045 -10.728   0.504  0.00  0.00    +0.111 C 
BRANCH  31  32
ATOM     32  C   UNL     1      -2.007 -11.343   1.879  0.00  0.00    -0.011 C 
ATOM     33  C   UNL     1      -2.754 -12.404   2.151  0.00  0.00    +0.005 C 
BRANCH  33  34
ATOM     34  C   UNL     1      -2.717 -13.007   3.500  0.00  0.00    -0.025 A 
ATOM     35  C   UNL     1      -1.901 -12.459   4.491  0.00  0.00    +0.008 A 
ATOM     36  C   UNL     1      -1.871 -13.027   5.748  0.00  0.00    +0.001 A 
ATOM     37  C   UNL     1      -2.647 -14.138   6.027  0.00  0.00    +0.000 A 
ATOM     38  C   UNL     1      -3.458 -14.686   5.049  0.00  0.00    +0.001 A 
ATOM     39  C   UNL     1      -3.502 -14.124   3.790  0.00  0.00    +0.008 A 
ENDBRANCH  33  34
ENDBRANCH  31  32
ENDBRANCH  28  31
ENDBRANCH  22  23
ENDBRANCH   1  22
TORSDOF 9
