REMARK  Name = ZINC39974483
REMARK  10 active torsions:
REMARK  status: ('A' for Active; 'I' for Inactive)
REMARK    1  A    between atoms: C_1  and  C_2
REMARK    2  A    between atoms: C_7  and  C_33
REMARK    3  A    between atoms: N_9  and  S_10
REMARK    4  A    between atoms: S_10  and  C_13
REMARK    5  A    between atoms: C_16  and  N_19
REMARK    6  A    between atoms: N_19  and  C_20
REMARK    7  A    between atoms: C_20  and  N_22
REMARK    8  A    between atoms: N_22  and  C_23
REMARK    9  A    between atoms: C_26  and  C_29
REMARK   10  A    between atoms: N_31  and  C_32
REMARK                            x       y       z     vdW  Elec       q    Type
REMARK                         _______ _______ _______ _____ _____    ______ ____
ROOT
ATOM      1  C   UNL     1       0.213  -0.865   4.573  0.00  0.00    +0.106 A 
ATOM      2  C   UNL     1      -0.896  -0.263   4.009  0.00  0.00    +0.030 A 
ATOM      3  C   UNL     1      -1.841   0.341   4.816  0.00  0.00    +0.025 A 
ATOM      4  C   UNL     1      -1.676   0.341   6.195  0.00  0.00    +0.033 A 
ATOM      5  C   UNL     1      -0.561  -0.266   6.758  0.00  0.00    +0.025 A 
ATOM      6  C   UNL     1       0.378  -0.872   5.946  0.00  0.00    +0.030 A 
ENDROOT
BRANCH   1   7
ATOM      7  S   UNL     1       1.417  -1.633   3.540  0.00  0.00    +0.061 S 
ATOM      8  O   UNL     1       2.566  -1.850   4.347  0.00  0.00    -0.153 OA
ATOM      9  O   UNL     1       1.462  -0.877   2.338  0.00  0.00    -0.153 OA
BRANCH   7  16
ATOM     10  C   UNL     1       1.689  -3.809   5.330  0.00  0.00    +0.026 C 
ATOM     11  C   UNL     1       0.895  -4.241   4.095  0.00  0.00    +0.077 C 
ATOM     12  C   UNL     1       1.590  -5.432   3.428  0.00  0.00    +0.020 C 
ATOM     13  C   UNL     1       0.871  -5.770   2.120  0.00  0.00    +0.003 C 
ATOM     14  C   UNL     1       0.948  -4.573   1.170  0.00  0.00    +0.020 C 
ATOM     15  C   UNL     1       0.245  -3.372   1.811  0.00  0.00    +0.077 C 
ATOM     16  N   UNL     1       0.833  -3.129   3.136  0.00  0.00    -0.171 NA
ATOM     17  C   UNL     1      -1.248  -3.669   1.958  0.00  0.00    +0.026 C 
ENDBRANCH   7  16
ENDBRANCH   1   7
BRANCH   4  18
ATOM     18  N   UNL     1      -2.631   0.951   7.015  0.00  0.00    -0.297 N 
ATOM     19  H   UNL     1      -2.351   1.448   7.799  0.00  0.00    +0.154 HD
BRANCH  18  20
ATOM     20  C   UNL     1      -3.941   0.849   6.715  0.00  0.00    +0.139 C 
ATOM     21  S   UNL     1      -4.447  -0.140   5.412  0.00  0.00    -0.018 S 
BRANCH  20  22
ATOM     22  N   UNL     1      -4.854   1.525   7.441  0.00  0.00    -0.297 N 
ATOM     23  H   UNL     1      -4.563   2.150   8.124  0.00  0.00    +0.154 HD
BRANCH  22  24
ATOM     24  C   UNL     1      -6.213   1.327   7.210  0.00  0.00    +0.033 A 
ATOM     25  C   UNL     1      -6.702   0.041   7.001  0.00  0.00    +0.024 A 
ATOM     26  C   UNL     1      -8.045  -0.159   6.773  0.00  0.00    +0.015 A 
ATOM     27  C   UNL     1      -8.918   0.933   6.751  0.00  0.00    +0.037 A 
ATOM     28  C   UNL     1      -8.424   2.223   6.962  0.00  0.00    +0.015 A 
ATOM     29  C   UNL     1      -7.081   2.415   7.195  0.00  0.00    +0.024 A 
BRANCH  27  30
ATOM     30  C   UNL     1     -10.358   0.723   6.507  0.00  0.00    +0.244 C 
ATOM     31  O   UNL     1     -10.786  -0.400   6.323  0.00  0.00    -0.270 OA
ATOM     32  N   UNL     1     -11.198   1.776   6.486  0.00  0.00    -0.314 N 
ATOM     33  C   UNL     1     -12.628   1.568   6.243  0.00  0.00    +0.128 C 
ATOM     34  H   UNL     1     -10.857   2.672   6.633  0.00  0.00    +0.149 HD
ENDBRANCH  27  30
ENDBRANCH  22  24
ENDBRANCH  20  22
ENDBRANCH  18  20
ENDBRANCH   4  18
TORSDOF 7
