REMARK  Name = ZINC12331699
REMARK  10 active torsions:
REMARK  status: ('A' for Active; 'I' for Inactive)
REMARK    1  A    between atoms: C_1  and  C_2
REMARK    2  A    between atoms: C_7  and  C_19
REMARK    3  A    between atoms: C_15  and  O_18
REMARK    4  A    between atoms: C_19  and  N_20
REMARK    5  A    between atoms: N_20  and  C_21
REMARK    6  A    between atoms: C_21  and  C_22
REMARK    7  A    between atoms: C_22  and  C_23
REMARK    8  A    between atoms: C_23  and  N_24
REMARK    9  A    between atoms: C_30  and  C_32
REMARK   10  A    between atoms: C_35  and  C_37
REMARK                            x       y       z     vdW  Elec       q    Type
REMARK                         _______ _______ _______ _____ _____    ______ ____
ROOT
ATOM      1  C   UNL     1     -13.016   4.507  -6.089  0.00  0.00    +0.044 C 
ATOM      2  C   UNL     1     -11.726   3.873  -5.636  0.00  0.00    -0.048 A 
ATOM      3  C   UNL     1     -10.521   4.308  -6.181  0.00  0.00    +0.004 A 
ATOM      4  C   UNL     1      -9.338   3.756  -5.792  0.00  0.00    +0.010 A 
ATOM      5  C   UNL     1      -9.333   2.734  -4.829  0.00  0.00    -0.001 A 
ATOM      6  C   UNL     1      -8.129   2.141  -4.398  0.00  0.00    +0.018 A 
ATOM      7  C   UNL     1      -8.195   1.151  -3.465  0.00  0.00    +0.008 A 
ATOM      8  C   UNL     1      -9.439   0.755  -2.953  0.00  0.00    +0.104 A 
ATOM      9  C   UNL     1     -10.557   2.290  -4.274  0.00  0.00    +0.048 A 
ATOM     10  C   UNL     1     -11.757   2.885  -4.700  0.00  0.00    +0.029 A 
ATOM     11  N   UNL     1      -9.490  -0.251  -2.000  0.00  0.00    -0.314 N 
ATOM     12  C   UNL     1     -10.103  -1.467  -2.550  0.00  0.00    +0.106 C 
ATOM     13  C   UNL     1     -10.011  -2.596  -1.521  0.00  0.00    +0.021 C 
ATOM     14  C   UNL     1     -10.734  -2.173  -0.239  0.00  0.00    +0.034 C 
ATOM     15  C   UNL     1     -10.107  -0.878   0.286  0.00  0.00    +0.132 C 
ATOM     16  C   UNL     1     -10.196   0.202  -0.794  0.00  0.00    +0.137 C 
ATOM     17  N   UNL     1     -10.627   1.292  -3.326  0.00  0.00    -0.343 N 
ATOM     18  H   UNL     1     -11.519   0.977  -2.929  0.00  0.00    +0.167 HD
ENDROOT
BRANCH  15  19
ATOM     19  O   UNL     1     -10.811  -0.446   1.452  0.00  0.00    -0.390 OA
ATOM     20  H   UNL     1     -10.796  -1.083   2.180  0.00  0.00    +0.210 HD
ENDBRANCH  15  19
BRANCH   7  21
ATOM     21  C   UNL     1      -6.932   0.485  -2.980  0.00  0.00    +0.146 C 
BRANCH  21  22
ATOM     22  N   UNL     1      -5.790   0.986  -3.748  0.00  0.00    -0.292 N 
ATOM     23  C   UNL     1      -5.472   0.421  -4.930  0.00  0.00    +0.266 C 
ATOM     24  O   UNL     1      -6.192  -0.436  -5.407  0.00  0.00    -0.268 OA
BRANCH  23  25
ATOM     25  C   UNL     1      -4.254   0.841  -5.643  0.00  0.00    +0.133 A 
ATOM     26  C   UNL     1      -3.971   0.376  -6.902  0.00  0.00    +0.080 A 
ATOM     27  S   UNL     1      -2.469   1.177  -7.238  0.00  0.00    -0.080 S 
ATOM     28  C   UNL     1      -2.308   2.039  -5.742  0.00  0.00    +0.076 A 
ATOM     29  N   UNL     1      -3.382   1.682  -5.086  0.00  0.00    -0.240 NA
ATOM     30  C   UNL     1      -1.205   2.968  -5.305  0.00  0.00    +0.073 C 
ENDBRANCH  23  25
BRANCH  22  31
ATOM     31  C   UNL     1      -4.993   2.102  -3.232  0.00  0.00    +0.110 C 
BRANCH  31  32
ATOM     32  C   UNL     1      -3.857   1.558  -2.363  0.00  0.00    +0.038 C 
BRANCH  32  33
ATOM     33  C   UNL     1      -3.025   2.723  -1.824  0.00  0.00    +0.109 C 
BRANCH  33  34
ATOM     34  N   UNL     1      -1.937   2.202  -0.992  0.00  0.00    -0.301 N 
ATOM     35  C   UNL     1      -2.038   1.968   0.453  0.00  0.00    +0.108 C 
ATOM     36  C   UNL     1      -0.579   1.851   0.957  0.00  0.00    +0.028 C 
ATOM     37  C   UNL     1       0.154   1.383  -0.321  0.00  0.00    +0.097 C 
ATOM     38  C   UNL     1      -0.718   1.876  -1.455  0.00  0.00    +0.216 C 
ATOM     39  O   UNL     1      -0.367   1.966  -2.612  0.00  0.00    -0.276 OA
ENDBRANCH  33  34
ENDBRANCH  32  33
ENDBRANCH  31  32
ENDBRANCH  22  31
ENDBRANCH  21  22
ENDBRANCH   7  21
TORSDOF 8
