REMARK  Name = ZINC58172919
REMARK  6 active torsions:
REMARK  status: ('A' for Active; 'I' for Inactive)
REMARK    1  A    between atoms: C_1  and  C_2
REMARK    2  A    between atoms: C_2  and  C_3
REMARK    3  A    between atoms: C_2  and  N_10
REMARK    4  A    between atoms: N_13  and  C_14
REMARK    5  A    between atoms: C_19  and  C_20
REMARK    6  A    between atoms: C_20  and  C_21
REMARK                            x       y       z     vdW  Elec       q    Type
REMARK                         _______ _______ _______ _____ _____    ______ ____
ROOT
ATOM      1  N   UNL     1       0.416  -0.441  -0.903  0.00  0.00    -0.296 N 
ATOM      2  C   UNL     1      -0.218  -0.615  -2.079  0.00  0.00    +0.304 C 
ATOM      3  O   UNL     1      -1.391  -0.314  -2.187  0.00  0.00    -0.253 OA
ATOM      4  N   UNL     1       0.448  -1.121  -3.135  0.00  0.00    -0.269 N 
ATOM      5  H   UNL     1       1.352  -0.681  -0.816  0.00  0.00    +0.151 HD
ATOM      6  H   UNL     1       1.365  -1.421  -3.033  0.00  0.00    +0.156 HD
ENDROOT
BRANCH   4   7
ATOM      7  C   UNL     1      -0.184  -1.215  -4.381  0.00  0.00    +0.038 A 
ATOM      8  C   UNL     1      -1.542  -1.497  -4.453  0.00  0.00    +0.023 A 
ATOM      9  C   UNL     1      -2.162  -1.588  -5.684  0.00  0.00    +0.002 A 
ATOM     10  C   UNL     1      -1.432  -1.400  -6.843  0.00  0.00    +0.000 A 
ATOM     11  C   UNL     1      -0.080  -1.120  -6.775  0.00  0.00    +0.006 A 
ATOM     12  C   UNL     1       0.545  -1.021  -5.547  0.00  0.00    -0.017 A 
BRANCH  12  13
ATOM     13  C   UNL     1       2.018  -0.709  -5.473  0.00  0.00    +0.132 C 
BRANCH  13  14
ATOM     14  C   UNL     1       2.799  -1.994  -5.370  0.00  0.00    +0.215 C 
ATOM     15  O   UNL     1       2.217  -3.058  -5.359  0.00  0.00    -0.276 OA
ATOM     16  N   UNL     1       4.144  -1.961  -5.292  0.00  0.00    -0.329 N 
ATOM     17  H   UNL     1       4.609  -1.110  -5.301  0.00  0.00    +0.145 HD
ATOM     18  H   UNL     1       4.646  -2.788  -5.226  0.00  0.00    +0.145 HD
ENDBRANCH  13  14
ENDBRANCH  12  13
ENDBRANCH   4   7
BRANCH   1  20
ATOM     19  C   UNL     1      -0.286   1.638   0.177  0.00  0.00    +0.028 C 
ATOM     20  C   UNL     1      -0.307   0.110   0.246  0.00  0.00    +0.075 C 
BRANCH  20  21
ATOM     21  C   UNL     1       0.364  -0.352   1.541  0.00  0.00    +0.012 C 
ATOM     22  C   UNL     1      -0.520  -0.004   2.760  0.00  0.00    +0.009 C 
ATOM     23  C   UNL     1      -0.855  -1.381   3.410  0.00  0.00    -0.010 C 
ATOM     24  C   UNL     1      -1.827  -2.063   2.400  0.00  0.00    +0.004 C 
ATOM     25  C   UNL     1      -0.943  -2.411   1.181  0.00  0.00    +0.004 C 
ATOM     26  C   UNL     1       0.480  -1.907   1.569  0.00  0.00    -0.006 C 
ATOM     27  C   UNL     1       0.469  -2.170   3.116  0.00  0.00    +0.007 C 
ENDBRANCH  20  21
ENDBRANCH   1  20
TORSDOF 5
