REMARK  Name = ZINC40688287
REMARK  6 active torsions:
REMARK  status: ('A' for Active; 'I' for Inactive)
REMARK    1  A    between atoms: C_1  and  C_2
REMARK    2  A    between atoms: C_2  and  C_3
REMARK    3  A    between atoms: C_8  and  N_9
REMARK    4  A    between atoms: C_11  and  N_27
REMARK    5  A    between atoms: C_12  and  N_16
REMARK    6  A    between atoms: C_22  and  C_26
REMARK                            x       y       z     vdW  Elec       q    Type
REMARK                         _______ _______ _______ _____ _____    ______ ____
ROOT
ATOM      1  N   UNL     1      -1.308  -0.339   2.506  0.00  0.00    -0.298 N 
ATOM      2  C   UNL     1      -2.010  -0.586   3.680  0.00  0.00    +0.149 A 
ATOM      3  C   UNL     1      -3.390  -0.381   3.737  0.00  0.00    +0.106 A 
ATOM      4  C   UNL     1      -4.046  -0.645   4.941  0.00  0.00    +0.150 A 
ATOM      5  N   UNL     1      -3.336  -1.078   5.980  0.00  0.00    -0.219 NA
ATOM      6  C   UNL     1      -2.035  -1.259   5.884  0.00  0.00    +0.225 A 
ATOM      7  N   UNL     1      -1.378  -1.027   4.765  0.00  0.00    -0.219 NA
ATOM      8  H   UNL     1      -1.786  -0.113   1.693  0.00  0.00    +0.154 HD
ENDROOT
BRANCH   4   9
ATOM      9  N   UNL     1      -5.420  -0.457   5.053  0.00  0.00    -0.277 N 
ATOM     10  C   UNL     1      -6.059  -0.721   6.250  0.00  0.00    +0.165 A 
ATOM     11  N   UNL     1      -5.545  -1.145   7.381  0.00  0.00    -0.225 NA
ATOM     12  C   UNL     1      -6.296  -1.363   8.483  0.00  0.00    +0.080 A 
ATOM     13  C   UNL     1      -5.871  -1.817   9.753  0.00  0.00    +0.029 A 
ATOM     14  C   UNL     1      -6.771  -1.986  10.773  0.00  0.00    +0.005 A 
ATOM     15  C   UNL     1      -8.122  -1.723  10.598  0.00  0.00    -0.049 A 
ATOM     16  C   UNL     1      -8.572  -1.278   9.369  0.00  0.00    +0.020 A 
ATOM     17  C   UNL     1      -7.678  -1.104   8.342  0.00  0.00    +0.041 A 
ATOM     18  S   UNL     1      -7.792  -0.564   6.654  0.00  0.00    -0.052 S 
ATOM     19  C   UNL     1      -9.089  -1.920  11.737  0.00  0.00    +0.044 C 
ATOM     20  H   UNL     1      -5.930  -0.140   4.291  0.00  0.00    +0.156 HD
ENDBRANCH   4   9
BRANCH   1  26
ATOM     21  C   UNL     1       0.760  -0.730   1.321  0.00  0.00    -0.026 A 
ATOM     22  C   UNL     1       2.139  -0.800   1.315  0.00  0.00    +0.005 A 
ATOM     23  C   UNL     1       2.851  -0.565   2.476  0.00  0.00    +0.000 A 
ATOM     24  C   UNL     1       2.185  -0.259   3.649  0.00  0.00    +0.002 A 
ATOM     25  C   UNL     1       0.806  -0.187   3.663  0.00  0.00    +0.023 A 
ATOM     26  C   UNL     1       0.088  -0.417   2.496  0.00  0.00    +0.036 A 
BRANCH  21  28
ATOM     27  C   UNL     1      -0.309   0.345  -0.641  0.00  0.00    +0.009 C 
ATOM     28  C   UNL     1      -0.015  -0.985   0.054  0.00  0.00    +0.033 C 
ENDBRANCH  21  28
ENDBRANCH   1  26
BRANCH   3  29
ATOM     29  N   UNL     1      -4.098   0.078   2.616  0.00  0.00    -0.353 N 
ATOM     30  H   UNL     1      -3.629   0.257   1.786  0.00  0.00    +0.143 HD
ATOM     31  H   UNL     1      -5.057   0.216   2.671  0.00  0.00    +0.143 HD
ENDBRANCH   3  29
TORSDOF 4
