REMARK  Name = ZINC14133978
REMARK  13 active torsions:
REMARK  status: ('A' for Active; 'I' for Inactive)
REMARK    1  A    between atoms: C_1  and  C_2
REMARK    2  A    between atoms: C_2  and  C_3
REMARK    3  A    between atoms: C_2  and  C_4
REMARK    4  A    between atoms: C_4  and  C_5
REMARK    5  A    between atoms: C_5  and  C_7
REMARK    6  A    between atoms: C_5  and  N_31
REMARK    7  A    between atoms: C_10  and  S_15
REMARK    8  A    between atoms: N_11  and  C_12
REMARK    9  A    between atoms: C_12  and  C_13
REMARK   10  A    between atoms: S_15  and  C_16
REMARK   11  A    between atoms: C_16  and  C_17
REMARK   12  A    between atoms: N_22  and  C_25
REMARK   13  A    between atoms: C_32  and  C_34
REMARK                            x       y       z     vdW  Elec       q    Type
REMARK                         _______ _______ _______ _____ _____    ______ ____
ROOT
ATOM      1  C   UNL     1      -3.040   0.330  -1.126  0.00  0.00    +0.155 A 
ATOM      2  N   UNL     1      -3.550   0.274  -2.324  0.00  0.00    -0.132 NA
ATOM      3  N   UNL     1      -3.043   1.195  -3.062  0.00  0.00    -0.122 NA
ATOM      4  C   UNL     1      -2.179   1.898  -2.368  0.00  0.00    +0.192 A 
ATOM      5  N   UNL     1      -2.146   1.365  -1.112  0.00  0.00    -0.301 N 
ENDROOT
BRANCH   1   6
ATOM      6  C   UNL     1      -3.375  -0.577   0.030  0.00  0.00    +0.142 C 
BRANCH   6   7
ATOM      7  N   UNL     1      -4.827  -0.745   0.115  0.00  0.00    -0.301 N 
ATOM      8  C   UNL     1      -5.402  -1.063   1.292  0.00  0.00    +0.245 C 
ATOM      9  O   UNL     1      -4.714  -1.211   2.284  0.00  0.00    -0.270 OA
ATOM     10  H   UNL     1      -5.376  -0.627  -0.676  0.00  0.00    +0.150 HD
BRANCH   8  11
ATOM     11  C   UNL     1      -6.868  -1.232   1.378  0.00  0.00    +0.037 A 
ATOM     12  C   UNL     1      -7.661  -1.058   0.243  0.00  0.00    +0.013 A 
ATOM     13  C   UNL     1      -9.028  -1.222   0.328  0.00  0.00    +0.001 A 
ATOM     14  C   UNL     1      -9.614  -1.549   1.538  0.00  0.00    +0.000 A 
ATOM     15  C   UNL     1      -8.834  -1.718   2.669  0.00  0.00    +0.001 A 
ATOM     16  C   UNL     1      -7.465  -1.562   2.595  0.00  0.00    +0.013 A 
ENDBRANCH   8  11
ENDBRANCH   6   7
BRANCH   6  17
ATOM     17  C   UNL     1      -2.715  -1.941  -0.184  0.00  0.00    +0.033 C 
BRANCH  17  19
ATOM     18  C   UNL     1      -2.400  -4.223   0.783  0.00  0.00    +0.007 C 
ATOM     19  C   UNL     1      -2.950  -2.820   1.046  0.00  0.00    -0.015 C 
ATOM     20  C   UNL     1      -2.235  -2.210   2.253  0.00  0.00    +0.007 C 
ENDBRANCH  17  19
ENDBRANCH   6  17
ENDBRANCH   1   6
BRANCH   5  21
ATOM     21  C   UNL     1      -1.328   1.812   0.018  0.00  0.00    +0.152 C 
BRANCH  21  22
ATOM     22  C   UNL     1      -0.013   1.076   0.008  0.00  0.00    -0.013 C 
ATOM     23  C   UNL     1       1.113   1.746   0.001  0.00  0.00    +0.005 C 
ENDBRANCH  21  22
ENDBRANCH   5  21
BRANCH   4  24
ATOM     24  S   UNL     1      -1.236   3.269  -2.949  0.00  0.00    -0.077 S 
BRANCH  24  25
ATOM     25  C   UNL     1      -1.826   3.355  -4.658  0.00  0.00    +0.173 C 
BRANCH  25  26
ATOM     26  C   UNL     1      -1.137   4.489  -5.371  0.00  0.00    +0.226 C 
ATOM     27  O   UNL     1      -0.326   5.173  -4.782  0.00  0.00    -0.275 OA
ATOM     28  N   UNL     1      -1.421   4.745  -6.663  0.00  0.00    -0.298 N 
ATOM     29  C   UNL     1      -2.396   3.924  -7.398  0.00  0.00    +0.126 C 
ATOM     30  C   UNL     1      -3.412   4.865  -8.065  0.00  0.00    +0.124 C 
ATOM     31  N   UNL     1      -2.694   5.855  -8.880  0.00  0.00    -0.327 N 
ATOM     32  C   UNL     1      -1.835   6.708  -8.047  0.00  0.00    +0.124 C 
ATOM     33  C   UNL     1      -0.759   5.847  -7.378  0.00  0.00    +0.126 C 
BRANCH  31  34
ATOM     34  C   UNL     1      -3.584   6.623  -9.633  0.00  0.00    +0.030 A 
ATOM     35  C   UNL     1      -3.573   8.008  -9.524  0.00  0.00    +0.023 A 
ATOM     36  C   UNL     1      -4.452   8.765 -10.274  0.00  0.00    +0.002 A 
ATOM     37  C   UNL     1      -5.348   8.146 -11.125  0.00  0.00    +0.000 A 
ATOM     38  C   UNL     1      -5.365   6.768 -11.232  0.00  0.00    +0.002 A 
ATOM     39  C   UNL     1      -4.486   6.005 -10.489  0.00  0.00    +0.023 A 
ENDBRANCH  31  34
ENDBRANCH  25  26
ENDBRANCH  24  25
ENDBRANCH   4  24
TORSDOF 11
