REMARK  Name = ZINC20368397
REMARK  2 active torsions:
REMARK  status: ('A' for Active; 'I' for Inactive)
REMARK    1  A    between atoms: C_3  and  C_8
REMARK    2  A    between atoms: C_5  and  N_7
REMARK                            x       y       z     vdW  Elec       q    Type
REMARK                         _______ _______ _______ _____ _____    ______ ____
ROOT
ATOM      1  C   UNL     1       3.714  -3.251   0.148  0.00  0.00    +0.002 A 
ATOM      2  C   UNL     1       3.216  -1.964   0.157  0.00  0.00    +0.012 A 
ATOM      3  C   UNL     1       1.851  -1.742  -0.030  0.00  0.00    +0.021 A 
ATOM      4  C   UNL     1       0.996  -2.824  -0.238  0.00  0.00    +0.034 A 
ATOM      5  C   UNL     1       1.506  -4.113  -0.252  0.00  0.00    +0.025 A 
ATOM      6  C   UNL     1       2.867  -4.323  -0.058  0.00  0.00    +0.023 A 
ENDROOT
BRANCH   3   7
ATOM      7  C   UNL     1       1.314  -0.364  -0.015  0.00  0.00    +0.164 A 
ATOM      8  N   UNL     1       2.004   0.751  -0.146  0.00  0.00    -0.129 NA
ATOM      9  N   UNL     1       1.211   1.765  -0.085  0.00  0.00    -0.134 NA
ATOM     10  C   UNL     1      -0.011   1.360   0.086  0.00  0.00    +0.134 A 
ATOM     11  N   UNL     1       0.011  -0.002   0.138  0.00  0.00    -0.311 N 
ATOM     12  C   UNL     1      -1.164  -0.851   0.325  0.00  0.00    +0.125 C 
ATOM     13  C   UNL     1      -2.311   0.010   0.867  0.00  0.00    +0.022 C 
ATOM     14  C   UNL     1      -2.471   1.260  -0.004  0.00  0.00    +0.009 C 
ATOM     15  C   UNL     1      -1.267   2.186   0.206  0.00  0.00    +0.076 C 
ENDBRANCH   3   7
BRANCH   5  16
ATOM     16  N   UNL     1       0.654  -5.200  -0.460  0.00  0.00    -0.358 N 
ATOM     17  H   UNL     1       1.059  -6.222  -0.471  0.00  0.00    +0.142 HD
ATOM     18  H   UNL     1      -0.423  -5.033  -0.614  0.00  0.00    +0.142 HD
ENDBRANCH   5  16
TORSDOF 2
