REMARK  Name = ZINC38890327
REMARK  11 active torsions:
REMARK  status: ('A' for Active; 'I' for Inactive)
REMARK    1  A    between atoms: C_1  and  C_2
REMARK    2  A    between atoms: C_2  and  C_3
REMARK    3  A    between atoms: C_3  and  C_5
REMARK    4  A    between atoms: C_3  and  N_6
REMARK    5  A    between atoms: C_7  and  C_9
REMARK    6  A    between atoms: C_14  and  N_15
REMARK    7  A    between atoms: C_16  and  C_18
REMARK    8  A    between atoms: N_23  and  C_25
REMARK    9  A    between atoms: C_25  and  C_26
REMARK   10  A    between atoms: C_28  and  C_31
REMARK   11  A    between atoms: C_34  and  C_37
REMARK                            x       y       z     vdW  Elec       q    Type
REMARK                         _______ _______ _______ _____ _____    ______ ____
ROOT
ATOM      1  C   UNL     1       4.637   0.589   7.166  0.00  0.00    +0.059 C 
ATOM      2  C   UNL     1       4.385  -0.912   7.332  0.00  0.00    +0.009 C 
ATOM      3  C   UNL     1       3.885  -1.182   8.754  0.00  0.00    -0.018 C 
ATOM      4  C   UNL     1       4.910  -0.652   9.758  0.00  0.00    -0.078 C 
ATOM      5  N   UNL     1       5.087   0.793   9.566  0.00  0.00    +0.386 N 
ATOM      6  C   UNL     1       5.634   1.055   8.229  0.00  0.00    -0.065 C 
ATOM      7  H   UNL     1       4.196   1.255   9.659  0.00  0.00    -0.081 HD
ENDROOT
BRANCH   1   9
ATOM      8  N   UNL     1       4.494   0.524   4.697  0.00  0.00    -0.285 N 
ATOM      9  C   UNL     1       5.202   0.856   5.795  0.00  0.00    +0.219 C 
ATOM     10  O   UNL     1       6.295   1.370   5.679  0.00  0.00    -0.275 OA
ATOM     11  H   UNL     1       3.590   0.184   4.788  0.00  0.00    +0.155 HD
BRANCH   8  17
ATOM     12  C   UNL     1       4.261   1.042   2.342  0.00  0.00    +0.058 A 
ATOM     13  C   UNL     1       4.842   1.189   1.080  0.00  0.00    +0.015 A 
ATOM     14  C   UNL     1       6.191   0.962   0.913  0.00  0.00    +0.001 A 
ATOM     15  C   UNL     1       6.976   0.589   1.992  0.00  0.00    +0.002 A 
ATOM     16  C   UNL     1       6.416   0.439   3.245  0.00  0.00    +0.024 A 
ATOM     17  C   UNL     1       5.060   0.669   3.433  0.00  0.00    +0.046 A 
BRANCH  12  19
ATOM     18  N   UNL     1       2.074   1.738   1.499  0.00  0.00    -0.309 N 
ATOM     19  C   UNL     1       2.818   1.283   2.527  0.00  0.00    +0.246 C 
ATOM     20  O   UNL     1       2.300   1.072   3.606  0.00  0.00    -0.270 OA
ATOM     21  H   UNL     1       2.487   1.907   0.638  0.00  0.00    +0.149 HD
BRANCH  18  22
ATOM     22  C   UNL     1       0.640   1.978   1.683  0.00  0.00    +0.070 C 
ATOM     23  C   UNL     1      -0.127   0.672   1.469  0.00  0.00    +0.028 C 
BRANCH  22  25
ATOM     24  C   UNL     1       0.839   4.363   0.964  0.00  0.00    +0.005 C 
ATOM     25  C   UNL     1       0.164   3.022   0.671  0.00  0.00    +0.018 C 
ENDBRANCH  22  25
ENDBRANCH  18  22
ENDBRANCH  12  19
ENDBRANCH   8  17
ENDBRANCH   1   9
BRANCH   5  26
ATOM     26  C   UNL     1       6.013   1.311  10.582  0.00  0.00    +0.022 C 
BRANCH  26  27
ATOM     27  C   UNL     1       5.394   1.163  11.948  0.00  0.00    +0.211 A 
ATOM     28  N   UNL     1       5.520   0.131  12.733  0.00  0.00    -0.193 NA
ATOM     29  C   UNL     1       4.837   0.334  13.874  0.00  0.00    +0.202 A 
ATOM     30  N   UNL     1       4.267   1.512  13.816  0.00  0.00    -0.056 NA
ATOM     31  O   UNL     1       4.626   2.072  12.562  0.00  0.00    -0.340 OA
BRANCH  29  32
ATOM     32  C   UNL     1       4.744  -0.619  15.008  0.00  0.00    +0.022 A 
ATOM     33  C   UNL     1       5.404  -1.844  14.948  0.00  0.00    +0.012 A 
ATOM     34  C   UNL     1       5.314  -2.726  16.006  0.00  0.00    +0.004 A 
ATOM     35  C   UNL     1       4.570  -2.395  17.124  0.00  0.00    -0.050 A 
ATOM     36  C   UNL     1       3.913  -1.180  17.189  0.00  0.00    +0.004 A 
ATOM     37  C   UNL     1       4.001  -0.288  16.140  0.00  0.00    +0.012 A 
ATOM     38  C   UNL     1       4.475  -3.362  18.276  0.00  0.00    +0.044 C 
ENDBRANCH  29  32
ENDBRANCH  26  27
ENDBRANCH   5  26
TORSDOF 8
