REMARK  Name = ZINC56777706
REMARK  6 active torsions:
REMARK  status: ('A' for Active; 'I' for Inactive)
REMARK    1  A    between atoms: C_3  and  C_22
REMARK    2  A    between atoms: C_5  and  N_7
REMARK    3  A    between atoms: N_10  and  C_11
REMARK    4  A    between atoms: C_11  and  C_12
REMARK    5  A    between atoms: C_15  and  S_18
REMARK    6  A    between atoms: S_18  and  N_21
REMARK                            x       y       z     vdW  Elec       q    Type
REMARK                         _______ _______ _______ _____ _____    ______ ____
ROOT
ATOM      1  N   UNL     1       1.226  -2.087  -0.021  0.00  0.00    -0.269 N 
ATOM      2  C   UNL     1       0.071  -2.773   0.088  0.00  0.00    +0.304 C 
ATOM      3  O   UNL     1      -0.990  -2.179   0.102  0.00  0.00    -0.252 OA
ATOM      4  N   UNL     1       0.092  -4.117   0.181  0.00  0.00    -0.295 N 
ATOM      5  H   UNL     1       2.066  -2.563  -0.110  0.00  0.00    +0.156 HD
ATOM      6  H   UNL     1       0.938  -4.591   0.170  0.00  0.00    +0.151 HD
ENDROOT
BRANCH   1  11
ATOM      7  C   UNL     1       2.133   1.406  -0.746  0.00  0.00    +0.002 A 
ATOM      8  C   UNL     1       1.202   2.089   0.012  0.00  0.00    +0.010 A 
ATOM      9  C   UNL     1       0.266   1.384   0.769  0.00  0.00    +0.009 A 
ATOM     10  C   UNL     1       0.275  -0.011   0.757  0.00  0.00    +0.034 A 
ATOM     11  C   UNL     1       1.213  -0.687  -0.007  0.00  0.00    +0.035 A 
ATOM     12  C   UNL     1       2.142   0.024  -0.757  0.00  0.00    +0.023 A 
BRANCH   9  13
ATOM     13  C   UNL     1      -0.732   2.112   1.581  0.00  0.00    +0.108 A 
ATOM     14  N   UNL     1      -1.689   1.636   2.364  0.00  0.00    -0.247 NA
ATOM     15  C   UNL     1      -2.495   2.437   3.020  0.00  0.00    +0.119 A 
ATOM     16  C   UNL     1      -2.355   3.784   2.902  0.00  0.00    +0.067 A 
ATOM     17  S   UNL     1      -0.966   3.874   1.778  0.00  0.00    -0.076 S 
ENDBRANCH   9  13
ENDBRANCH   1  11
BRANCH   4  18
ATOM     18  C   UNL     1      -1.164  -4.862   0.300  0.00  0.00    +0.141 C 
BRANCH  18  19
ATOM     19  C   UNL     1      -0.866  -6.337   0.388  0.00  0.00    -0.030 A 
ATOM     20  C   UNL     1      -0.787  -7.096  -0.764  0.00  0.00    +0.007 A 
ATOM     21  C   UNL     1      -0.513  -8.449  -0.683  0.00  0.00    +0.029 A 
ATOM     22  C   UNL     1      -0.319  -9.042   0.550  0.00  0.00    +0.105 A 
ATOM     23  C   UNL     1      -0.398  -8.283   1.702  0.00  0.00    +0.029 A 
ATOM     24  C   UNL     1      -0.667  -6.929   1.621  0.00  0.00    +0.007 A 
BRANCH  22  25
ATOM     25  S   UNL     1       0.028 -10.767   0.653  0.00  0.00    +0.056 S 
ATOM     26  O   UNL     1      -0.371 -11.184   1.952  0.00  0.00    -0.153 OA
ATOM     27  O   UNL     1      -0.492 -11.357  -0.530  0.00  0.00    -0.153 OA
BRANCH  25  28
ATOM     28  N   UNL     1       1.673 -10.940   0.585  0.00  0.00    -0.204 NA
ATOM     29  H   UNL     1       2.240 -10.157   0.503  0.00  0.00    +0.144 HD
ATOM     30  H   UNL     1       2.070 -11.824   0.628  0.00  0.00    +0.144 HD
ENDBRANCH  25  28
ENDBRANCH  22  25
ENDBRANCH  18  19
ENDBRANCH   4  18
TORSDOF 6
