REMARK  Name = ZINC10058742
REMARK  10 active torsions:
REMARK  status: ('A' for Active; 'I' for Inactive)
REMARK    1  A    between atoms: C_1  and  C_2
REMARK    2  A    between atoms: C_8  and  N_10
REMARK    3  A    between atoms: C_14  and  C_16
REMARK    4  A    between atoms: C_16  and  S_17
REMARK    5  A    between atoms: S_17  and  C_18
REMARK    6  A    between atoms: N_31  and  C_32
REMARK    7  A    between atoms: C_32  and  C_33
REMARK    8  A    between atoms: C_33  and  C_34
REMARK    9  A    between atoms: C_34  and  C_35
REMARK   10  A    between atoms: C_34  and  C_36
REMARK                            x       y       z     vdW  Elec       q    Type
REMARK                         _______ _______ _______ _____ _____    ______ ____
ROOT
ATOM      1  C   UNL     1       4.096   1.861  -0.027  0.00  0.00    +0.198 A 
ATOM      2  N   UNL     1       4.090   3.172  -0.019  0.00  0.00    -0.120 NA
ATOM      3  N   UNL     1       5.420   3.611  -0.029  0.00  0.00    -0.109 NA
ATOM      4  C   UNL     1       6.200   2.554  -0.042  0.00  0.00    +0.240 A 
ATOM      5  N   UNL     1       5.399   1.444  -0.036  0.00  0.00    -0.256 N 
ATOM      6  C   UNL     1       5.958   0.168  -0.054  0.00  0.00    +0.064 A 
ATOM      7  C   UNL     1       5.156  -0.963  -0.054  0.00  0.00    +0.027 A 
ATOM      8  C   UNL     1       5.736  -2.216  -0.067  0.00  0.00    +0.002 A 
ATOM      9  C   UNL     1       7.114  -2.355  -0.081  0.00  0.00    +0.001 A 
ATOM     10  C   UNL     1       7.928  -1.242  -0.082  0.00  0.00    +0.015 A 
ATOM     11  C   UNL     1       7.355   0.029  -0.068  0.00  0.00    +0.064 A 
ATOM     12  C   UNL     1       8.189   1.245  -0.069  0.00  0.00    +0.263 A 
ATOM     13  O   UNL     1       9.402   1.163  -0.081  0.00  0.00    -0.267 OA
ATOM     14  N   UNL     1       7.582   2.449  -0.056  0.00  0.00    -0.277 N 
ENDROOT
BRANCH   1  15
ATOM     15  S   UNL     1       2.675   0.819  -0.019  0.00  0.00    -0.076 S 
BRANCH  15  16
ATOM     16  C   UNL     1       1.280   1.979   0.001  0.00  0.00    +0.173 C 
BRANCH  16  21
ATOM     17  N   UNL     1      -3.525   1.834   0.029  0.00  0.00    -0.296 N 
ATOM     18  C   UNL     1      -2.349   1.176   0.020  0.00  0.00    +0.306 C 
ATOM     19  O   UNL     1      -2.332  -0.039   0.013  0.00  0.00    -0.252 OA
ATOM     20  N   UNL     1      -1.191   1.866   0.018  0.00  0.00    -0.239 N 
ATOM     21  C   UNL     1      -0.014   1.208   0.009  0.00  0.00    +0.231 C 
ATOM     22  O   UNL     1       0.002  -0.004   0.002  0.00  0.00    -0.274 OA
ATOM     23  H   UNL     1      -3.538   2.804   0.034  0.00  0.00    +0.151 HD
ATOM     24  H   UNL     1      -1.204   2.836   0.023  0.00  0.00    +0.159 HD
BRANCH  17  31
ATOM     25  C   UNL     1      -5.526   2.327  -2.006  0.00  0.00    +0.009 C 
ATOM     26  C   UNL     1      -5.893   1.950  -0.569  0.00  0.00    +0.006 C 
ATOM     27  C   UNL     1      -6.056   3.222   0.266  0.00  0.00    +0.005 C 
ATOM     28  C   UNL     1      -6.423   2.845   1.703  0.00  0.00    +0.000 C 
ATOM     29  C   UNL     1      -5.313   1.980   2.303  0.00  0.00    +0.002 C 
ATOM     30  C   UNL     1      -5.150   0.708   1.467  0.00  0.00    +0.022 C 
ATOM     31  C   UNL     1      -4.783   1.085   0.031  0.00  0.00    +0.077 C 
ENDBRANCH  17  31
ENDBRANCH  16  21
ENDBRANCH  15  16
ENDBRANCH   1  15
BRANCH  14  32
ATOM     32  C   UNL     1       8.398   3.667  -0.056  0.00  0.00    +0.128 C 
BRANCH  32  33
ATOM     33  C   UNL     1       8.695   4.081   1.386  0.00  0.00    +0.025 C 
BRANCH  33  34
ATOM     34  C   UNL     1       9.546   5.353   1.387  0.00  0.00    -0.016 C 
ATOM     35  C   UNL     1       9.739   5.837   2.825  0.00  0.00    +0.007 C 
ATOM     36  C   UNL     1      10.910   5.053   0.762  0.00  0.00    +0.007 C 
ENDBRANCH  33  34
ENDBRANCH  32  33
ENDBRANCH  14  32
TORSDOF 7
