REMARK  Name = ZINC20115204
REMARK  7 active torsions:
REMARK  status: ('A' for Active; 'I' for Inactive)
REMARK    1  A    between atoms: C_1  and  C_2
REMARK    2  A    between atoms: C_2  and  C_18
REMARK    3  A    between atoms: N_3  and  N_4
REMARK    4  A    between atoms: C_5  and  C_7
REMARK    5  A    between atoms: C_16  and  O_17
REMARK    6  A    between atoms: C_20  and  O_25
REMARK    7  A    between atoms: C_23  and  O_24
REMARK                            x       y       z     vdW  Elec       q    Type
REMARK                         _______ _______ _______ _____ _____    ______ ____
ROOT
ATOM      1  N   UNL     1      -0.242  -2.040   1.115  0.00  0.00    -0.203 N 
ATOM      2  C   UNL     1      -0.404  -2.704   2.276  0.00  0.00    +0.267 C 
ATOM      3  O   UNL     1      -0.307  -2.113   3.334  0.00  0.00    -0.268 OA
ATOM      4  H   UNL     1      -0.246  -2.523   0.274  0.00  0.00    +0.178 HD
ENDROOT
BRANCH   2   5
ATOM      5  C   UNL     1      -0.700  -4.150   2.263  0.00  0.00    +0.080 A 
ATOM      6  C   UNL     1      -0.696  -4.843   1.063  0.00  0.00    +0.025 A 
ATOM      7  C   UNL     1      -0.977  -6.216   1.057  0.00  0.00    -0.017 A 
ATOM      8  C   UNL     1      -0.982  -6.951  -0.143  0.00  0.00    +0.008 A 
ATOM      9  C   UNL     1      -1.258  -8.283  -0.116  0.00  0.00    +0.001 A 
ATOM     10  C   UNL     1      -1.538  -8.934   1.085  0.00  0.00    +0.001 A 
ATOM     11  C   UNL     1      -1.543  -8.256   2.265  0.00  0.00    +0.008 A 
ATOM     12  C   UNL     1      -1.262  -6.879   2.279  0.00  0.00    -0.014 A 
ATOM     13  C   UNL     1      -1.260  -6.154   3.482  0.00  0.00    +0.054 A 
ATOM     14  C   UNL     1      -0.978  -4.819   3.474  0.00  0.00    +0.130 A 
BRANCH  14  15
ATOM     15  O   UNL     1      -0.972  -4.126   4.641  0.00  0.00    -0.506 OA
ATOM     16  H   UNL     1      -1.830  -3.749   4.879  0.00  0.00    +0.292 HD
ENDBRANCH  14  15
ENDBRANCH   2   5
BRANCH   1  19
ATOM     17  C   UNL     1       0.083   1.508   0.010  0.00  0.00    +0.068 C 
ATOM     18  C   UNL     1      -0.016   0.004   0.002  0.00  0.00    +0.067 C 
ATOM     19  N   UNL     1      -0.066  -0.650   1.122  0.00  0.00    -0.184 NA
BRANCH  18  20
ATOM     20  C   UNL     1      -0.057  -0.724  -1.279  0.00  0.00    +0.042 A 
ATOM     21  C   UNL     1      -1.204  -1.429  -1.650  0.00  0.00    +0.058 A 
ATOM     22  C   UNL     1      -1.235  -2.110  -2.853  0.00  0.00    +0.118 A 
ATOM     23  C   UNL     1      -0.129  -2.094  -3.693  0.00  0.00    +0.049 A 
ATOM     24  C   UNL     1       1.010  -1.399  -3.333  0.00  0.00    +0.049 A 
ATOM     25  C   UNL     1       1.054  -0.708  -2.134  0.00  0.00    +0.126 A 
BRANCH  25  26
ATOM     26  O   UNL     1       2.173  -0.021  -1.784  0.00  0.00    -0.506 OA
ATOM     27  H   UNL     1       2.847  -0.562  -1.350  0.00  0.00    +0.292 HD
ENDBRANCH  25  26
BRANCH  22  28
ATOM     28  O   UNL     1      -2.352  -2.796  -3.216  0.00  0.00    -0.507 OA
ATOM     29  H   UNL     1      -2.989  -2.273  -3.720  0.00  0.00    +0.292 HD
ENDBRANCH  22  28
ENDBRANCH  18  20
ENDBRANCH   1  19
TORSDOF 6
