REMARK  Name = ZINC53484427
REMARK  9 active torsions:
REMARK  status: ('A' for Active; 'I' for Inactive)
REMARK    1  A    between atoms: C_1  and  C_2
REMARK    2  A    between atoms: C_2  and  C_3
REMARK    3  A    between atoms: C_3  and  C_5
REMARK    4  A    between atoms: C_3  and  C_6
REMARK    5  A    between atoms: C_6  and  C_8
REMARK    6  A    between atoms: C_6  and  N_24
REMARK    7  A    between atoms: N_10  and  C_11
REMARK    8  A    between atoms: C_11  and  C_12
REMARK    9  A    between atoms: C_12  and  C_17
REMARK                            x       y       z     vdW  Elec       q    Type
REMARK                         _______ _______ _______ _____ _____    ______ ____
ROOT
ATOM      1  C   UNL     1       1.664  -2.433  -0.033  0.00  0.00    +0.234 C 
ATOM      2  O   UNL     1       1.154  -3.139   0.811  0.00  0.00    -0.274 OA
ATOM      3  N   UNL     1       2.925  -1.988   0.133  0.00  0.00    -0.313 N 
ATOM      4  H   UNL     1       3.333  -1.424  -0.543  0.00  0.00    +0.149 HD
ENDROOT
BRANCH   1   5
ATOM      5  C   UNL     1       0.886  -2.052  -1.266  0.00  0.00    +0.163 C 
BRANCH   5   6
ATOM      6  N   UNL     1      -0.447  -2.656  -1.209  0.00  0.00    -0.288 N 
ATOM      7  C   UNL     1      -1.128  -2.896  -2.347  0.00  0.00    +0.298 C 
ATOM      8  O   UNL     1      -0.635  -2.612  -3.421  0.00  0.00    -0.253 OA
ATOM      9  N   UNL     1      -2.355  -3.452  -2.294  0.00  0.00    -0.313 N 
ATOM     10  H   UNL     1      -0.841  -2.883  -0.351  0.00  0.00    +0.151 HD
ATOM     11  H   UNL     1      -2.748  -3.679  -1.437  0.00  0.00    +0.146 HD
ATOM     12  H   UNL     1      -2.845  -3.625  -3.113  0.00  0.00    +0.146 HD
ENDBRANCH   5   6
BRANCH   5  13
ATOM     13  C   UNL     1       0.754  -0.529  -1.336  0.00  0.00    +0.015 C 
ATOM     14  C   UNL     1      -0.035  -0.143  -2.588  0.00  0.00    +0.010 C 
BRANCH  13  16
ATOM     15  C   UNL     1      -0.004   1.506  -0.101  0.00  0.00    +0.004 C 
ATOM     16  C   UNL     1       0.018  -0.024  -0.093  0.00  0.00    +0.002 C 
ENDBRANCH  13  16
ENDBRANCH   5  13
ENDBRANCH   1   5
BRANCH   3  17
ATOM     17  C   UNL     1       3.681  -2.359   1.332  0.00  0.00    +0.115 C 
BRANCH  17  18
ATOM     18  C   UNL     1       5.113  -1.833   1.214  0.00  0.00    +0.011 C 
ATOM     19  C   UNL     1       5.774  -2.386  -0.061  0.00  0.00    +0.013 C 
ATOM     20  C   UNL     1       6.999  -3.204   0.397  0.00  0.00    +0.001 C 
ATOM     21  C   UNL     1       6.667  -3.601   1.857  0.00  0.00    +0.001 C 
ATOM     22  C   UNL     1       5.959  -2.335   2.402  0.00  0.00    +0.013 C 
BRANCH  18  23
ATOM     23  C   UNL     1       5.109  -0.327   1.184  0.00  0.00    -0.040 A 
ATOM     24  C   UNL     1       3.929   0.365   1.381  0.00  0.00    +0.007 A 
ATOM     25  C   UNL     1       3.924   1.747   1.354  0.00  0.00    +0.038 A 
ATOM     26  C   UNL     1       5.102   2.438   1.128  0.00  0.00    +0.123 A 
ATOM     27  C   UNL     1       6.284   1.744   0.931  0.00  0.00    +0.038 A 
ATOM     28  C   UNL     1       6.287   0.363   0.964  0.00  0.00    +0.007 A 
ATOM     29  F   UNL     1       5.098   3.789   1.101  0.00  0.00    -0.205 F 
ENDBRANCH  18  23
ENDBRANCH  17  18
ENDBRANCH   3  17
TORSDOF 7
