REMARK  Name = ZINC16932629
REMARK  6 active torsions:
REMARK  status: ('A' for Active; 'I' for Inactive)
REMARK    1  A    between atoms: C_1  and  C_2
REMARK    2  A    between atoms: C_5  and  N_9
REMARK    3  A    between atoms: C_6  and  O_8
REMARK    4  A    between atoms: N_11  and  C_23
REMARK    5  A    between atoms: C_15  and  C_16
REMARK    6  A    between atoms: C_23  and  C_24
REMARK                            x       y       z     vdW  Elec       q    Type
REMARK                         _______ _______ _______ _____ _____    ______ ____
ROOT
ATOM      1  N   UNL     1      -5.033   2.022   0.018  0.00  0.00    -0.222 NA
ATOM      2  C   UNL     1      -4.502   1.639   1.156  0.00  0.00    +0.169 C 
ATOM      3  N   UNL     1      -3.326   0.952   1.365  0.00  0.00    -0.242 N 
ATOM      4  C   UNL     1      -2.936   0.638   2.589  0.00  0.00    +0.259 C 
ATOM      5  O   UNL     1      -1.903   0.028   2.791  0.00  0.00    -0.269 OA
ATOM      6  C   UNL     1      -3.812   1.069   3.701  0.00  0.00    +0.078 C 
ATOM      7  C   UNL     1      -3.660   0.888   5.035  0.00  0.00    +0.028 C 
ATOM      8  S   UNL     1      -5.129   1.884   2.810  0.00  0.00    -0.049 S 
ENDROOT
BRANCH   1  13
ATOM      9  C   UNL     1     -10.158   4.398  -0.049  0.00  0.00    +0.044 C 
ATOM     10  C   UNL     1      -8.790   3.765  -0.033  0.00  0.00    -0.047 A 
ATOM     11  C   UNL     1      -8.583   2.590   0.667  0.00  0.00    +0.005 A 
ATOM     12  C   UNL     1      -7.335   2.001   0.684  0.00  0.00    +0.032 A 
ATOM     13  C   UNL     1      -6.275   2.599   0.001  0.00  0.00    +0.108 A 
ATOM     14  C   UNL     1      -6.489   3.788  -0.707  0.00  0.00    +0.142 A 
ATOM     15  C   UNL     1      -7.747   4.363  -0.719  0.00  0.00    +0.051 A 
BRANCH  14  16
ATOM     16  O   UNL     1      -5.464   4.375  -1.381  0.00  0.00    -0.505 OA
ATOM     17  H   UNL     1      -5.375   4.078  -2.297  0.00  0.00    +0.292 HD
ENDBRANCH  14  16
ENDBRANCH   1  13
BRANCH   7  18
ATOM     18  C   UNL     1      -4.605   1.512   5.974  0.00  0.00    -0.021 A 
ATOM     19  C   UNL     1      -4.567   1.209   7.344  0.00  0.00    +0.027 A 
ATOM     20  C   UNL     1      -5.469   1.821   8.188  0.00  0.00    +0.111 A 
ATOM     21  N   UNL     1      -6.364   2.672   7.722  0.00  0.00    -0.263 NA
ATOM     22  C   UNL     1      -6.439   2.981   6.442  0.00  0.00    +0.111 A 
ATOM     23  C   UNL     1      -5.574   2.422   5.526  0.00  0.00    +0.027 A 
ENDBRANCH   7  18
BRANCH   3  24
ATOM     24  C   UNL     1      -2.502   0.559   0.218  0.00  0.00    +0.142 C 
BRANCH  24  25
ATOM     25  C   UNL     1      -1.515   1.656  -0.090  0.00  0.00    -0.015 C 
ATOM     26  C   UNL     1      -0.234   1.388  -0.141  0.00  0.00    +0.005 C 
ENDBRANCH  24  25
ENDBRANCH   3  24
TORSDOF 5
