REMARK  Name = ZINC36735679
REMARK  13 active torsions:
REMARK  status: ('A' for Active; 'I' for Inactive)
REMARK    1  A    between atoms: C_1  and  C_2
REMARK    2  A    between atoms: C_2  and  N_3
REMARK    3  A    between atoms: N_3  and  C_4
REMARK    4  A    between atoms: N_3  and  S_6
REMARK    5  A    between atoms: C_4  and  C_5
REMARK    6  A    between atoms: S_6  and  C_9
REMARK    7  A    between atoms: C_11  and  C_17
REMARK    8  A    between atoms: C_14  and  O_15
REMARK    9  A    between atoms: O_15  and  C_16
REMARK   10  A    between atoms: N_19  and  C_20
REMARK   11  A    between atoms: C_20  and  C_21
REMARK   12  A    between atoms: C_21  and  C_23
REMARK   13  A    between atoms: C_21  and  N_30
REMARK                            x       y       z     vdW  Elec       q    Type
REMARK                         _______ _______ _______ _____ _____    ______ ____
ROOT
ATOM      1  C   UNL     1       5.373   1.374   4.928  0.00  0.00    +0.244 C 
ATOM      2  O   UNL     1       5.642   0.415   5.625  0.00  0.00    -0.270 OA
ATOM      3  N   UNL     1       6.080   2.515   5.049  0.00  0.00    -0.313 N 
ATOM      4  H   UNL     1       5.866   3.280   4.492  0.00  0.00    +0.149 HD
ENDROOT
BRANCH   1   7
ATOM      5  C   UNL     1       2.511   0.031   2.907  0.00  0.00    +0.148 A 
ATOM      6  C   UNL     1       3.538   0.107   3.821  0.00  0.00    +0.045 A 
ATOM      7  C   UNL     1       4.272   1.289   3.948  0.00  0.00    +0.039 A 
ATOM      8  C   UNL     1       3.961   2.390   3.146  0.00  0.00    +0.017 A 
ATOM      9  C   UNL     1       2.933   2.306   2.233  0.00  0.00    +0.048 A 
ATOM     10  C   UNL     1       2.209   1.126   2.106  0.00  0.00    +0.146 A 
BRANCH   5  11
ATOM     11  S   UNL     1       1.584  -1.459   2.746  0.00  0.00    +0.064 S 
ATOM     12  O   UNL     1       2.155  -2.392   3.652  0.00  0.00    -0.153 OA
ATOM     13  O   UNL     1       1.472  -1.719   1.353  0.00  0.00    -0.153 OA
BRANCH  11  14
ATOM     14  N   UNL     1       0.053  -1.144   3.293  0.00  0.00    -0.177 NA
BRANCH  14  16
ATOM     15  C   UNL     1      -1.495   0.660   2.718  0.00  0.00    +0.022 C 
ATOM     16  C   UNL     1      -0.992  -0.737   2.350  0.00  0.00    +0.106 C 
ENDBRANCH  14  16
BRANCH  14  17
ATOM     17  C   UNL     1      -0.256  -1.273   4.719  0.00  0.00    +0.106 C 
ATOM     18  C   UNL     1      -0.838  -2.662   4.991  0.00  0.00    +0.022 C 
ENDBRANCH  14  17
ENDBRANCH  11  14
ENDBRANCH   5  11
BRANCH  10  19
ATOM     19  O   UNL     1       1.200   1.046   1.202  0.00  0.00    -0.493 OA
ATOM     20  C   UNL     1       0.943   2.209   0.412  0.00  0.00    +0.277 C 
ENDBRANCH  10  19
ENDBRANCH   1   7
BRANCH   3  21
ATOM     21  C   UNL     1       7.173   2.600   6.021  0.00  0.00    +0.094 C 
BRANCH  21  22
ATOM     22  C   UNL     1       7.722   4.028   6.047  0.00  0.00    -0.019 C 
BRANCH  22  23
ATOM     23  C   UNL     1       8.402   4.328   4.736  0.00  0.00    -0.041 A 
ATOM     24  C   UNL     1       7.743   5.063   3.768  0.00  0.00    +0.003 A 
ATOM     25  C   UNL     1       8.367   5.338   2.566  0.00  0.00    +0.000 A 
ATOM     26  C   UNL     1       9.650   4.880   2.331  0.00  0.00    +0.001 A 
ATOM     27  C   UNL     1      10.310   4.146   3.298  0.00  0.00    +0.020 A 
ATOM     28  C   UNL     1       9.688   3.875   4.504  0.00  0.00    +0.043 A 
ATOM     29 CL   UNL     1      10.519   2.958   5.722  0.00  0.00    -0.083 Cl
ENDBRANCH  22  23
BRANCH  22  30
ATOM     30  N   UNL     1       6.618   4.974   6.254  0.00  0.00    +0.385 N 
ATOM     31  C   UNL     1       5.905   4.660   7.519  0.00  0.00    -0.078 C 
ATOM     32  C   UNL     1       5.203   5.996   7.871  0.00  0.00    -0.020 C 
ATOM     33  C   UNL     1       6.245   7.056   7.446  0.00  0.00    -0.020 C 
ATOM     34  C   UNL     1       7.145   6.346   6.418  0.00  0.00    -0.078 C 
ATOM     35  H   UNL     1       5.978   4.938   5.475  0.00  0.00    -0.081 HD
ENDBRANCH  22  30
ENDBRANCH  21  22
ENDBRANCH   3  21
TORSDOF 10
