REMARK  Name = ZINC20478590
REMARK  6 active torsions:
REMARK  status: ('A' for Active; 'I' for Inactive)
REMARK    1  A    between atoms: C_3  and  S_20
REMARK    2  A    between atoms: C_6  and  N_7
REMARK    3  A    between atoms: N_7  and  C_8
REMARK    4  A    between atoms: C_8  and  N_10
REMARK    5  A    between atoms: C_11  and  C_13
REMARK    6  A    between atoms: S_20  and  N_23
REMARK                            x       y       z     vdW  Elec       q    Type
REMARK                         _______ _______ _______ _____ _____    ______ ____
ROOT
ATOM      1  C   UNL     1      -2.371   1.325   3.276  0.00  0.00    +0.025 A 
ATOM      2  C   UNL     1      -1.667   0.944   2.151  0.00  0.00    +0.031 A 
ATOM      3  C   UNL     1      -0.954   1.883   1.428  0.00  0.00    +0.113 A 
ATOM      4  C   UNL     1      -0.940   3.205   1.832  0.00  0.00    +0.031 A 
ATOM      5  C   UNL     1      -1.646   3.594   2.953  0.00  0.00    +0.025 A 
ATOM      6  C   UNL     1      -2.363   2.653   3.681  0.00  0.00    +0.033 A 
ENDROOT
BRANCH   3   7
ATOM      7  S   UNL     1      -0.056   1.393  -0.006  0.00  0.00    +0.102 S 
ATOM      8  O   UNL     1       0.220   0.006   0.141  0.00  0.00    -0.146 OA
ATOM      9  O   UNL     1       0.971   2.357  -0.193  0.00  0.00    -0.146 OA
BRANCH   7  10
ATOM     10  N   UNL     1      -1.081   1.536  -1.299  0.00  0.00    -0.093 NA
ATOM     11  C   UNL     1      -1.546   2.775  -1.673  0.00  0.00    +0.212 C 
ATOM     12  N   UNL     1      -1.180   3.836  -1.010  0.00  0.00    -0.369 N 
ATOM     13  N   UNL     1      -2.397   2.894  -2.746  0.00  0.00    -0.369 N 
ATOM     14  H   UNL     1      -1.552   4.827  -1.309  0.00  0.00    +0.159 HD
ATOM     15  H   UNL     1      -2.769   3.885  -3.045  0.00  0.00    +0.159 HD
ATOM     16  H   UNL     1      -2.706   1.999  -3.305  0.00  0.00    +0.159 HD
ATOM     17  H   UNL     1      -0.499   3.740  -0.151  0.00  0.00    +0.159 HD
ENDBRANCH   7  10
ENDBRANCH   3   7
BRANCH   6  18
ATOM     18  N   UNL     1      -3.076   3.043   4.820  0.00  0.00    -0.297 N 
ATOM     19  H   UNL     1      -3.655   3.978   4.813  0.00  0.00    +0.154 HD
BRANCH  18  20
ATOM     20  C   UNL     1      -3.054   2.272   5.925  0.00  0.00    +0.141 C 
ATOM     21  S   UNL     1      -2.043   0.892   5.986  0.00  0.00    -0.018 S 
BRANCH  20  22
ATOM     22  N   UNL     1      -3.828   2.588   6.982  0.00  0.00    -0.264 N 
ATOM     23  C   UNL     1      -3.806   1.817   8.088  0.00  0.00    +0.251 C 
ATOM     24  O   UNL     1      -3.088   0.837   8.131  0.00  0.00    -0.270 OA
ATOM     25  H   UNL     1      -4.478   3.474   6.943  0.00  0.00    +0.157 HD
BRANCH  23  26
ATOM     26  C   UNL     1      -4.654   2.163   9.246  0.00  0.00    +0.055 A 
ATOM     27  C   UNL     1      -4.640   1.369  10.401  0.00  0.00    +0.017 A 
ATOM     28  C   UNL     1      -5.452   1.736  11.458  0.00  0.00    +0.041 A 
ATOM     29  C   UNL     1      -6.246   2.866  11.343  0.00  0.00    +0.129 A 
ATOM     30  N   UNL     1      -6.239   3.594  10.242  0.00  0.00    -0.243 NA
ATOM     31  C   UNL     1      -5.479   3.288   9.211  0.00  0.00    +0.125 A 
ATOM     32 CL   UNL     1      -7.267   3.331  12.668  0.00  0.00    -0.062 Cl
ENDBRANCH  23  26
ENDBRANCH  20  22
ENDBRANCH  18  20
ENDBRANCH   6  18
TORSDOF 6
