REMARK  Name = ZINC40645298
REMARK  8 active torsions:
REMARK  status: ('A' for Active; 'I' for Inactive)
REMARK    1  A    between atoms: C_1  and  C_2
REMARK    2  A    between atoms: C_2  and  C_32
REMARK    3  A    between atoms: C_4  and  N_10
REMARK    4  A    between atoms: C_6  and  C_8
REMARK    5  A    between atoms: C_6  and  C_9
REMARK    6  A    between atoms: C_12  and  N_29
REMARK    7  A    between atoms: C_13  and  N_17
REMARK    8  A    between atoms: C_21  and  C_24
REMARK                            x       y       z     vdW  Elec       q    Type
REMARK                         _______ _______ _______ _____ _____    ______ ____
ROOT
ATOM      1  N   UNL     1       1.633  -2.333  -2.511  0.00  0.00    -0.324 N 
ATOM      2  C   UNL     1       1.546  -3.639  -2.967  0.00  0.00    +0.155 A 
ATOM      3  C   UNL     1       2.182  -4.021  -4.144  0.00  0.00    +0.205 A 
ATOM      4  C   UNL     1       2.064  -5.343  -4.559  0.00  0.00    +0.160 A 
ATOM      5  N   UNL     1       1.351  -6.191  -3.818  0.00  0.00    -0.218 NA
ATOM      6  C   UNL     1       0.764  -5.792  -2.710  0.00  0.00    +0.225 A 
ATOM      7  N   UNL     1       0.856  -4.549  -2.281  0.00  0.00    -0.218 NA
ATOM      8  H   UNL     1       2.137  -1.676  -3.016  0.00  0.00    +0.148 HD
ENDROOT
BRANCH   1  12
ATOM      9  C   UNL     1      -0.019   1.542   0.011  0.00  0.00    -0.010 C 
ATOM     10  C   UNL     1       0.002  -0.004   0.002  0.00  0.00    -0.072 C 
ATOM     11  C   UNL     1       0.670  -0.443  -1.297  0.00  0.00    +0.009 C 
ATOM     12  C   UNL     1       0.963  -1.944  -1.265  0.00  0.00    +0.069 C 
ATOM     13  C   UNL     1       1.892  -2.223  -0.084  0.00  0.00    +0.009 C 
ATOM     14  C   UNL     1       1.233  -1.798   1.224  0.00  0.00    -0.072 C 
ATOM     15  N   UNL     1       0.711  -0.443   1.191  0.00  0.00    +0.386 N 
ATOM     16  C   UNL     1       2.314  -1.859   2.328  0.00  0.00    -0.010 C 
ATOM     17  C   UNL     1       0.143  -2.805   1.606  0.00  0.00    -0.010 C 
ATOM     18  C   UNL     1      -1.457  -0.473   0.018  0.00  0.00    -0.010 C 
ATOM     19  H   UNL     1       1.489   0.204   1.356  0.00  0.00    -0.084 HD
ATOM     20  H   UNL     1       0.093  -0.317   1.998  0.00  0.00    -0.084 HD
ENDBRANCH   1  12
BRANCH   4  21
ATOM     21  N   UNL     1       2.680  -5.774  -5.726  0.00  0.00    -0.281 N 
ATOM     22  C   UNL     1       2.555  -7.100  -6.131  0.00  0.00    +0.142 A 
ATOM     23  C   UNL     1       3.179  -7.526  -7.300  0.00  0.00    +0.081 A 
ATOM     24  C   UNL     1       3.047  -8.847  -7.690  0.00  0.00    +0.037 A 
ATOM     25  C   UNL     1       2.292  -9.700  -6.896  0.00  0.00    +0.074 A 
ATOM     26  C   UNL     1       1.700  -9.209  -5.749  0.00  0.00    +0.125 A 
ATOM     27  N   UNL     1       1.848  -7.946  -5.398  0.00  0.00    -0.238 NA
ATOM     28 CL   UNL     1       4.111  -6.415  -8.255  0.00  0.00    -0.080 Cl
ATOM     29  H   UNL     1       3.197  -5.150  -6.260  0.00  0.00    +0.155 HD
BRANCH  25  30
ATOM     30  C   UNL     1       2.119 -11.146  -7.282  0.00  0.00    +0.419 C 
ATOM     31  F   UNL     1       3.146 -11.907  -6.711  0.00  0.00    -0.166 F 
ATOM     32  F   UNL     1       0.883 -11.609  -6.818  0.00  0.00    -0.166 F 
ATOM     33  F   UNL     1       2.170 -11.267  -8.674  0.00  0.00    -0.166 F 
ENDBRANCH  25  30
ENDBRANCH   4  21
BRANCH   3  34
ATOM     34  N   UNL     1       2.964  -3.044  -4.936  0.00  0.00    +0.063 N 
ATOM     35  O   UNL     1       4.143  -2.892  -4.715  0.00  0.00    -0.126 OA
ATOM     36  O   UNL     1       2.424  -2.398  -5.804  0.00  0.00    -0.126 OA
ENDBRANCH   3  34
TORSDOF 4
