REMARK  Name = ZINC38596204
REMARK  9 active torsions:
REMARK  status: ('A' for Active; 'I' for Inactive)
REMARK    1  A    between atoms: C_1  and  C_2
REMARK    2  A    between atoms: C_2  and  C_4
REMARK    3  A    between atoms: C_2  and  N_24
REMARK    4  A    between atoms: C_4  and  C_6
REMARK    5  A    between atoms: C_4  and  N_11
REMARK    6  A    between atoms: N_14  and  C_17
REMARK    7  A    between atoms: C_17  and  C_18
REMARK    8  A    between atoms: N_24  and  S_25
REMARK    9  A    between atoms: S_25  and  C_28
REMARK                            x       y       z     vdW  Elec       q    Type
REMARK                         _______ _______ _______ _____ _____    ______ ____
ROOT
ATOM      1  C   UNL     1       0.848  -0.509   1.173  0.00  0.00    +0.112 C 
ENDROOT
BRANCH   1   2
ATOM      2  N   UNL     1       0.507  -0.037   2.522  0.00  0.00    -0.297 NA
ATOM      3  C   UNL     1       1.386  -0.646   3.530  0.00  0.00    +0.066 C 
ATOM      4  C   UNL     1       1.039  -0.084   4.911  0.00  0.00    -0.063 C 
ATOM      5  N   UNL     1      -0.367  -0.378   5.220  0.00  0.00    +0.384 N 
ATOM      6  C   UNL     1      -1.233   0.257   4.218  0.00  0.00    -0.063 C 
ATOM      7  C   UNL     1      -0.905  -0.302   2.832  0.00  0.00    +0.066 C 
ATOM      8  H   UNL     1      -0.512  -1.377   5.206  0.00  0.00    -0.081 HD
BRANCH   5   9
ATOM      9  C   UNL     1      -0.695   0.145   6.553  0.00  0.00    -0.043 C 
BRANCH   9  10
ATOM     10  C   UNL     1      -2.098  -0.263   6.921  0.00  0.00    -0.064 A 
ATOM     11  C   UNL     1      -3.164   0.551   6.587  0.00  0.00    +0.002 A 
ATOM     12  C   UNL     1      -4.451   0.177   6.925  0.00  0.00    +0.000 A 
ATOM     13  C   UNL     1      -4.672  -1.011   7.597  0.00  0.00    +0.000 A 
ATOM     14  C   UNL     1      -3.606  -1.825   7.930  0.00  0.00    +0.000 A 
ATOM     15  C   UNL     1      -2.319  -1.453   7.588  0.00  0.00    +0.002 A 
ENDBRANCH   9  10
ENDBRANCH   5   9
ENDBRANCH   1   2
BRANCH   1  16
ATOM     16  C   UNL     1       2.297  -0.213   0.888  0.00  0.00    +0.008 A 
ATOM     17  C   UNL     1       3.216  -0.980   0.252  0.00  0.00    +0.013 A 
ATOM     18  C   UNL     1       4.503  -0.499   0.102  0.00  0.00    +0.008 A 
ATOM     19  C   UNL     1       4.809   0.725   0.597  0.00  0.00    +0.045 A 
ATOM     20  S   UNL     1       3.249   1.242   1.295  0.00  0.00    -0.100 S 
ENDBRANCH   1  16
BRANCH   1  22
ATOM     21  C   UNL     1       0.121   1.721   0.312  0.00  0.00    +0.027 C 
ATOM     22  C   UNL     1      -0.030   0.207   0.145  0.00  0.00    +0.095 C 
BRANCH  22  23
ATOM     23  N   UNL     1       0.385  -0.179  -1.206  0.00  0.00    -0.185 NA
ATOM     24  H   UNL     1       1.321  -0.345  -1.397  0.00  0.00    +0.148 HD
BRANCH  23  25
ATOM     25  S   UNL     1      -0.745  -0.332  -2.407  0.00  0.00    +0.059 S 
ATOM     26  O   UNL     1      -0.037  -0.685  -3.587  0.00  0.00    -0.153 OA
ATOM     27  O   UNL     1      -1.794  -1.132  -1.879  0.00  0.00    -0.153 OA
BRANCH  25  28
ATOM     28  C   UNL     1      -1.426   1.268  -2.688  0.00  0.00    +0.106 A 
ATOM     29  C   UNL     1      -2.543   1.677  -1.962  0.00  0.00    +0.029 A 
ATOM     30  C   UNL     1      -3.095   2.906  -2.155  0.00  0.00    +0.010 A 
ATOM     31  C   UNL     1      -2.530   3.780  -3.100  0.00  0.00    -0.018 A 
ATOM     32  C   UNL     1      -3.071   5.057  -3.328  0.00  0.00    +0.008 A 
ATOM     33  C   UNL     1      -2.498   5.876  -4.251  0.00  0.00    +0.001 A 
ATOM     34  C   UNL     1      -1.381   5.468  -4.977  0.00  0.00    +0.001 A 
ATOM     35  C   UNL     1      -0.830   4.239  -4.784  0.00  0.00    +0.008 A 
ATOM     36  C   UNL     1      -1.394   3.365  -3.839  0.00  0.00    -0.016 A 
ATOM     37  C   UNL     1      -0.850   2.090  -3.608  0.00  0.00    +0.037 A 
ENDBRANCH  25  28
ENDBRANCH  23  25
ENDBRANCH  22  23
ENDBRANCH   1  22
TORSDOF 8
