REMARK  Name = ZINC39049477
REMARK  3 active torsions:
REMARK  status: ('A' for Active; 'I' for Inactive)
REMARK    1  A    between atoms: C_1  and  C_2
REMARK    2  A    between atoms: C_2  and  C_11
REMARK    3  A    between atoms: C_6  and  C_9
REMARK                            x       y       z     vdW  Elec       q    Type
REMARK                         _______ _______ _______ _____ _____    ______ ____
ROOT
ATOM      1  C   UNL     1      -0.019   1.526   0.010  0.00  0.00    +0.041 C 
ATOM      2  C   UNL     1       0.002  -0.004   0.002  0.00  0.00    +0.070 C 
ATOM      3  C   UNL     1       0.731  -0.500  -1.252  0.00  0.00    +0.063 C 
ATOM      4  C   UNL     1       0.867  -2.025  -1.174  0.00  0.00    +0.167 C 
ATOM      5  O   UNL     1       1.503  -2.373   0.059  0.00  0.00    -0.341 OA
ATOM      6  C   UNL     1       0.810  -1.904   1.218  0.00  0.00    +0.330 C 
ATOM      7  O   UNL     1       0.694  -0.480   1.161  0.00  0.00    -0.335 OA
ATOM      8  C   UNL     1      -1.433  -0.536   0.007  0.00  0.00    +0.041 C 
ENDROOT
BRANCH   6   9
ATOM      9  C   UNL     1       1.558  -2.287   2.426  0.00  0.00    -0.045 C 
ATOM     10  C   UNL     1       2.155  -2.592   3.390  0.00  0.00    +0.009 C 
ENDBRANCH   6   9
TORSDOF 1
