REMARK  Name = ZINC34749682
REMARK  9 active torsions:
REMARK  status: ('A' for Active; 'I' for Inactive)
REMARK    1  A    between atoms: C_1  and  C_2
REMARK    2  A    between atoms: C_5  and  C_9
REMARK    3  A    between atoms: C_6  and  C_8
REMARK    4  A    between atoms: C_9  and  N_10
REMARK    5  A    between atoms: C_14  and  C_30
REMARK    6  A    between atoms: N_23  and  C_26
REMARK    7  A    between atoms: C_26  and  C_27
REMARK    8  A    between atoms: C_27  and  C_28
REMARK    9  A    between atoms: C_27  and  C_29
REMARK                            x       y       z     vdW  Elec       q    Type
REMARK                         _______ _______ _______ _____ _____    ______ ____
ROOT
ATOM      1  N   UNL     1      -1.613  -3.636   0.015  0.00  0.00    -0.276 N 
ATOM      2  C   UNL     1      -2.296  -3.785   1.165  0.00  0.00    +0.264 A 
ATOM      3  O   UNL     1      -1.708  -3.815   2.232  0.00  0.00    -0.267 OA
ATOM      4  C   UNL     1      -3.719  -3.907   1.119  0.00  0.00    +0.080 A 
ATOM      5  C   UNL     1      -4.665  -4.074   2.218  0.00  0.00    +0.004 A 
ATOM      6  C   UNL     1      -5.985  -4.168   1.932  0.00  0.00    +0.056 A 
ATOM      7  S   UNL     1      -6.034  -4.036   0.156  0.00  0.00    -0.076 S 
ATOM      8  C   UNL     1      -4.297  -3.859  -0.161  0.00  0.00    +0.118 A 
ATOM      9  N   UNL     1      -3.565  -3.711  -1.259  0.00  0.00    -0.208 NA
ATOM     10  C   UNL     1      -2.255  -3.595  -1.187  0.00  0.00    +0.202 A 
ATOM     11  N   UNL     1      -1.525  -3.436  -2.339  0.00  0.00    -0.304 N 
ATOM     12  C   UNL     1      -1.787  -4.271  -3.522  0.00  0.00    +0.089 C 
ATOM     13  C   UNL     1      -1.945  -3.354  -4.739  0.00  0.00    -0.060 C 
ATOM     14  N   UNL     1      -0.764  -2.490  -4.856  0.00  0.00    +0.382 N 
ATOM     15  C   UNL     1      -0.681  -1.595  -3.695  0.00  0.00    -0.060 C 
ATOM     16  C   UNL     1      -0.464  -2.421  -2.428  0.00  0.00    +0.089 C 
ATOM     17  H   UNL     1       0.067  -3.062  -4.898  0.00  0.00    -0.082 HD
ENDROOT
BRANCH   5  18
ATOM     18  C   UNL     1      -4.190  -4.141   3.620  0.00  0.00    -0.017 A 
ATOM     19  C   UNL     1      -3.150  -5.003   3.967  0.00  0.00    +0.008 A 
ATOM     20  C   UNL     1      -2.712  -5.061   5.274  0.00  0.00    +0.001 A 
ATOM     21  C   UNL     1      -3.301  -4.265   6.240  0.00  0.00    +0.000 A 
ATOM     22  C   UNL     1      -4.334  -3.408   5.902  0.00  0.00    +0.001 A 
ATOM     23  C   UNL     1      -4.777  -3.338   4.597  0.00  0.00    +0.008 A 
ENDBRANCH   5  18
BRANCH   1  24
ATOM     24  C   UNL     1      -0.154  -3.511   0.056  0.00  0.00    +0.163 C 
BRANCH  24  29
ATOM     25  C   UNL     1       2.122  -8.290   2.374  0.00  0.00    +0.044 C 
ATOM     26  C   UNL     1       1.528  -7.044   1.770  0.00  0.00    -0.050 A 
ATOM     27  C   UNL     1       1.414  -5.894   2.529  0.00  0.00    +0.004 A 
ATOM     28  C   UNL     1       0.870  -4.751   1.974  0.00  0.00    +0.006 A 
ATOM     29  C   UNL     1       0.440  -4.757   0.660  0.00  0.00    -0.025 A 
ATOM     30  C   UNL     1       0.555  -5.906  -0.099  0.00  0.00    -0.045 A 
ATOM     31  C   UNL     1       1.103  -7.048   0.455  0.00  0.00    +0.007 A 
ATOM     32  C   UNL     1       0.086  -5.913  -1.531  0.00  0.00    +0.044 C 
ENDBRANCH  24  29
ENDBRANCH   1  24
BRANCH  14  33
ATOM     33  C   UNL     1      -0.865  -1.689  -6.084  0.00  0.00    -0.076 C 
BRANCH  33  34
ATOM     34  C   UNL     1      -0.767  -2.609  -7.302  0.00  0.00    -0.034 C 
ATOM     35  C   UNL     1      -0.972  -1.789  -8.578  0.00  0.00    +0.005 C 
ATOM     36  C   UNL     1       0.613  -3.267  -7.335  0.00  0.00    +0.005 C 
ENDBRANCH  33  34
ENDBRANCH  14  33
TORSDOF 5
