REMARK  Name = ZINC13030153
REMARK  10 active torsions:
REMARK  status: ('A' for Active; 'I' for Inactive)
REMARK    1  A    between atoms: C_1  and  C_2
REMARK    2  A    between atoms: C_2  and  O_3
REMARK    3  A    between atoms: O_3  and  C_4
REMARK    4  A    between atoms: C_9  and  N_10
REMARK    5  A    between atoms: N_10  and  C_11
REMARK    6  A    between atoms: C_11  and  C_13
REMARK    7  A    between atoms: C_11  and  C_20
REMARK    8  A    between atoms: N_22  and  C_23
REMARK    9  A    between atoms: C_28  and  C_30
REMARK   10  A    between atoms: C_30  and  N_31
REMARK                            x       y       z     vdW  Elec       q    Type
REMARK                         _______ _______ _______ _____ _____    ______ ____
ROOT
ATOM      1  N   UNL     1      -5.369   4.630  -2.418  0.00  0.00    -0.250 N 
ATOM      2  C   UNL     1      -4.150   5.199  -2.333  0.00  0.00    +0.242 C 
ATOM      3  O   UNL     1      -3.196   4.671  -2.864  0.00  0.00    -0.273 OA
ENDROOT
BRANCH   1   9
ATOM      4  C   UNL     1      -6.778   4.954  -0.476  0.00  0.00    +0.142 A 
ATOM      5  C   UNL     1      -7.866   5.563   0.127  0.00  0.00    +0.047 A 
ATOM      6  C   UNL     1      -8.651   6.445  -0.592  0.00  0.00    +0.004 A 
ATOM      7  C   UNL     1      -8.350   6.726  -1.912  0.00  0.00    +0.002 A 
ATOM      8  C   UNL     1      -7.263   6.126  -2.519  0.00  0.00    +0.027 A 
ATOM      9  C   UNL     1      -6.471   5.240  -1.804  0.00  0.00    +0.079 A 
BRANCH   4  10
ATOM     10  O   UNL     1      -6.008   4.082   0.229  0.00  0.00    -0.490 OA
BRANCH  10  12
ATOM     11  C   UNL     1      -5.498   2.732   2.167  0.00  0.00    +0.048 C 
ATOM     12  C   UNL     1      -6.379   3.840   1.587  0.00  0.00    +0.226 C 
ENDBRANCH  10  12
ENDBRANCH   4  10
ENDBRANCH   1   9
BRANCH   1  13
ATOM     13  C   UNL     1      -5.542   3.374  -3.152  0.00  0.00    +0.200 C 
BRANCH  13  14
ATOM     14  C   UNL     1      -4.576   2.346  -2.623  0.00  0.00    +0.017 A 
ATOM     15  C   UNL     1      -4.245   2.334  -1.281  0.00  0.00    +0.009 A 
ATOM     16  C   UNL     1      -3.364   1.387  -0.794  0.00  0.00    +0.001 A 
ATOM     17  C   UNL     1      -2.803   0.458  -1.650  0.00  0.00    +0.003 A 
ATOM     18  C   UNL     1      -3.128   0.471  -2.993  0.00  0.00    +0.039 A 
ATOM     19  C   UNL     1      -4.015   1.416  -3.481  0.00  0.00    +0.129 A 
ATOM     20  F   UNL     1      -4.333   1.430  -4.794  0.00  0.00    -0.205 F 
ENDBRANCH  13  14
BRANCH  13  21
ATOM     21  C   UNL     1      -6.953   2.877  -2.973  0.00  0.00    +0.239 C 
ATOM     22  O   UNL     1      -7.496   2.970  -1.892  0.00  0.00    -0.273 OA
ATOM     23  N   UNL     1      -7.612   2.329  -4.013  0.00  0.00    -0.311 N 
ATOM     24  H   UNL     1      -7.178   2.255  -4.877  0.00  0.00    +0.149 HD
BRANCH  23  25
ATOM     25  C   UNL     1      -8.984   1.846  -3.839  0.00  0.00    +0.073 C 
ATOM     26  C   UNL     1      -8.971   0.381  -3.356  0.00  0.00    +0.022 C 
ATOM     27  C   UNL     1     -10.175  -0.269  -4.082  0.00  0.00    +0.002 C 
ATOM     28  C   UNL     1     -10.133   0.399  -5.479  0.00  0.00    +0.002 C 
ATOM     29  C   UNL     1      -9.723   1.858  -5.189  0.00  0.00    +0.022 C 
ENDBRANCH  23  25
ENDBRANCH  13  21
ENDBRANCH   1  13
BRANCH   2  30
ATOM     30  C   UNL     1      -3.973   6.491  -1.577  0.00  0.00    +0.242 C 
BRANCH  30  31
ATOM     31  N   UNL     1      -2.567   6.899  -1.631  0.00  0.00    -0.235 N 
ATOM     32  C   UNL     1      -1.577   6.560  -0.740  0.00  0.00    +0.090 A 
ATOM     33  C   UNL     1      -1.540   5.787   0.416  0.00  0.00    +0.029 A 
ATOM     34  C   UNL     1      -0.366   5.643   1.100  0.00  0.00    +0.002 A 
ATOM     35  C   UNL     1       0.795   6.255   0.647  0.00  0.00    +0.002 A 
ATOM     36  C   UNL     1       0.787   7.015  -0.486  0.00  0.00    +0.032 A 
ATOM     37  C   UNL     1      -0.405   7.182  -1.204  0.00  0.00    +0.113 A 
ATOM     38  N   UNL     1      -0.717   7.856  -2.328  0.00  0.00    -0.129 NA
ATOM     39  N   UNL     1      -1.965   7.712  -2.604  0.00  0.00    -0.064 NA
ENDBRANCH  30  31
ENDBRANCH   2  30
TORSDOF 9
