REMARK  Name = ZINC63473071
REMARK  6 active torsions:
REMARK  status: ('A' for Active; 'I' for Inactive)
REMARK    1  A    between atoms: C_4  and  N_7
REMARK    2  A    between atoms: C_12  and  C_33
REMARK    3  A    between atoms: C_15  and  C_20
REMARK    4  A    between atoms: C_15  and  C_30
REMARK    5  A    between atoms: C_20  and  C_21
REMARK    6  A    between atoms: C_38  and  O_39
REMARK                            x       y       z     vdW  Elec       q    Type
REMARK                         _______ _______ _______ _____ _____    ______ ____
ROOT
ATOM      1  N   UNL     1       3.589  -0.813  -0.212  0.00  0.00    -0.210 N 
ATOM      2  C   UNL     1       4.779  -0.130  -0.191  0.00  0.00    +0.229 C 
ATOM      3  O   UNL     1       4.949   1.056  -0.000  0.00  0.00    -0.275 OA
ATOM      4  C   UNL     1       5.784  -1.132  -0.446  0.00  0.00    +0.077 C 
ATOM      5  C   UNL     1       7.227  -1.367  -0.267  0.00  0.00    -0.023 C 
ATOM      6  N   UNL     1       7.354  -2.825  -0.613  0.00  0.00    +0.396 N 
ATOM      7  C   UNL     1       6.017  -3.461  -0.412  0.00  0.00    +0.052 C 
ATOM      8  C   UNL     1       5.173  -2.388   0.294  0.00  0.00    +0.086 C 
ATOM      9  C   UNL     1       3.757  -2.168  -0.161  0.00  0.00    +0.229 C 
ATOM     10  O   UNL     1       2.935  -3.018  -0.430  0.00  0.00    -0.275 OA
ATOM     11  H   UNL     1       7.637  -2.924  -1.577  0.00  0.00    -0.083 HD
ATOM     12  H   UNL     1       8.034  -3.262  -0.010  0.00  0.00    -0.083 HD
ENDROOT
BRANCH   1  16
ATOM     13  C   UNL     1      -0.138   1.046  -0.392  0.00  0.00    +0.000 A 
ATOM     14  C   UNL     1       1.014   1.810  -0.380  0.00  0.00    +0.002 A 
ATOM     15  C   UNL     1       2.250   1.197  -0.321  0.00  0.00    +0.024 A 
ATOM     16  C   UNL     1       2.335  -0.188  -0.272  0.00  0.00    +0.044 A 
ATOM     17  C   UNL     1       1.176  -0.953  -0.284  0.00  0.00    +0.024 A 
ATOM     18  C   UNL     1      -0.057  -0.334  -0.344  0.00  0.00    +0.002 A 
ENDBRANCH   1  16
BRANCH   5  19
ATOM     19  C   UNL     1       8.032  -0.517  -1.216  0.00  0.00    -0.019 A 
ATOM     20  C   UNL     1       7.418   0.081  -2.300  0.00  0.00    +0.005 A 
ATOM     21  C   UNL     1       8.156   0.861  -3.170  0.00  0.00    +0.000 A 
ATOM     22  C   UNL     1       9.510   1.046  -2.959  0.00  0.00    +0.004 A 
ATOM     23  C   UNL     1      10.128   0.451  -1.876  0.00  0.00    +0.045 A 
ATOM     24  C   UNL     1       9.389  -0.328  -0.998  0.00  0.00    +0.118 A 
BRANCH  24  25
ATOM     25  O   UNL     1       9.994  -0.910   0.071  0.00  0.00    -0.507 OA
ATOM     26  H   UNL     1      10.346  -1.792  -0.109  0.00  0.00    +0.292 HD
ENDBRANCH  24  25
ENDBRANCH   5  19
BRANCH   7  27
ATOM     27  C   UNL     1       6.144  -4.673   0.473  0.00  0.00    +0.347 C 
ATOM     28  O   UNL     1       7.239  -5.014   0.887  0.00  0.00    -0.248 OA
ATOM     29  O   UNL     1       5.152  -5.314   0.776  0.00  0.00    -0.248 OA
ENDBRANCH   7  27
BRANCH   7  30
ATOM     30  C   UNL     1       5.406  -3.849  -1.760  0.00  0.00    +0.033 C 
BRANCH  30  31
ATOM     31  C   UNL     1       6.298  -4.853  -2.445  0.00  0.00    -0.042 C 
ATOM     32  C   UNL     1       6.177  -6.200  -2.416  0.00  0.00    -0.001 A 
ATOM     33  C   UNL     1       5.218  -7.099  -1.764  0.00  0.00    +0.010 A 
ATOM     34  C   UNL     1       5.359  -8.434  -1.922  0.00  0.00    +0.001 A 
ATOM     35  C   UNL     1       6.395  -8.980  -2.691  0.00  0.00    +0.002 A 
ATOM     36  C   UNL     1       7.315  -8.219  -3.321  0.00  0.00    +0.026 A 
ATOM     37  C   UNL     1       7.263  -6.801  -3.224  0.00  0.00    +0.043 A 
ATOM     38  N   UNL     1       8.024  -5.863  -3.731  0.00  0.00    -0.380 N 
ATOM     39  C   UNL     1       7.504  -4.558  -3.308  0.00  0.00    +0.144 C 
ATOM     40  H   UNL     1       8.800  -6.007  -4.296  0.00  0.00    +0.160 HD
ENDBRANCH  30  31
ENDBRANCH   7  30
TORSDOF 6
