REMARK  Name = ZINC09356380
REMARK  8 active torsions:
REMARK  status: ('A' for Active; 'I' for Inactive)
REMARK    1  A    between atoms: C_1  and  C_2
REMARK    2  A    between atoms: C_2  and  C_37
REMARK    3  A    between atoms: C_6  and  C_28
REMARK    4  A    between atoms: N_8  and  C_16
REMARK    5  A    between atoms: C_16  and  C_17
REMARK    6  A    between atoms: N_19  and  C_20
REMARK    7  A    between atoms: C_20  and  C_21
REMARK    8  A    between atoms: C_21  and  C_22
REMARK                            x       y       z     vdW  Elec       q    Type
REMARK                         _______ _______ _______ _____ _____    ______ ____
ROOT
ATOM      1  C   UNL     1      -0.107   1.514  -0.096  0.00  0.00    +0.011 C 
ATOM      2  C   UNL     1      -0.064  -0.015  -0.076  0.00  0.00    -0.023 C 
ATOM      3  C   UNL     1      -1.485  -0.572  -0.002  0.00  0.00    +0.058 C 
ATOM      4  C   UNL     1      -1.444  -2.091   0.032  0.00  0.00    +0.017 C 
ATOM      5  C   UNL     1      -0.422  -2.731   0.626  0.00  0.00    +0.037 C 
ATOM      6  C   UNL     1      -0.259  -4.228   0.734  0.00  0.00    +0.139 C 
ATOM      7  N   UNL     1      -1.435  -4.989   0.370  0.00  0.00    -0.308 N 
ATOM      8  C   UNL     1      -1.927  -4.971  -0.934  0.00  0.00    +0.052 A 
ATOM      9  C   UNL     1      -1.931  -6.109  -1.724  0.00  0.00    +0.025 A 
ATOM     10  C   UNL     1      -2.386  -6.031  -3.028  0.00  0.00    +0.002 A 
ATOM     11  C   UNL     1      -2.830  -4.827  -3.543  0.00  0.00    +0.002 A 
ATOM     12  C   UNL     1      -2.845  -3.691  -2.752  0.00  0.00    +0.025 A 
ATOM     13  C   UNL     1      -2.410  -3.774  -1.440  0.00  0.00    +0.052 A 
ATOM     14  N   UNL     1      -2.502  -2.702  -0.559  0.00  0.00    -0.316 N 
ATOM     15  C   UNL     1       0.637  -1.996   1.208  0.00  0.00    +0.163 C 
ATOM     16  O   UNL     1       1.536  -2.600   1.760  0.00  0.00    -0.292 OA
ATOM     17  C   UNL     1       0.692  -0.498   1.167  0.00  0.00    +0.086 C 
ATOM     18  C   UNL     1       0.631  -0.530  -1.339  0.00  0.00    +0.011 C 
ATOM     19  H   UNL     1      -3.388  -2.366  -0.351  0.00  0.00    +0.152 HD
ENDROOT
BRANCH   6  20
ATOM     20  C   UNL     1       0.876  -4.651  -0.164  0.00  0.00    -0.023 A 
ATOM     21  C   UNL     1       2.011  -5.222   0.380  0.00  0.00    +0.006 A 
ATOM     22  C   UNL     1       3.052  -5.610  -0.444  0.00  0.00    +0.000 A 
ATOM     23  C   UNL     1       2.957  -5.426  -1.811  0.00  0.00    +0.000 A 
ATOM     24  C   UNL     1       1.821  -4.856  -2.354  0.00  0.00    +0.000 A 
ATOM     25  C   UNL     1       0.779  -4.472  -1.531  0.00  0.00    +0.006 A 
ENDBRANCH   6  20
BRANCH   7  26
ATOM     26  C   UNL     1      -2.118  -5.792   1.388  0.00  0.00    +0.201 C 
BRANCH  26  27
ATOM     27  C   UNL     1      -3.174  -4.954   2.063  0.00  0.00    +0.230 C 
ATOM     28  O   UNL     1      -3.338  -3.800   1.727  0.00  0.00    -0.274 OA
ATOM     29  N   UNL     1      -3.934  -5.486   3.040  0.00  0.00    -0.314 N 
ATOM     30  H   UNL     1      -3.802  -6.409   3.308  0.00  0.00    +0.149 HD
BRANCH  29  31
ATOM     31  C   UNL     1      -4.960  -4.672   3.696  0.00  0.00    +0.110 C 
BRANCH  31  32
ATOM     32  C   UNL     1      -5.673  -5.510   4.759  0.00  0.00    +0.073 C 
BRANCH  32  33
ATOM     33  C   UNL     1      -6.729  -4.672   5.434  0.00  0.00    +0.035 A 
ATOM     34  C   UNL     1      -6.531  -3.834   6.469  0.00  0.00    +0.105 A 
ATOM     35  N   UNL     1      -7.746  -3.279   6.767  0.00  0.00    -0.352 N 
ATOM     36  H   UNL     1      -7.928  -2.634   7.468  0.00  0.00    +0.166 HD
ATOM     37  C   UNL     1      -8.645  -3.797   5.902  0.00  0.00    +0.171 A 
ATOM     38  N   UNL     1      -8.028  -4.625   5.104  0.00  0.00    -0.350 N 
ATOM     39  H   UNL     1      -8.444  -5.129   4.388  0.00  0.00    +0.166 HD
ENDBRANCH  32  33
ENDBRANCH  31  32
ENDBRANCH  29  31
ENDBRANCH  26  27
ENDBRANCH   7  26
TORSDOF 6
