REMARK  Name = ZINC05041651
REMARK  5 active torsions:
REMARK  status: ('A' for Active; 'I' for Inactive)
REMARK    1  A    between atoms: C_6  and  N_7
REMARK    2  A    between atoms: N_7  and  C_8
REMARK    3  A    between atoms: C_8  and  N_10
REMARK    4  A    between atoms: N_10  and  N_11
REMARK    5  A    between atoms: N_14  and  C_15
REMARK                            x       y       z     vdW  Elec       q    Type
REMARK                         _______ _______ _______ _____ _____    ______ ____
ROOT
ATOM      1  N   UNL     1       2.403  -0.284   0.161  0.00  0.00    -0.219 N 
ATOM      2  C   UNL     1       3.608  -0.884   0.228  0.00  0.00    +0.316 C 
ATOM      3  O   UNL     1       3.699  -2.019   0.654  0.00  0.00    -0.251 OA
ATOM      4  N   UNL     1       4.712  -0.226  -0.178  0.00  0.00    -0.293 N 
ATOM      5  H   UNL     1       1.608  -0.758   0.452  0.00  0.00    +0.174 HD
ATOM      6  H   UNL     1       4.639   0.679  -0.518  0.00  0.00    +0.151 HD
ENDROOT
BRANCH   4   7
ATOM      7  C   UNL     1       6.021  -0.878  -0.105  0.00  0.00    +0.037 C 
ATOM      8  C   UNL     1       6.325  -1.251   1.348  0.00  0.00    +0.029 C 
ATOM      9  C   UNL     1       7.693  -1.932   1.424  0.00  0.00    -0.008 C 
ATOM     10  C   UNL     1       8.769  -0.975   0.907  0.00  0.00    +0.007 C 
ATOM     11  C   UNL     1       8.465  -0.603  -0.545  0.00  0.00    -0.008 C 
ATOM     12  C   UNL     1       7.097   0.079  -0.622  0.00  0.00    +0.029 C 
ATOM     13  C   UNL     1       8.453  -1.869  -1.405  0.00  0.00    +0.007 C 
ATOM     14  C   UNL     1       7.377  -2.826  -0.887  0.00  0.00    -0.008 C 
ATOM     15  C   UNL     1       7.681  -3.198   0.565  0.00  0.00    +0.007 C 
ATOM     16  C   UNL     1       6.009  -2.144  -0.964  0.00  0.00    +0.029 C 
ENDBRANCH   4   7
BRANCH   1  17
ATOM     17  N   UNL     1       2.298   1.024  -0.331  0.00  0.00    -0.244 N 
ATOM     18  H   UNL     1       3.093   1.497  -0.623  0.00  0.00    +0.172 HD
BRANCH  17  19
ATOM     19  C   UNL     1       1.093   1.624  -0.398  0.00  0.00    +0.151 C 
ATOM     20  S   UNL     1       0.965   3.222  -0.998  0.00  0.00    -0.017 S 
BRANCH  19  21
ATOM     21  N   UNL     1      -0.011   0.966   0.007  0.00  0.00    -0.296 N 
ATOM     22  H   UNL     1       0.052   0.040   0.289  0.00  0.00    +0.154 HD
BRANCH  21  28
ATOM     23  C   UNL     1      -2.092   1.493   1.114  0.00  0.00    +0.025 A 
ATOM     24  C   UNL     1      -3.312   2.142   1.123  0.00  0.00    +0.022 A 
ATOM     25  C   UNL     1      -3.699   2.904   0.035  0.00  0.00    +0.041 A 
ATOM     26  C   UNL     1      -2.864   3.024  -1.062  0.00  0.00    +0.022 A 
ATOM     27  C   UNL     1      -1.641   2.383  -1.074  0.00  0.00    +0.025 A 
ATOM     28  C   UNL     1      -1.250   1.617   0.017  0.00  0.00    +0.033 A 
ATOM     29 CL   UNL     1      -5.236   3.712   0.046  0.00  0.00    -0.084 Cl
ENDBRANCH  21  28
ENDBRANCH  19  21
ENDBRANCH  17  19
ENDBRANCH   1  17
TORSDOF 5
