REMARK  Name = ZINC08575497
REMARK  3 active torsions:
REMARK  status: ('A' for Active; 'I' for Inactive)
REMARK    1  A    between atoms: C_1  and  C_2
REMARK    2  A    between atoms: C_3  and  O_22
REMARK    3  A    between atoms: C_10  and  C_12
REMARK                            x       y       z     vdW  Elec       q    Type
REMARK                         _______ _______ _______ _____ _____    ______ ____
ROOT
ATOM      1  C   UNL     1      -3.653   2.414  -3.400  0.00  0.00    +0.067 C 
ATOM      2  C   UNL     1      -2.230   2.266  -2.925  0.00  0.00    +0.055 A 
ATOM      3  C   UNL     1      -1.978   1.731  -1.667  0.00  0.00    +0.142 A 
ATOM      4  C   UNL     1      -0.664   1.603  -1.250  0.00  0.00    +0.036 A 
ATOM      5  C   UNL     1       0.351   2.014  -2.104  0.00  0.00    +0.004 A 
ATOM      6  C   UNL     1       0.024   2.534  -3.337  0.00  0.00    +0.089 A 
ATOM      7  N   UNL     1      -1.239   2.644  -3.707  0.00  0.00    -0.361 N 
ATOM      8  C   UNL     1       1.659   1.761  -1.395  0.00  0.00    +0.198 C 
ATOM      9  O   UNL     1       1.332   1.600  -0.002  0.00  0.00    -0.362 OA
ATOM     10  C   UNL     1      -0.013   1.086   0.008  0.00  0.00    +0.193 C 
ATOM     11  H   UNL     1      -1.452   3.067  -4.699  0.00  0.00    +0.165 HD
ENDROOT
BRANCH  10  12
ATOM     12  C   UNL     1      -0.752   1.589   1.221  0.00  0.00    +0.114 A 
ATOM     13  C   UNL     1      -1.384   0.716   2.057  0.00  0.00    +0.262 A 
ATOM     14  N   UNL     1      -2.050   1.196   3.155  0.00  0.00    -0.302 N 
ATOM     15  C   UNL     1      -2.082   2.516   3.411  0.00  0.00    +0.161 A 
ATOM     16  S   UNL     1      -2.921   3.089   4.789  0.00  0.00    -0.013 S 
ATOM     17  N   UNL     1      -1.464   3.394   2.599  0.00  0.00    -0.302 N 
ATOM     18  H   UNL     1      -1.504   4.471   2.821  0.00  0.00    +0.171 HD
ATOM     19  C   UNL     1      -0.794   2.964   1.511  0.00  0.00    +0.262 A 
ATOM     20  O   UNL     1      -0.232   3.763   0.782  0.00  0.00    -0.267 OA
ATOM     21  O   UNL     1      -1.355  -0.610   1.804  0.00  0.00    -0.267 OA
ATOM     22  H   UNL     1      -2.563   0.499   3.835  0.00  0.00    +0.171 HD
ENDBRANCH  10  12
BRANCH   3  23
ATOM     23  O   UNL     1      -3.001   1.341  -0.862  0.00  0.00    -0.505 OA
ATOM     24  H   UNL     1      -2.790   0.919   0.132  0.00  0.00    +0.292 HD
ENDBRANCH   3  23
TORSDOF 2
