REMARK  Name = ZINC02967392
REMARK  11 active torsions:
REMARK  status: ('A' for Active; 'I' for Inactive)
REMARK    1  A    between atoms: C_1  and  C_2
REMARK    2  A    between atoms: C_5  and  C_8
REMARK    3  A    between atoms: C_8  and  S_9
REMARK    4  A    between atoms: S_9  and  C_10
REMARK    5  A    between atoms: C_20  and  C_25
REMARK    6  A    between atoms: C_25  and  C_26
REMARK    7  A    between atoms: C_26  and  C_27
REMARK    8  A    between atoms: N_29  and  C_30
REMARK    9  A    between atoms: C_30  and  C_31
REMARK   10  A    between atoms: C_36  and  O_37
REMARK   11  A    between atoms: O_37  and  C_38
REMARK                            x       y       z     vdW  Elec       q    Type
REMARK                         _______ _______ _______ _____ _____    ______ ____
ROOT
ATOM      1  C   UNL     1       1.632  -6.614  -0.043  0.00  0.00    +0.169 C 
ATOM      2  N   UNL     1       0.436  -7.139  -0.044  0.00  0.00    -0.225 NA
ATOM      3  C   UNL     1       0.237  -8.481  -0.051  0.00  0.00    +0.077 A 
ATOM      4  C   UNL     1      -1.051  -9.023  -0.053  0.00  0.00    +0.028 A 
ATOM      5  C   UNL     1      -1.216 -10.390  -0.060  0.00  0.00    +0.002 A 
ATOM      6  C   UNL     1      -0.118 -11.238  -0.065  0.00  0.00    +0.001 A 
ATOM      7  C   UNL     1       1.163 -10.725  -0.063  0.00  0.00    +0.013 A 
ATOM      8  C   UNL     1       1.349  -9.347  -0.056  0.00  0.00    +0.041 A 
ATOM      9  C   UNL     1       2.703  -8.751  -0.054  0.00  0.00    +0.139 C 
ATOM     10  N   UNL     1       3.876  -9.319  -0.059  0.00  0.00    -0.255 NA
ATOM     11  C   UNL     1       4.891  -8.256  -0.054  0.00  0.00    +0.194 C 
ATOM     12  C   UNL     1       4.081  -6.977  -0.046  0.00  0.00    +0.251 C 
ATOM     13  O   UNL     1       4.504  -5.841  -0.041  0.00  0.00    -0.272 OA
ATOM     14  N   UNL     1       2.787  -7.369  -0.053  0.00  0.00    -0.200 N 
ENDROOT
BRANCH   1  15
ATOM     15  S   UNL     1       1.777  -4.858  -0.034  0.00  0.00    -0.085 S 
BRANCH  15  16
ATOM     16  C   UNL     1       0.059  -4.275  -0.021  0.00  0.00    +0.112 C 
BRANCH  16  21
ATOM     17  C   UNL     1      -0.018   1.503   0.010  0.00  0.00    +0.044 C 
ATOM     18  C   UNL     1       0.002  -0.004   0.002  0.00  0.00    -0.050 A 
ATOM     19  C   UNL     1       0.006  -0.689  -1.199  0.00  0.00    +0.003 A 
ATOM     20  C   UNL     1       0.025  -2.071  -1.206  0.00  0.00    +0.005 A 
ATOM     21  C   UNL     1       0.040  -2.768  -0.013  0.00  0.00    -0.037 A 
ATOM     22  C   UNL     1       0.037  -2.084   1.188  0.00  0.00    +0.005 A 
ATOM     23  C   UNL     1       0.023  -0.702   1.195  0.00  0.00    +0.003 A 
ENDBRANCH  16  21
ENDBRANCH  15  16
ENDBRANCH   1  15
BRANCH  11  24
ATOM     24  C   UNL     1       5.758  -8.338  -1.311  0.00  0.00    +0.045 C 
BRANCH  24  25
ATOM     25  C   UNL     1       6.584  -9.626  -1.278  0.00  0.00    +0.098 C 
BRANCH  25  26
ATOM     26  C   UNL     1       7.439  -9.706  -2.517  0.00  0.00    +0.213 C 
ATOM     27  O   UNL     1       7.392  -8.820  -3.344  0.00  0.00    -0.276 OA
ATOM     28  N   UNL     1       8.255 -10.762  -2.705  0.00  0.00    -0.311 N 
ATOM     29  H   UNL     1       8.293 -11.470  -2.043  0.00  0.00    +0.149 HD
BRANCH  28  30
ATOM     30  C   UNL     1       9.086 -10.840  -3.909  0.00  0.00    +0.143 C 
BRANCH  30  31
ATOM     31  C   UNL     1       9.899 -12.108  -3.877  0.00  0.00    +0.011 A 
ATOM     32  C   UNL     1      11.222 -12.072  -3.478  0.00  0.00    +0.009 A 
ATOM     33  C   UNL     1      11.969 -13.235  -3.449  0.00  0.00    +0.001 A 
ATOM     34  C   UNL     1      11.394 -14.437  -3.817  0.00  0.00    +0.004 A 
ATOM     35  C   UNL     1      10.072 -14.479  -4.216  0.00  0.00    +0.046 A 
ATOM     36  C   UNL     1       9.319 -13.314  -4.241  0.00  0.00    +0.125 A 
BRANCH  36  37
ATOM     37  O   UNL     1       8.017 -13.354  -4.627  0.00  0.00    -0.495 OA
ATOM     38  C   UNL     1       7.486 -14.630  -4.989  0.00  0.00    +0.277 C 
ENDBRANCH  36  37
ENDBRANCH  30  31
ENDBRANCH  28  30
ENDBRANCH  25  26
ENDBRANCH  24  25
ENDBRANCH  11  24
TORSDOF 9
