REMARK  Name = ZINC11126785
REMARK  6 active torsions:
REMARK  status: ('A' for Active; 'I' for Inactive)
REMARK    1  A    between atoms: C_1  and  C_2
REMARK    2  A    between atoms: C_5  and  S_8
REMARK    3  A    between atoms: S_8  and  N_11
REMARK    4  A    between atoms: C_14  and  C_17
REMARK    5  A    between atoms: N_19  and  C_20
REMARK    6  A    between atoms: C_21  and  C_29
REMARK                            x       y       z     vdW  Elec       q    Type
REMARK                         _______ _______ _______ _____ _____    ______ ____
ROOT
ATOM      1  C   UNL     1       0.828  -1.999  -1.218  0.00  0.00    +0.221 C 
ATOM      2  O   UNL     1       0.219  -2.621  -0.373  0.00  0.00    -0.275 OA
ATOM      3  N   UNL     1       1.500  -2.656  -2.184  0.00  0.00    -0.279 N 
ATOM      4  H   UNL     1       1.986  -2.158  -2.860  0.00  0.00    +0.155 HD
ENDROOT
BRANCH   3   5
ATOM      5  C   UNL     1       1.495  -4.042  -2.213  0.00  0.00    +0.084 A 
ATOM      6  C   UNL     1       2.119  -4.888  -3.118  0.00  0.00    +0.068 A 
ATOM      7  C   UNL     1       1.956  -6.318  -2.924  0.00  0.00    -0.023 A 
ATOM      8  C   UNL     1       1.198  -6.672  -1.863  0.00  0.00    -0.004 A 
ATOM      9  S   UNL     1       0.713  -5.138  -1.123  0.00  0.00    -0.077 S 
ATOM     10  C   UNL     1       0.858  -8.061  -1.419  0.00  0.00    +0.043 C 
ATOM     11  C   UNL     1       1.187  -9.029  -2.564  0.00  0.00    +0.005 C 
ATOM     12  C   UNL     1       2.590  -8.713  -3.090  0.00  0.00    +0.005 C 
ATOM     13  C   UNL     1       2.578  -7.374  -3.830  0.00  0.00    +0.037 C 
BRANCH   6  14
ATOM     14  C   UNL     1       2.915  -4.358  -4.230  0.00  0.00    +0.244 C 
ATOM     15  O   UNL     1       4.106  -4.153  -4.082  0.00  0.00    -0.270 OA
ATOM     16  N   UNL     1       2.329  -4.097  -5.415  0.00  0.00    -0.325 N 
ATOM     17  H   UNL     1       1.380  -4.260  -5.532  0.00  0.00    +0.145 HD
ATOM     18  H   UNL     1       2.855  -3.746  -6.150  0.00  0.00    +0.145 HD
ENDBRANCH   6  14
ENDBRANCH   3   5
BRANCH   1  22
ATOM     19  N   UNL     1       1.366   2.019  -0.000  0.00  0.00    -0.177 NA
ATOM     20  C   UNL     1      -0.019   1.528   0.010  0.00  0.00    +0.110 C 
ATOM     21  C   UNL     1       0.002  -0.004   0.002  0.00  0.00    +0.030 C 
ATOM     22  C   UNL     1       0.834  -0.492  -1.186  0.00  0.00    +0.078 C 
ATOM     23  C   UNL     1       2.272   0.009  -1.045  0.00  0.00    +0.030 C 
ATOM     24  C   UNL     1       2.277   1.541  -1.048  0.00  0.00    +0.110 C 
BRANCH  19  25
ATOM     25  S   UNL     1       1.889   3.092   1.148  0.00  0.00    +0.061 S 
ATOM     26  O   UNL     1       2.997   3.781   0.585  0.00  0.00    -0.153 OA
ATOM     27  O   UNL     1       0.735   3.768   1.628  0.00  0.00    -0.153 OA
BRANCH  25  32
ATOM     28  C   UNL     1       4.039  -0.144   5.765  0.00  0.00    +0.044 C 
ATOM     29  C   UNL     1       3.502   0.665   4.612  0.00  0.00    -0.050 A 
ATOM     30  C   UNL     1       4.342   1.041   3.581  0.00  0.00    +0.005 A 
ATOM     31  C   UNL     1       3.850   1.783   2.523  0.00  0.00    +0.029 A 
ATOM     32  C   UNL     1       2.517   2.147   2.496  0.00  0.00    +0.105 A 
ATOM     33  C   UNL     1       1.677   1.774   3.529  0.00  0.00    +0.029 A 
ATOM     34  C   UNL     1       2.169   1.029   4.585  0.00  0.00    +0.005 A 
ENDBRANCH  25  32
ENDBRANCH  19  25
ENDBRANCH   1  22
TORSDOF 5
