REMARK  Name = ZINC53845215
REMARK  8 active torsions:
REMARK  status: ('A' for Active; 'I' for Inactive)
REMARK    1  A    between atoms: C_1  and  C_2
REMARK    2  A    between atoms: C_2  and  C_4
REMARK    3  A    between atoms: C_2  and  O_7
REMARK    4  A    between atoms: C_4  and  O_5
REMARK    5  A    between atoms: O_5  and  C_6
REMARK    6  A    between atoms: O_7  and  C_8
REMARK    7  A    between atoms: C_8  and  C_10
REMARK    8  A    between atoms: C_10  and  C_11
REMARK                            x       y       z     vdW  Elec       q    Type
REMARK                         _______ _______ _______ _____ _____    ______ ____
ROOT
ATOM      1  C   UNL     1      -0.420  -1.359   4.601  0.00  0.00    +0.122 A 
ATOM      2  N   UNL     1      -0.040  -1.796   5.829  0.00  0.00    -0.310 N 
ATOM      3  H   UNL     1       0.894  -1.998   5.994  0.00  0.00    +0.170 HD
ATOM      4  C   UNL     1      -0.934  -1.955   6.823  0.00  0.00    +0.260 A 
ATOM      5  O   UNL     1      -0.579  -2.348   7.921  0.00  0.00    -0.267 OA
ATOM      6  C   UNL     1      -2.312  -1.653   6.566  0.00  0.00    +0.075 A 
ATOM      7  C   UNL     1      -3.446  -1.758   7.500  0.00  0.00    -0.021 A 
ATOM      8  C   UNL     1      -4.650  -1.410   7.018  0.00  0.00    +0.006 A 
ATOM      9  S   UNL     1      -4.358  -0.941   5.325  0.00  0.00    -0.072 S 
ATOM     10  C   UNL     1      -2.607  -1.209   5.273  0.00  0.00    +0.116 A 
ATOM     11  N   UNL     1      -1.667  -1.071   4.340  0.00  0.00    -0.226 NA
ATOM     12  C   UNL     1      -5.996  -1.381   7.690  0.00  0.00    +0.111 C 
ATOM     13  S   UNL     1      -5.888  -2.348   9.228  0.00  0.00    -0.155 S 
ATOM     14  C   UNL     1      -4.275  -1.819   9.886  0.00  0.00    +0.074 C 
ATOM     15  C   UNL     1      -3.186  -2.256   8.916  0.00  0.00    +0.047 C 
ENDROOT
BRANCH   1  16
ATOM     16  C   UNL     1       0.618  -1.196   3.521  0.00  0.00    +0.194 C 
BRANCH  16  17
ATOM     17  C   UNL     1      -0.042  -0.697   2.261  0.00  0.00    +0.315 C 
ATOM     18  O   UNL     1      -1.233  -0.493   2.243  0.00  0.00    -0.250 OA
BRANCH  17  19
ATOM     19  O   UNL     1       0.693  -0.477   1.160  0.00  0.00    -0.459 OA
BRANCH  19  21
ATOM     20  C   UNL     1      -0.019   1.526   0.010  0.00  0.00    +0.054 C 
ATOM     21  C   UNL     1       0.002  -0.004   0.002  0.00  0.00    +0.199 C 
BRANCH  21  22
ATOM     22  C   UNL     1       0.718  -0.497  -1.257  0.00  0.00    +0.203 C 
BRANCH  22  23
ATOM     23  O   UNL     1       2.019   0.090  -1.326  0.00  0.00    -0.379 OA
ATOM     24  C   UNL     1       2.776  -0.307  -2.471  0.00  0.00    +0.194 C 
ENDBRANCH  22  23
ENDBRANCH  21  22
ENDBRANCH  19  21
ENDBRANCH  17  19
ENDBRANCH  16  17
ENDBRANCH   1  16
TORSDOF 6
