REMARK  Name = ZINC36640875
REMARK  17 active torsions:
REMARK  status: ('A' for Active; 'I' for Inactive)
REMARK    1  A    between atoms: C_1  and  N_2
REMARK    2  A    between atoms: N_2  and  C_3
REMARK    3  A    between atoms: N_2  and  C_4
REMARK    4  A    between atoms: C_4  and  C_5
REMARK    5  A    between atoms: C_5  and  N_6
REMARK    6  A    between atoms: C_10  and  O_18
REMARK    7  A    between atoms: C_13  and  O_16
REMARK    8  A    between atoms: O_16  and  C_17
REMARK    9  A    between atoms: O_18  and  C_19
REMARK   10  A    between atoms: C_20  and  C_22
REMARK   11  A    between atoms: C_23  and  C_24
REMARK   12  A    between atoms: C_26  and  O_34
REMARK   13  A    between atoms: C_27  and  O_32
REMARK   14  A    between atoms: C_28  and  O_30
REMARK   15  A    between atoms: O_30  and  C_31
REMARK   16  A    between atoms: O_32  and  C_33
REMARK   17  A    between atoms: O_34  and  C_35
REMARK                            x       y       z     vdW  Elec       q    Type
REMARK                         _______ _______ _______ _____ _____    ______ ____
ROOT
ATOM      1  N   UNL     1       0.637  -0.589   3.635  0.00  0.00    -0.249 N 
ATOM      2  C   UNL     1       1.579   0.215   4.256  0.00  0.00    +0.169 A 
ATOM      3  N   UNL     1       1.965   1.428   3.937  0.00  0.00    -0.221 NA
ATOM      4  C   UNL     1       2.904   2.099   4.640  0.00  0.00    +0.125 A 
ATOM      5  C   UNL     1       3.408   3.404   4.404  0.00  0.00    +0.147 A 
ATOM      6  C   UNL     1       4.371   3.944   5.221  0.00  0.00    +0.051 A 
ATOM      7  C   UNL     1       4.883   3.239   6.301  0.00  0.00    +0.050 A 
ATOM      8  C   UNL     1       4.414   1.961   6.561  0.00  0.00    +0.136 A 
ATOM      9  C   UNL     1       3.448   1.412   5.746  0.00  0.00    +0.086 A 
ATOM     10  S   UNL     1       2.572  -0.133   5.700  0.00  0.00    -0.048 S 
ATOM     11  C   UNL     1       0.373  -1.817   4.122  0.00  0.00    +0.245 C 
ATOM     12  O   UNL     1       0.962  -2.220   5.108  0.00  0.00    -0.270 OA
ENDROOT
BRANCH   8  13
ATOM     13  O   UNL     1       4.903   1.252   7.614  0.00  0.00    -0.494 OA
ATOM     14  C   UNL     1       5.903   1.887   8.415  0.00  0.00    +0.277 C 
ENDBRANCH   8  13
BRANCH   5  15
ATOM     15  O   UNL     1       2.932   4.129   3.355  0.00  0.00    -0.493 OA
ATOM     16  C   UNL     1       3.478   5.436   3.169  0.00  0.00    +0.277 C 
ENDBRANCH   5  15
BRANCH  11  17
ATOM     17  C   UNL     1      -0.621  -2.665   3.467  0.00  0.00    +0.068 C 
ATOM     18  C   UNL     1      -0.886  -3.896   3.955  0.00  0.00    +0.013 C 
BRANCH  18  19
ATOM     19  C   UNL     1      -1.885  -4.749   3.296  0.00  0.00    -0.018 A 
ATOM     20  C   UNL     1      -2.559  -4.289   2.159  0.00  0.00    +0.057 A 
ATOM     21  C   UNL     1      -3.498  -5.093   1.541  0.00  0.00    +0.166 A 
ATOM     22  C   UNL     1      -3.774  -6.360   2.050  0.00  0.00    +0.204 A 
ATOM     23  C   UNL     1      -3.105  -6.821   3.181  0.00  0.00    +0.166 A 
ATOM     24  C   UNL     1      -2.161  -6.024   3.801  0.00  0.00    +0.057 A 
BRANCH  23  25
ATOM     25  O   UNL     1      -3.378  -8.059   3.675  0.00  0.00    -0.491 OA
ATOM     26  C   UNL     1      -2.656  -8.467   4.838  0.00  0.00    +0.277 C 
ENDBRANCH  23  25
BRANCH  22  27
ATOM     27  O   UNL     1      -4.698  -7.149   1.440  0.00  0.00    -0.488 OA
ATOM     28  C   UNL     1      -4.229  -8.020   0.410  0.00  0.00    +0.277 C 
ENDBRANCH  22  27
BRANCH  21  29
ATOM     29  O   UNL     1      -4.153  -4.648   0.436  0.00  0.00    -0.491 OA
ATOM     30  C   UNL     1      -3.821  -3.339  -0.031  0.00  0.00    +0.277 C 
ENDBRANCH  21  29
ENDBRANCH  18  19
ENDBRANCH  11  17
BRANCH   1  31
ATOM     31  C   UNL     1      -0.071  -0.103   2.448  0.00  0.00    +0.097 C 
BRANCH  31  32
ATOM     32  C   UNL     1       0.713  -0.491   1.192  0.00  0.00    -0.060 C 
BRANCH  32  34
ATOM     33  C   UNL     1      -0.018   1.465   0.010  0.00  0.00    -0.097 C 
ATOM     34  N   UNL     1       0.002  -0.004   0.002  0.00  0.00    +0.377 N 
ATOM     35  C   UNL     1       0.690  -0.478  -1.207  0.00  0.00    -0.097 C 
ATOM     36  H   UNL     1      -0.945  -0.353   0.009  0.00  0.00    -0.083 HD
ENDBRANCH  32  34
ENDBRANCH  31  32
ENDBRANCH   1  31
TORSDOF 10
