REMARK  Name = ZINC11120254
REMARK  7 active torsions:
REMARK  status: ('A' for Active; 'I' for Inactive)
REMARK    1  A    between atoms: C_1  and  C_2
REMARK    2  A    between atoms: C_3  and  C_29
REMARK    3  A    between atoms: C_5  and  N_10
REMARK    4  A    between atoms: C_6  and  C_7
REMARK    5  A    between atoms: C_11  and  C_13
REMARK    6  A    between atoms: N_16  and  S_19
REMARK    7  A    between atoms: S_19  and  C_22
REMARK                            x       y       z     vdW  Elec       q    Type
REMARK                         _______ _______ _______ _____ _____    ______ ____
ROOT
ATOM      1  N   UNL     1       1.500  -2.656  -2.184  0.00  0.00    -0.279 N 
ATOM      2  C   UNL     1       0.828  -1.999  -1.218  0.00  0.00    +0.221 C 
ATOM      3  O   UNL     1       0.219  -2.621  -0.373  0.00  0.00    -0.275 OA
ATOM      4  H   UNL     1       1.986  -2.158  -2.860  0.00  0.00    +0.155 HD
ENDROOT
BRANCH   1   9
ATOM      5  C   UNL     1       2.579  -7.320  -3.830  0.00  0.00    +0.045 C 
ATOM      6  C   UNL     1       1.947  -6.307  -2.911  0.00  0.00    -0.027 A 
ATOM      7  C   UNL     1       1.196  -6.685  -1.860  0.00  0.00    -0.008 A 
ATOM      8  S   UNL     1       0.707  -5.137  -1.128  0.00  0.00    -0.078 S 
ATOM      9  C   UNL     1       1.495  -4.042  -2.213  0.00  0.00    +0.084 A 
ATOM     10  C   UNL     1       2.116  -4.889  -3.123  0.00  0.00    +0.068 A 
ATOM     11  C   UNL     1       0.854  -8.082  -1.411  0.00  0.00    +0.052 C 
BRANCH  10  12
ATOM     12  C   UNL     1       2.908  -4.368  -4.242  0.00  0.00    +0.244 C 
ATOM     13  O   UNL     1       4.100  -4.168  -4.102  0.00  0.00    -0.270 OA
ATOM     14  N   UNL     1       2.315  -4.111  -5.425  0.00  0.00    -0.325 N 
ATOM     15  H   UNL     1       1.365  -4.270  -5.536  0.00  0.00    +0.145 HD
ATOM     16  H   UNL     1       2.839  -3.766  -6.165  0.00  0.00    +0.145 HD
ENDBRANCH  10  12
ENDBRANCH   1   9
BRANCH   2  17
ATOM     17  C   UNL     1       0.834  -0.492  -1.186  0.00  0.00    +0.078 C 
ATOM     18  C   UNL     1       0.002  -0.004   0.002  0.00  0.00    +0.030 C 
ATOM     19  C   UNL     1      -0.019   1.528   0.010  0.00  0.00    +0.110 C 
ATOM     20  N   UNL     1       1.366   2.019  -0.000  0.00  0.00    -0.177 NA
ATOM     21  C   UNL     1       2.277   1.541  -1.048  0.00  0.00    +0.110 C 
ATOM     22  C   UNL     1       2.272   0.009  -1.045  0.00  0.00    +0.030 C 
BRANCH  20  23
ATOM     23  S   UNL     1       1.889   3.092   1.148  0.00  0.00    +0.061 S 
ATOM     24  O   UNL     1       2.997   3.781   0.585  0.00  0.00    -0.153 OA
ATOM     25  O   UNL     1       0.735   3.768   1.628  0.00  0.00    -0.153 OA
BRANCH  23  26
ATOM     26  C   UNL     1       2.517   2.147   2.496  0.00  0.00    +0.106 A 
ATOM     27  C   UNL     1       1.677   1.775   3.529  0.00  0.00    +0.031 A 
ATOM     28  C   UNL     1       2.167   1.029   4.585  0.00  0.00    +0.040 A 
ATOM     29  C   UNL     1       3.502   0.664   4.612  0.00  0.00    +0.124 A 
ATOM     30  C   UNL     1       4.344   1.042   3.580  0.00  0.00    +0.040 A 
ATOM     31  C   UNL     1       3.850   1.783   2.523  0.00  0.00    +0.031 A 
ATOM     32  F   UNL     1       3.983  -0.060   5.646  0.00  0.00    -0.205 F 
ENDBRANCH  23  26
ENDBRANCH  20  23
ENDBRANCH   2  17
TORSDOF 5
