REMARK  Name = ZINC66940632
REMARK  6 active torsions:
REMARK  status: ('A' for Active; 'I' for Inactive)
REMARK    1  A    between atoms: C_4  and  C_21
REMARK    2  A    between atoms: C_5  and  C_7
REMARK    3  A    between atoms: C_7  and  N_8
REMARK    4  A    between atoms: N_8  and  C_9
REMARK    5  A    between atoms: C_9  and  C_11
REMARK    6  A    between atoms: C_9  and  C_18
REMARK                            x       y       z     vdW  Elec       q    Type
REMARK                         _______ _______ _______ _____ _____    ______ ____
ROOT
ATOM      1  N   UNL     1       1.409  -2.516   1.702  0.00  0.00    -0.298 NA
ATOM      2  H   UNL     1       2.215  -2.035   2.072  0.00  0.00    +0.123 HD
ENDROOT
BRANCH   1   3
ATOM      3  C   UNL     1       1.192  -2.172   0.290  0.00  0.00    +0.118 C 
BRANCH   3   8
ATOM      4  C   UNL     1      -0.449   1.200  -0.151  0.00  0.00    +0.000 A 
ATOM      5  C   UNL     1       0.636   2.055  -0.080  0.00  0.00    +0.001 A 
ATOM      6  C   UNL     1       1.906   1.549   0.112  0.00  0.00    +0.009 A 
ATOM      7  C   UNL     1       2.094   0.173   0.233  0.00  0.00    -0.013 A 
ATOM      8  C   UNL     1       0.997  -0.683   0.160  0.00  0.00    -0.026 A 
ATOM      9  C   UNL     1      -0.268  -0.166  -0.031  0.00  0.00    +0.005 A 
BRANCH   7  10
ATOM     10  C   UNL     1       3.456  -0.377   0.438  0.00  0.00    -0.017 A 
ATOM     11  C   UNL     1       3.972  -1.316  -0.453  0.00  0.00    +0.010 A 
ATOM     12  C   UNL     1       5.240  -1.825  -0.259  0.00  0.00    +0.020 A 
ATOM     13  C   UNL     1       5.999  -1.404   0.820  0.00  0.00    +0.041 A 
ATOM     14  C   UNL     1       5.491  -0.471   1.708  0.00  0.00    +0.020 A 
ATOM     15  C   UNL     1       4.226   0.048   1.518  0.00  0.00    +0.010 A 
ATOM     16 CL   UNL     1       7.593  -2.047   1.060  0.00  0.00    -0.084 Cl
ENDBRANCH   7  10
ENDBRANCH   3   8
ENDBRANCH   1   3
BRANCH   1  17
ATOM     17  C   UNL     1       1.536  -3.969   1.876  0.00  0.00    +0.171 C 
BRANCH  17  18
ATOM     18  C   UNL     1       2.334  -4.258   3.122  0.00  0.00    -0.021 A 
ATOM     19  C   UNL     1       2.133  -3.500   4.261  0.00  0.00    +0.008 A 
ATOM     20  C   UNL     1       2.864  -3.764   5.404  0.00  0.00    +0.038 A 
ATOM     21  C   UNL     1       3.796  -4.787   5.409  0.00  0.00    +0.123 A 
ATOM     22  C   UNL     1       3.996  -5.545   4.267  0.00  0.00    +0.038 A 
ATOM     23  C   UNL     1       3.261  -5.283   3.127  0.00  0.00    +0.008 A 
ATOM     24  F   UNL     1       4.511  -5.046   6.525  0.00  0.00    -0.205 F 
ENDBRANCH  17  18
BRANCH  17  25
ATOM     25  C   UNL     1       0.166  -4.582   2.004  0.00  0.00    +0.232 C 
ATOM     26  O   UNL     1      -0.821  -3.877   1.955  0.00  0.00    -0.274 OA
ATOM     27  N   UNL     1       0.035  -5.913   2.173  0.00  0.00    -0.328 N 
ATOM     28  H   UNL     1       0.824  -6.476   2.212  0.00  0.00    +0.145 HD
ATOM     29  H   UNL     1      -0.847  -6.307   2.256  0.00  0.00    +0.145 HD
ENDBRANCH  17  25
ENDBRANCH   1  17
TORSDOF 6
