REMARK  Name = ZINC20615244
REMARK  10 active torsions:
REMARK  status: ('A' for Active; 'I' for Inactive)
REMARK    1  A    between atoms: C_1  and  C_2
REMARK    2  A    between atoms: C_5  and  S_8
REMARK    3  A    between atoms: S_8  and  C_11
REMARK    4  A    between atoms: N_21  and  N_22
REMARK    5  A    between atoms: N_22  and  S_23
REMARK    6  A    between atoms: S_23  and  C_26
REMARK    7  A    between atoms: C_29  and  C_32
REMARK    8  A    between atoms: C_32  and  C_33
REMARK    9  A    between atoms: C_32  and  C_34
REMARK   10  A    between atoms: C_32  and  C_35
REMARK                            x       y       z     vdW  Elec       q    Type
REMARK                         _______ _______ _______ _____ _____    ______ ____
ROOT
ATOM      1  C   UNL     1       1.808  -4.778  -0.129  0.00  0.00    +0.155 A 
ATOM      2  C   UNL     1       2.366  -5.560   0.830  0.00  0.00    +0.044 A 
ATOM      3  C   UNL     1       3.728  -6.069   0.592  0.00  0.00    +0.019 A 
ATOM      4  C   UNL     1       4.261  -7.082   1.390  0.00  0.00    +0.011 A 
ATOM      5  C   UNL     1       5.538  -7.543   1.145  0.00  0.00    +0.001 A 
ATOM      6  C   UNL     1       6.290  -7.005   0.114  0.00  0.00    +0.004 A 
ATOM      7  C   UNL     1       5.772  -6.000  -0.683  0.00  0.00    +0.047 A 
ATOM      8  C   UNL     1       4.493  -5.526  -0.451  0.00  0.00    +0.138 A 
ATOM      9  O   UNL     1       3.969  -4.536  -1.221  0.00  0.00    -0.436 OA
ATOM     10  C   UNL     1       2.607  -4.507  -1.335  0.00  0.00    +0.238 A 
ATOM     11  N   UNL     1       2.031  -4.243  -2.477  0.00  0.00    -0.260 N 
ATOM     12  H   UNL     1       1.066  -4.151  -2.523  0.00  0.00    +0.189 HD
ENDROOT
BRANCH   1  13
ATOM     13  S   UNL     1       0.185  -4.118   0.059  0.00  0.00    +0.030 S 
ATOM     14  O   UNL     1      -0.293  -4.570   1.319  0.00  0.00    -0.164 OA
ATOM     15  O   UNL     1      -0.503  -4.381  -1.156  0.00  0.00    -0.164 OA
BRANCH  13  20
ATOM     16  C   UNL     1       0.729   1.877   0.470  0.00  0.00    +0.044 C 
ATOM     17  C   UNL     1       0.594   0.379   0.367  0.00  0.00    -0.050 A 
ATOM     18  C   UNL     1       0.545  -0.227  -0.874  0.00  0.00    +0.005 A 
ATOM     19  C   UNL     1       0.421  -1.600  -0.968  0.00  0.00    +0.027 A 
ATOM     20  C   UNL     1       0.345  -2.368   0.179  0.00  0.00    +0.094 A 
ATOM     21  C   UNL     1       0.394  -1.762   1.421  0.00  0.00    +0.027 A 
ATOM     22  C   UNL     1       0.523  -0.389   1.515  0.00  0.00    +0.005 A 
ENDBRANCH  13  20
ENDBRANCH   1  13
BRANCH  11  23
ATOM     23  N   UNL     1       2.806  -4.092  -3.634  0.00  0.00    -0.157 N 
ATOM     24  H   UNL     1       3.774  -4.095  -3.573  0.00  0.00    +0.194 HD
BRANCH  23  25
ATOM     25  S   UNL     1       2.070  -3.911  -5.106  0.00  0.00    +0.085 S 
ATOM     26  O   UNL     1       3.101  -3.639  -6.045  0.00  0.00    -0.149 OA
ATOM     27  O   UNL     1       1.177  -5.007  -5.251  0.00  0.00    -0.149 OA
BRANCH  25  28
ATOM     28  C   UNL     1       1.075  -2.459  -5.015  0.00  0.00    +0.110 A 
ATOM     29  C   UNL     1      -0.212  -2.533  -4.518  0.00  0.00    +0.029 A 
ATOM     30  C   UNL     1      -0.993  -1.395  -4.447  0.00  0.00    +0.006 A 
ATOM     31  C   UNL     1      -0.485  -0.181  -4.873  0.00  0.00    -0.042 A 
ATOM     32  C   UNL     1       0.803  -0.107  -5.369  0.00  0.00    +0.006 A 
ATOM     33  C   UNL     1       1.585  -1.245  -5.436  0.00  0.00    +0.029 A 
BRANCH  31  34
ATOM     34  C   UNL     1      -1.336   1.060  -4.796  0.00  0.00    -0.013 C 
ATOM     35  C   UNL     1      -1.633   1.385  -3.331  0.00  0.00    +0.015 C 
ATOM     36  C   UNL     1      -0.589   2.231  -5.437  0.00  0.00    +0.015 C 
ATOM     37  C   UNL     1      -2.651   0.824  -5.543  0.00  0.00    +0.015 C 
ENDBRANCH  31  34
ENDBRANCH  25  28
ENDBRANCH  23  25
ENDBRANCH  11  23
TORSDOF 6
