REMARK  Name = ZINC48882085
REMARK  6 active torsions:
REMARK  status: ('A' for Active; 'I' for Inactive)
REMARK    1  A    between atoms: C_1  and  C_2
REMARK    2  A    between atoms: C_3  and  C_21
REMARK    3  A    between atoms: C_7  and  C_8
REMARK    4  A    between atoms: N_11  and  C_12
REMARK    5  A    between atoms: N_11  and  C_13
REMARK    6  A    between atoms: C_13  and  C_14
REMARK                            x       y       z     vdW  Elec       q    Type
REMARK                         _______ _______ _______ _____ _____    ______ ____
ROOT
ATOM      1  C   UNL     1       0.031   1.500   0.092  0.00  0.00    +0.046 C 
ATOM      2  C   UNL     1       0.027  -0.006   0.041  0.00  0.00    -0.016 A 
ATOM      3  C   UNL     1      -0.066  -0.680  -1.167  0.00  0.00    +0.035 A 
ATOM      4  N   UNL     1      -0.069  -1.998  -1.192  0.00  0.00    -0.280 N 
ATOM      5  N   UNL     1       0.012  -2.710  -0.128  0.00  0.00    -0.158 NA
ATOM      6  C   UNL     1       0.105  -2.169   1.079  0.00  0.00    +0.152 A 
ATOM      7  C   UNL     1       0.122  -0.768   1.210  0.00  0.00    +0.060 A 
ATOM      8  N   UNL     1       0.191  -2.976   2.201  0.00  0.00    -0.312 N 
ATOM      9  C   UNL     1       1.500  -3.416   2.689  0.00  0.00    +0.131 C 
ATOM     10  C   UNL     1      -0.165   0.097  -2.455  0.00  0.00    +0.065 C 
ATOM     11  H   UNL     1      -0.136  -2.447  -2.049  0.00  0.00    +0.189 HD
ENDROOT
BRANCH   7  12
ATOM     12  C   UNL     1       0.231  -0.124   2.537  0.00  0.00    +0.119 C 
ATOM     13  N   UNL     1      -0.844   0.134   3.227  0.00  0.00    -0.285 NA
ATOM     14  N   UNL     1       1.470   0.203   3.045  0.00  0.00    -0.343 N 
ATOM     15  H   UNL     1       2.271   0.011   2.531  0.00  0.00    +0.144 HD
ATOM     16  H   UNL     1       1.542   0.625   3.915  0.00  0.00    +0.144 HD
ATOM     17  H   UNL     1      -1.716  -0.097   2.870  0.00  0.00    +0.188 HD
ENDBRANCH   7  12
BRANCH   8  18
ATOM     18  C   UNL     1      -1.028  -3.389   2.901  0.00  0.00    +0.141 C 
BRANCH  18  19
ATOM     19  C   UNL     1      -1.528  -4.685   2.317  0.00  0.00    -0.030 A 
ATOM     20  C   UNL     1      -2.413  -4.669   1.255  0.00  0.00    +0.006 A 
ATOM     21  C   UNL     1      -2.871  -5.857   0.719  0.00  0.00    +0.015 A 
ATOM     22  C   UNL     1      -2.444  -7.063   1.245  0.00  0.00    +0.018 A 
ATOM     23  C   UNL     1      -1.558  -7.079   2.307  0.00  0.00    +0.015 A 
ATOM     24  C   UNL     1      -1.097  -5.890   2.840  0.00  0.00    +0.006 A 
ATOM     25 BR   UNL     1      -3.071  -8.690   0.512  0.00  0.00    -0.050 Br
ENDBRANCH  18  19
ENDBRANCH   8  18
TORSDOF 3
