REMARK  Name = ZINC61589830
REMARK  3 active torsions:
REMARK  status: ('A' for Active; 'I' for Inactive)
REMARK    1  A    between atoms: C_3  and  C_7
REMARK    2  A    between atoms: C_3  and  S_10
REMARK    3  A    between atoms: S_10  and  C_11
REMARK                            x       y       z     vdW  Elec       q    Type
REMARK                         _______ _______ _______ _____ _____    ______ ____
ROOT
ATOM      1  S   UNL     1       3.614   2.777  -1.448  0.00  0.00    -0.065 S 
ENDROOT
BRANCH   1   2
ATOM      2  C   UNL     1       4.241   2.411  -3.054  0.00  0.00    +0.211 A 
ATOM      3  N   UNL     1       5.383   2.883  -3.568  0.00  0.00    -0.188 NA
ATOM      4  C   UNL     1       5.548   2.411  -4.785  0.00  0.00    +0.209 A 
ATOM      5  N   UNL     1       4.495   1.616  -5.071  0.00  0.00    -0.246 N 
ATOM      6  H   UNL     1       4.342   1.130  -5.896  0.00  0.00    +0.192 HD
ATOM      7  N   UNL     1       3.668   1.628  -3.936  0.00  0.00    -0.144 NA
ATOM      8  N   UNL     1       6.613   2.682  -5.625  0.00  0.00    -0.328 N 
ATOM      9  H   UNL     1       7.327   3.268  -5.329  0.00  0.00    +0.145 HD
ATOM     10  H   UNL     1       6.647   2.285  -6.510  0.00  0.00    +0.145 HD
ENDBRANCH   1   2
BRANCH   1  13
ATOM     11  C   UNL     1      -0.018   1.531   0.012  0.00  0.00    +0.013 C 
ATOM     12  C   UNL     1       1.409   2.069  -0.000  0.00  0.00    +0.031 C 
ATOM     13  C   UNL     1       2.064   1.838  -1.359  0.00  0.00    +0.134 C 
ATOM     14  C   UNL     1       2.361   0.347  -1.548  0.00  0.00    +0.098 C 
ATOM     15  S   UNL     1       0.789  -0.566  -1.532  0.00  0.00    -0.159 S 
ATOM     16  C   UNL     1       0.001   0.000   0.005  0.00  0.00    +0.069 C 
BRANCH  13  17
ATOM     17  C   UNL     1       1.134   2.306  -2.449  0.00  0.00    +0.373 C 
ATOM     18  O   UNL     1       0.920   3.497  -2.597  0.00  0.00    -0.245 OA
ATOM     19  O   UNL     1       0.596   1.493  -3.181  0.00  0.00    -0.245 OA
ENDBRANCH  13  17
ENDBRANCH   1  13
TORSDOF 3
