REMARK  Name = ZINC20191654
REMARK  13 active torsions:
REMARK  status: ('A' for Active; 'I' for Inactive)
REMARK    1  A    between atoms: C_1  and  C_2
REMARK    2  A    between atoms: C_2  and  C_3
REMARK    3  A    between atoms: C_3  and  C_4
REMARK    4  A    between atoms: C_4  and  C_5
REMARK    5  A    between atoms: C_5  and  C_6
REMARK    6  A    between atoms: C_6  and  O_7
REMARK    7  A    between atoms: O_7  and  C_8
REMARK    8  A    between atoms: C_11  and  N_14
REMARK    9  A    between atoms: C_18  and  N_22
REMARK   10  A    between atoms: N_22  and  C_23
REMARK   11  A    between atoms: C_23  and  C_24
REMARK   12  A    between atoms: C_27  and  S_30
REMARK   13  A    between atoms: S_30  and  N_33
REMARK                            x       y       z     vdW  Elec       q    Type
REMARK                         _______ _______ _______ _____ _____    ______ ____
ROOT
ATOM      1  N   UNL     1       2.575  -9.986  -4.370  0.00  0.00    -0.212 N 
ATOM      2  C   UNL     1       2.162 -10.862  -3.445  0.00  0.00    +0.225 C 
ATOM      3  O   UNL     1       1.658 -10.575  -2.381  0.00  0.00    -0.275 OA
ATOM      4  C   UNL     1       2.424 -12.268  -3.940  0.00  0.00    +0.090 C 
ATOM      5  C   UNL     1       3.067 -12.050  -5.325  0.00  0.00    +0.026 C 
ATOM      6  C   UNL     1       3.095 -10.544  -5.470  0.00  0.00    +0.213 C 
ATOM      7  O   UNL     1       3.523  -9.939  -6.429  0.00  0.00    -0.277 OA
ENDROOT
BRANCH   1  11
ATOM      8  C   UNL     1       2.249  -5.857  -3.870  0.00  0.00    +0.121 A 
ATOM      9  C   UNL     1       1.489  -6.501  -4.836  0.00  0.00    +0.047 A 
ATOM     10  C   UNL     1       1.596  -7.868  -5.002  0.00  0.00    +0.027 A 
ATOM     11  C   UNL     1       2.465  -8.597  -4.202  0.00  0.00    +0.044 A 
ATOM     12  C   UNL     1       3.226  -7.953  -3.236  0.00  0.00    +0.027 A 
ATOM     13  C   UNL     1       3.122  -6.585  -3.075  0.00  0.00    +0.047 A 
BRANCH   8  14
ATOM     14  O   UNL     1       2.143  -4.512  -3.708  0.00  0.00    -0.492 OA
BRANCH  14  15
ATOM     15  C   UNL     1       1.225  -3.825  -4.561  0.00  0.00    +0.229 C 
BRANCH  15  16
ATOM     16  C   UNL     1       1.244  -2.331  -4.234  0.00  0.00    +0.041 C 
BRANCH  16  17
ATOM     17  C   UNL     1       0.261  -1.596  -5.147  0.00  0.00    +0.003 C 
BRANCH  17  18
ATOM     18  C   UNL     1       0.279  -0.102  -4.819  0.00  0.00    -0.000 C 
BRANCH  18  20
ATOM     19  C   UNL     1      -0.685   2.127  -5.405  0.00  0.00    +0.004 C 
ATOM     20  C   UNL     1      -0.704   0.633  -5.733  0.00  0.00    -0.003 C 
ENDBRANCH  18  20
ENDBRANCH  17  18
ENDBRANCH  16  17
ENDBRANCH  15  16
ENDBRANCH  14  15
ENDBRANCH   8  14
ENDBRANCH   1  11
BRANCH   5  21
ATOM     21  N   UNL     1       4.426 -12.606  -5.357  0.00  0.00    +0.390 N 
ATOM     22  H   UNL     1       5.014 -12.094  -4.717  0.00  0.00    -0.084 HD
ATOM     23  H   UNL     1       4.399 -13.578  -5.086  0.00  0.00    -0.084 HD
BRANCH  21  24
ATOM     24  C   UNL     1       4.969 -12.493  -6.718  0.00  0.00    -0.046 C 
BRANCH  24  25
ATOM     25  C   UNL     1       6.364 -13.063  -6.751  0.00  0.00    -0.064 A 
ATOM     26  C   UNL     1       7.450 -12.248  -6.493  0.00  0.00    +0.003 A 
ATOM     27  C   UNL     1       8.729 -12.771  -6.523  0.00  0.00    +0.029 A 
ATOM     28  C   UNL     1       8.922 -14.109  -6.812  0.00  0.00    +0.105 A 
ATOM     29  C   UNL     1       7.836 -14.924  -7.069  0.00  0.00    +0.029 A 
ATOM     30  C   UNL     1       6.556 -14.402  -7.034  0.00  0.00    +0.003 A 
BRANCH  28  31
ATOM     31  S   UNL     1      10.553 -14.775  -6.852  0.00  0.00    +0.056 S 
ATOM     32  O   UNL     1      10.500 -15.928  -7.681  0.00  0.00    -0.153 OA
ATOM     33  O   UNL     1      11.430 -13.688  -7.114  0.00  0.00    -0.153 OA
BRANCH  31  34
ATOM     34  N   UNL     1      10.902 -15.307  -5.323  0.00  0.00    -0.204 NA
ATOM     35  H   UNL     1      10.245 -15.214  -4.615  0.00  0.00    +0.144 HD
ATOM     36  H   UNL     1      11.764 -15.712  -5.135  0.00  0.00    +0.144 HD
ENDBRANCH  31  34
ENDBRANCH  28  31
ENDBRANCH  24  25
ENDBRANCH  21  24
ENDBRANCH   5  21
TORSDOF 12
