REMARK  Name = ZINC39661868
REMARK  7 active torsions:
REMARK  status: ('A' for Active; 'I' for Inactive)
REMARK    1  A    between atoms: C_3  and  O_33
REMARK    2  A    between atoms: C_4  and  O_32
REMARK    3  A    between atoms: C_6  and  C_7
REMARK    4  A    between atoms: C_7  and  C_8
REMARK    5  A    between atoms: C_8  and  N_9
REMARK    6  A    between atoms: C_10  and  C_12
REMARK    7  A    between atoms: C_23  and  C_25
REMARK                            x       y       z     vdW  Elec       q    Type
REMARK                         _______ _______ _______ _____ _____    ______ ____
ROOT
ATOM      1  C   UNL     1      -5.730  -2.655  -2.136  0.00  0.00    +0.100 C 
ATOM      2  C   UNL     1      -5.082  -4.045  -1.942  0.00  0.00    +0.121 C 
ATOM      3  N   UNL     1      -5.910  -4.962  -2.760  0.00  0.00    -0.300 N 
ATOM      4  C   UNL     1      -6.221  -4.185  -3.984  0.00  0.00    +0.115 C 
ATOM      5  C   UNL     1      -6.476  -2.752  -3.478  0.00  0.00    -0.004 C 
ATOM      6  C   UNL     1      -5.915  -1.736  -4.468  0.00  0.00    -0.010 C 
ATOM      7  C   UNL     1      -6.710  -1.810  -5.775  0.00  0.00    -0.082 C 
ATOM      8  N   UNL     1      -8.126  -1.530  -5.505  0.00  0.00    +0.379 N 
ATOM      9  C   UNL     1      -8.682  -2.565  -4.625  0.00  0.00    -0.082 C 
ATOM     10  C   UNL     1      -7.970  -2.523  -3.270  0.00  0.00    -0.010 C 
ATOM     11  C   UNL     1      -6.295  -6.218  -2.459  0.00  0.00    +0.219 C 
ATOM     12  O   UNL     1      -6.026  -6.691  -1.375  0.00  0.00    -0.275 OA
ATOM     13  H   UNL     1      -8.210  -0.629  -5.057  0.00  0.00    -0.086 HD
ATOM     14  H   UNL     1      -8.637  -1.519  -6.374  0.00  0.00    -0.086 HD
ENDROOT
BRANCH  11  15
ATOM     15  C   UNL     1      -7.060  -7.034  -3.468  0.00  0.00    +0.079 C 
ATOM     16  C   UNL     1      -7.902  -8.092  -2.744  0.00  0.00    +0.017 C 
ATOM     17  C   UNL     1      -8.799  -8.784  -3.773  0.00  0.00    +0.027 C 
ATOM     18  C   UNL     1      -7.987  -9.219  -4.958  0.00  0.00    -0.031 C 
ATOM     19  C   UNL     1      -6.806  -8.766  -5.233  0.00  0.00    -0.030 C 
ATOM     20  C   UNL     1      -6.079  -7.746  -4.403  0.00  0.00    +0.039 C 
ENDBRANCH  11  15
BRANCH   1  22
ATOM     21  N   UNL     1      -4.957  -0.329  -1.811  0.00  0.00    -0.315 N 
ATOM     22  C   UNL     1      -4.670  -1.587  -2.201  0.00  0.00    +0.218 C 
ATOM     23  O   UNL     1      -3.558  -1.858  -2.604  0.00  0.00    -0.275 OA
ATOM     24  H   UNL     1      -5.845  -0.111  -1.489  0.00  0.00    +0.149 HD
BRANCH  21  25
ATOM     25  C   UNL     1      -3.926   0.711  -1.874  0.00  0.00    +0.109 C 
BRANCH  25  26
ATOM     26  C   UNL     1      -4.508   2.036  -1.378  0.00  0.00    +0.054 C 
BRANCH  26  32
ATOM     27  C   UNL     1      -3.301   3.863  -2.589  0.00  0.00    +0.007 A 
ATOM     28  C   UNL     1      -2.330   4.845  -2.653  0.00  0.00    +0.049 A 
ATOM     29  C   UNL     1      -1.500   5.071  -1.567  0.00  0.00    +0.158 A 
ATOM     30  C   UNL     1      -1.648   4.308  -0.412  0.00  0.00    +0.158 A 
ATOM     31  C   UNL     1      -2.623   3.326  -0.354  0.00  0.00    +0.052 A 
ATOM     32  C   UNL     1      -3.447   3.105  -1.443  0.00  0.00    -0.042 A 
BRANCH  30  33
ATOM     33  O   UNL     1      -0.836   4.526   0.657  0.00  0.00    -0.503 OA
ATOM     34  H   UNL     1      -1.177   5.179   1.283  0.00  0.00    +0.292 HD
ENDBRANCH  30  33
BRANCH  29  35
ATOM     35  O   UNL     1      -0.544   6.036  -1.628  0.00  0.00    -0.503 OA
ATOM     36  H   UNL     1      -0.844   6.906  -1.329  0.00  0.00    +0.292 HD
ENDBRANCH  29  35
ENDBRANCH  26  32
ENDBRANCH  25  26
ENDBRANCH  21  25
ENDBRANCH   1  22
TORSDOF 7
