REMARK  Name = ZINC20115354
REMARK  9 active torsions:
REMARK  status: ('A' for Active; 'I' for Inactive)
REMARK    1  A    between atoms: C_1  and  C_2
REMARK    2  A    between atoms: C_2  and  C_21
REMARK    3  A    between atoms: N_3  and  N_4
REMARK    4  A    between atoms: C_5  and  C_7
REMARK    5  A    between atoms: C_12  and  O_13
REMARK    6  A    between atoms: O_13  and  C_14
REMARK    7  A    between atoms: C_14  and  C_15
REMARK    8  A    between atoms: C_23  and  O_28
REMARK    9  A    between atoms: C_26  and  O_27
REMARK                            x       y       z     vdW  Elec       q    Type
REMARK                         _______ _______ _______ _____ _____    ______ ____
ROOT
ATOM      1  N   UNL     1      -0.240  -2.040   1.116  0.00  0.00    -0.203 N 
ATOM      2  C   UNL     1      -0.404  -2.704   2.277  0.00  0.00    +0.267 C 
ATOM      3  O   UNL     1      -0.309  -2.112   3.335  0.00  0.00    -0.268 OA
ATOM      4  H   UNL     1      -0.244  -2.525   0.275  0.00  0.00    +0.178 HD
ENDROOT
BRANCH   2   5
ATOM      5  C   UNL     1      -0.700  -4.149   2.265  0.00  0.00    +0.080 A 
ATOM      6  C   UNL     1      -0.699  -4.857   1.060  0.00  0.00    +0.017 A 
ATOM      7  C   UNL     1      -0.976  -6.206   1.055  0.00  0.00    +0.001 A 
ATOM      8  C   UNL     1      -1.256  -6.867   2.241  0.00  0.00    +0.004 A 
ATOM      9  C   UNL     1      -1.260  -6.180   3.438  0.00  0.00    +0.046 A 
ATOM     10  C   UNL     1      -0.978  -4.822   3.462  0.00  0.00    +0.133 A 
BRANCH  10  11
ATOM     11  O   UNL     1      -0.977  -4.147   4.639  0.00  0.00    -0.487 OA
BRANCH  11  12
ATOM     12  C   UNL     1      -1.269  -4.899   5.819  0.00  0.00    +0.264 C 
BRANCH  12  13
ATOM     13  C   UNL     1      -1.222  -3.989   7.019  0.00  0.00    -0.010 A 
ATOM     14  C   UNL     1      -0.034  -3.807   7.702  0.00  0.00    +0.007 A 
ATOM     15  C   UNL     1       0.009  -2.972   8.803  0.00  0.00    +0.000 A 
ATOM     16  C   UNL     1      -1.136  -2.319   9.221  0.00  0.00    +0.000 A 
ATOM     17  C   UNL     1      -2.323  -2.501   8.537  0.00  0.00    +0.000 A 
ATOM     18  C   UNL     1      -2.365  -3.332   7.434  0.00  0.00    +0.007 A 
ENDBRANCH  12  13
ENDBRANCH  11  12
ENDBRANCH  10  11
ENDBRANCH   2   5
BRANCH   1  21
ATOM     19  C   UNL     1       0.086   1.507   0.010  0.00  0.00    +0.068 C 
ATOM     20  C   UNL     1      -0.014   0.003   0.002  0.00  0.00    +0.067 C 
ATOM     21  N   UNL     1      -0.065  -0.650   1.122  0.00  0.00    -0.184 NA
BRANCH  20  22
ATOM     22  C   UNL     1      -0.054  -0.726  -1.279  0.00  0.00    +0.042 A 
ATOM     23  C   UNL     1      -1.202  -1.430  -1.649  0.00  0.00    +0.058 A 
ATOM     24  C   UNL     1      -1.232  -2.112  -2.853  0.00  0.00    +0.118 A 
ATOM     25  C   UNL     1      -0.125  -2.097  -3.692  0.00  0.00    +0.049 A 
ATOM     26  C   UNL     1       1.014  -1.402  -3.332  0.00  0.00    +0.049 A 
ATOM     27  C   UNL     1       1.057  -0.711  -2.132  0.00  0.00    +0.126 A 
BRANCH  27  28
ATOM     28  O   UNL     1       2.176  -0.024  -1.782  0.00  0.00    -0.506 OA
ATOM     29  H   UNL     1       2.850  -0.565  -1.348  0.00  0.00    +0.292 HD
ENDBRANCH  27  28
BRANCH  24  30
ATOM     30  O   UNL     1      -2.349  -2.798  -3.216  0.00  0.00    -0.507 OA
ATOM     31  H   UNL     1      -2.985  -2.275  -3.721  0.00  0.00    +0.292 HD
ENDBRANCH  24  30
ENDBRANCH  20  22
ENDBRANCH   1  21
TORSDOF 8
