REMARK  Name = ZINC43302316
REMARK  3 active torsions:
REMARK  status: ('A' for Active; 'I' for Inactive)
REMARK    1  A    between atoms: C_1  and  N_2
REMARK    2  A    between atoms: C_4  and  C_7
REMARK    3  A    between atoms: C_7  and  C_9
REMARK                            x       y       z     vdW  Elec       q    Type
REMARK                         _______ _______ _______ _____ _____    ______ ____
ROOT
ATOM      1  C   UNL     1       0.039  -3.298  -1.561  0.00  0.00    +0.094 C 
ATOM      2 BR   UNL     1       1.575  -4.433  -1.094  0.00  0.00    -0.083 Br
ENDROOT
BRANCH   1   3
ATOM      3  C   UNL     1      -1.257  -4.087  -1.361  0.00  0.00    +0.029 C 
ATOM      4  C   UNL     1      -1.237  -5.337  -2.256  0.00  0.00    +0.029 C 
ATOM      5  C   UNL     1      -2.399  -6.270  -1.810  0.00  0.00    +0.166 C 
ATOM      6  S   UNL     1      -2.280  -6.104   0.022  0.00  0.00    -0.031 S 
ATOM      7  O   UNL     1      -1.444  -7.137   0.526  0.00  0.00    -0.174 OA
ATOM      8  O   UNL     1      -3.586  -5.937   0.556  0.00  0.00    -0.174 OA
ATOM      9  C   UNL     1      -1.380  -4.504   0.124  0.00  0.00    +0.170 C 
ENDBRANCH   1   3
BRANCH   1  13
ATOM     10  C   UNL     1      -0.018   1.461   0.010  0.00  0.00    +0.172 C 
ATOM     11  N   UNL     1       0.002  -0.004   0.002  0.00  0.00    -0.274 N 
ATOM     12  C   UNL     1       0.008  -0.792  -1.094  0.00  0.00    +0.112 A 
ATOM     13  C   UNL     1       0.027  -2.079  -0.676  0.00  0.00    +0.004 A 
ATOM     14  C   UNL     1       0.034  -2.078   0.723  0.00  0.00    +0.139 A 
ATOM     15  N   UNL     1       0.025  -0.834   1.130  0.00  0.00    -0.180 NA
ENDBRANCH   1  13
TORSDOF 2
