REMARK  Name = ZINC62832444
REMARK  4 active torsions:
REMARK  status: ('A' for Active; 'I' for Inactive)
REMARK    1  A    between atoms: C_3  and  C_6
REMARK    2  A    between atoms: C_6  and  N_7
REMARK    3  A    between atoms: C_8  and  C_10
REMARK    4  A    between atoms: C_17  and  N_20
REMARK                            x       y       z     vdW  Elec       q    Type
REMARK                         _______ _______ _______ _____ _____    ______ ____
ROOT
ATOM      1  C   UNL     1       5.957   2.609   2.971  0.00  0.00    +0.062 A 
ATOM      2  C   UNL     1       5.257   2.341   4.110  0.00  0.00    +0.096 A 
ATOM      3  N   UNL     1       6.024   2.610   5.193  0.00  0.00    -0.360 N 
ATOM      4  H   UNL     1       5.740   2.496   6.114  0.00  0.00    +0.165 HD
ATOM      5  C   UNL     1       7.267   3.068   4.802  0.00  0.00    +0.047 A 
ATOM      6  C   UNL     1       7.287   3.083   3.398  0.00  0.00    +0.014 A 
ATOM      7  C   UNL     1       8.428   3.499   2.719  0.00  0.00    +0.033 A 
ATOM      8  C   UNL     1       9.545   3.894   3.436  0.00  0.00    +0.025 A 
ATOM      9  C   UNL     1       9.525   3.875   4.828  0.00  0.00    +0.025 A 
ATOM     10  C   UNL     1       8.396   3.473   5.507  0.00  0.00    +0.028 A 
ENDROOT
BRANCH   1  12
ATOM     11  N   UNL     1       4.234   2.004   1.353  0.00  0.00    -0.307 N 
ATOM     12  C   UNL     1       5.483   2.450   1.589  0.00  0.00    +0.246 C 
ATOM     13  O   UNL     1       6.218   2.723   0.659  0.00  0.00    -0.270 OA
ATOM     14  H   UNL     1       3.648   1.787   2.095  0.00  0.00    +0.149 HD
BRANCH  11  15
ATOM     15  C   UNL     1       3.761   1.845  -0.024  0.00  0.00    +0.147 C 
BRANCH  15  18
ATOM     16  C   UNL     1      -0.016   1.351   0.009  0.00  0.00    +0.008 A 
ATOM     17  C   UNL     1       1.183   2.038   0.002  0.00  0.00    +0.013 A 
ATOM     18  C   UNL     1       2.343   1.336  -0.013  0.00  0.00    +0.007 A 
ATOM     19  S   UNL     1       1.754  -0.349  -0.017  0.00  0.00    -0.100 S 
ATOM     20  C   UNL     1       0.002  -0.004   0.002  0.00  0.00    +0.045 A 
ENDBRANCH  15  18
ENDBRANCH  11  15
ENDBRANCH   1  12
BRANCH   8  21
ATOM     21  N   UNL     1      10.696   4.313   2.760  0.00  0.00    -0.358 N 
ATOM     22  H   UNL     1      10.711   4.326   1.790  0.00  0.00    +0.142 HD
ATOM     23  H   UNL     1      11.479   4.590   3.261  0.00  0.00    +0.142 HD
ENDBRANCH   8  21
TORSDOF 4
