REMARK  Name = ZINC39159950
REMARK  5 active torsions:
REMARK  status: ('A' for Active; 'I' for Inactive)
REMARK    1  A    between atoms: C_3  and  C_28
REMARK    2  A    between atoms: C_6  and  C_7
REMARK    3  A    between atoms: C_10  and  C_12
REMARK    4  A    between atoms: C_13  and  C_14
REMARK    5  A    between atoms: C_13  and  C_16
REMARK                            x       y       z     vdW  Elec       q    Type
REMARK                         _______ _______ _______ _____ _____    ______ ____
ROOT
ATOM      1  C   UNL     1      -1.264  -0.759   0.011  0.00  0.00    +0.136 A 
ATOM      2  C   UNL     1      -1.380  -2.120   0.010  0.00  0.00    +0.050 A 
ATOM      3  C   UNL     1      -2.746  -2.417   0.020  0.00  0.00    +0.050 A 
ATOM      4  C   UNL     1      -3.416  -1.209   0.026  0.00  0.00    +0.130 A 
ATOM      5  O   UNL     1      -2.498  -0.221   0.026  0.00  0.00    -0.455 OA
ENDROOT
BRANCH   1  11
ATOM      6  C   UNL     1      -0.017   1.395   0.010  0.00  0.00    +0.012 A 
ATOM      7  C   UNL     1       1.157   2.093   0.002  0.00  0.00    +0.014 A 
ATOM      8  C   UNL     1       2.377   1.411  -0.013  0.00  0.00    +0.037 A 
ATOM      9  C   UNL     1       2.396   0.013  -0.022  0.00  0.00    +0.014 A 
ATOM     10  C   UNL     1       1.223  -0.686  -0.014  0.00  0.00    +0.012 A 
ATOM     11  C   UNL     1       0.002  -0.004   0.002  0.00  0.00    +0.017 A 
BRANCH   8  12
ATOM     12  C   UNL     1       3.645   2.167  -0.022  0.00  0.00    +0.242 C 
ATOM     13  O   UNL     1       3.628   3.382  -0.015  0.00  0.00    -0.270 OA
ATOM     14  N   UNL     1       4.821   1.509  -0.037  0.00  0.00    -0.325 N 
ATOM     15  H   UNL     1       4.835   0.539  -0.043  0.00  0.00    +0.145 HD
ATOM     16  H   UNL     1       5.655   2.006  -0.043  0.00  0.00    +0.145 HD
ENDBRANCH   8  12
ENDBRANCH   1  11
BRANCH   4  17
ATOM     17  C   UNL     1      -4.822  -1.037   0.037  0.00  0.00    +0.064 C 
ATOM     18  C   UNL     1      -5.353   0.210   0.042  0.00  0.00    +0.071 C 
BRANCH  18  19
ATOM     19  C   UNL     1      -6.849   0.393   0.053  0.00  0.00    +0.216 C 
ATOM     20  N   UNL     1      -7.253   1.147   1.258  0.00  0.00    -0.265 NA
ATOM     21  C   UNL     1      -7.740   2.431   0.747  0.00  0.00    +0.223 C 
ATOM     22  C   UNL     1      -7.796   2.279  -0.763  0.00  0.00    +0.078 C 
ATOM     23  N   UNL     1      -7.264   1.172  -1.117  0.00  0.00    -0.260 NA
ATOM     24  C   UNL     1      -8.497   3.293  -1.577  0.00  0.00    +0.043 C 
ATOM     25  C   UNL     1      -9.557   3.863  -0.927  0.00  0.00    +0.037 C 
ATOM     26  C   UNL     1      -9.905   3.398   0.419  0.00  0.00    +0.122 C 
ATOM     27  N   UNL     1      -9.086   2.761   1.211  0.00  0.00    -0.265 NA
ATOM     28 BR   UNL     1     -10.562   5.234  -1.755  0.00  0.00    -0.049 Br
ATOM     29  H   UNL     1      -7.979   0.659   1.763  0.00  0.00    +0.127 HD
ENDBRANCH  18  19
BRANCH  18  30
ATOM     30  C   UNL     1      -4.492   1.355   0.037  0.00  0.00    +0.098 C 
ATOM     31  N   UNL     1      -3.809   2.263   0.033  0.00  0.00    -0.191 NA
ENDBRANCH  18  30
ENDBRANCH   4  17
TORSDOF 5
