REMARK  Name = ZINC45500812
REMARK  7 active torsions:
REMARK  status: ('A' for Active; 'I' for Inactive)
REMARK    1  A    between atoms: C_3  and  N_30
REMARK    2  A    between atoms: C_6  and  N_7
REMARK    3  A    between atoms: N_7  and  C_8
REMARK    4  A    between atoms: C_8  and  C_9
REMARK    5  A    between atoms: C_9  and  C_10
REMARK    6  A    between atoms: C_10  and  C_11
REMARK    7  A    between atoms: C_23  and  C_26
REMARK                            x       y       z     vdW  Elec       q    Type
REMARK                         _______ _______ _______ _____ _____    ______ ____
ROOT
ATOM      1  C   UNL     1      -3.468  -4.795  -0.165  0.00  0.00    +0.216 C 
ATOM      2  O   UNL     1      -4.319  -3.945  -0.009  0.00  0.00    -0.276 OA
ATOM      3  N   UNL     1      -3.799  -6.100  -0.094  0.00  0.00    -0.300 N 
ATOM      4  C   UNL     1      -5.199  -6.434   0.168  0.00  0.00    +0.109 C 
ATOM      5  C   UNL     1      -5.864  -6.737  -1.160  0.00  0.00    +0.038 C 
ATOM      6  C   UNL     1      -5.668  -8.210  -1.530  0.00  0.00    +0.108 C 
ATOM      7  N   UNL     1      -4.311  -8.692  -1.230  0.00  0.00    -0.314 N 
ATOM      8  C   UNL     1      -3.112  -7.925  -1.518  0.00  0.00    +0.125 C 
ATOM      9  C   UNL     1      -2.764  -7.056  -0.283  0.00  0.00    +0.126 C 
ATOM     10  C   UNL     1      -4.170  -9.943  -0.641  0.00  0.00    +0.121 A 
ATOM     11  C   UNL     1      -5.266 -10.797  -0.567  0.00  0.00    +0.044 A 
ATOM     12  C   UNL     1      -5.111 -12.039   0.022  0.00  0.00    +0.017 A 
ATOM     13  C   UNL     1      -3.862 -12.387   0.518  0.00  0.00    +0.073 A 
ATOM     14  C   UNL     1      -2.818 -11.489   0.411  0.00  0.00    +0.125 A 
ATOM     15  N   UNL     1      -2.993 -10.313  -0.161  0.00  0.00    -0.240 NA
ENDROOT
BRANCH  13  16
ATOM     16  C   UNL     1      -3.647 -13.729   1.169  0.00  0.00    +0.419 C 
ATOM     17  F   UNL     1      -3.259 -14.660   0.199  0.00  0.00    -0.166 F 
ATOM     18  F   UNL     1      -2.646 -13.623   2.140  0.00  0.00    -0.166 F 
ATOM     19  F   UNL     1      -4.838 -14.152   1.770  0.00  0.00    -0.166 F 
ENDBRANCH  13  16
BRANCH   1  20
ATOM     20  C   UNL     1      -2.041  -4.393  -0.437  0.00  0.00    +0.097 C 
BRANCH  20  21
ATOM     21  C   UNL     1      -1.938  -2.867  -0.467  0.00  0.00    +0.028 C 
BRANCH  21  22
ATOM     22  C   UNL     1      -0.490  -2.459  -0.744  0.00  0.00    +0.102 C 
BRANCH  22  23
ATOM     23  N   UNL     1      -0.391  -0.998  -0.772  0.00  0.00    -0.344 N 
ATOM     24  H   UNL     1      -1.182  -0.455  -0.625  0.00  0.00    +0.146 HD
BRANCH  23  30
ATOM     25  C   UNL     1       0.937   1.000  -1.036  0.00  0.00    +0.025 A 
ATOM     26  C   UNL     1       2.158   1.602  -1.270  0.00  0.00    +0.034 A 
ATOM     27  C   UNL     1       3.284   0.827  -1.479  0.00  0.00    +0.126 A 
ATOM     28  C   UNL     1       3.192  -0.552  -1.453  0.00  0.00    +0.034 A 
ATOM     29  C   UNL     1       1.975  -1.161  -1.219  0.00  0.00    +0.025 A 
ATOM     30  C   UNL     1       0.842  -0.385  -1.009  0.00  0.00    +0.027 A 
BRANCH  27  31
ATOM     31  N   UNL     1       4.590   1.476  -1.730  0.00  0.00    +0.056 N 
ATOM     32  O   UNL     1       4.672   2.682  -1.754  0.00  0.00    -0.126 OA
ATOM     33  O   UNL     1       5.576   0.800  -1.913  0.00  0.00    -0.126 OA
ENDBRANCH  27  31
ENDBRANCH  23  30
ENDBRANCH  22  23
ENDBRANCH  21  22
ENDBRANCH  20  21
ENDBRANCH   1  20
TORSDOF 7
