REMARK  Name = ZINC34774245
REMARK  8 active torsions:
REMARK  status: ('A' for Active; 'I' for Inactive)
REMARK    1  A    between atoms: C_1  and  C_2
REMARK    2  A    between atoms: C_5  and  C_9
REMARK    3  A    between atoms: C_6  and  C_8
REMARK    4  A    between atoms: C_9  and  N_10
REMARK    5  A    between atoms: C_18  and  C_29
REMARK    6  A    between atoms: C_23  and  S_25
REMARK    7  A    between atoms: S_25  and  C_26
REMARK    8  A    between atoms: C_26  and  C_27
REMARK                            x       y       z     vdW  Elec       q    Type
REMARK                         _______ _______ _______ _____ _____    ______ ____
ROOT
ATOM      1  N   UNL     1      -2.116  -3.651  -0.245  0.00  0.00    +0.384 N 
ATOM      2  C   UNL     1      -3.449  -3.315  -0.762  0.00  0.00    -0.059 C 
ATOM      3  C   UNL     1      -4.473  -4.316  -0.218  0.00  0.00    +0.088 C 
ATOM      4  N   UNL     1      -4.018  -5.676  -0.548  0.00  0.00    -0.318 N 
ATOM      5  C   UNL     1      -2.635  -6.045  -0.211  0.00  0.00    +0.088 C 
ATOM      6  C   UNL     1      -1.697  -4.962  -0.755  0.00  0.00    -0.059 C 
ATOM      7  C   UNL     1      -4.867  -6.581  -1.159  0.00  0.00    +0.134 A 
ATOM      8  C   UNL     1      -5.911  -7.199  -0.417  0.00  0.00    +0.055 A 
ATOM      9  C   UNL     1      -6.277  -7.035   0.986  0.00  0.00    +0.002 A 
ATOM     10  C   UNL     1      -7.324  -7.739   1.473  0.00  0.00    +0.056 A 
ATOM     11  S   UNL     1      -7.888  -8.674   0.064  0.00  0.00    -0.076 S 
ATOM     12  C   UNL     1      -6.715  -8.104  -1.139  0.00  0.00    +0.115 A 
ATOM     13  N   UNL     1      -6.500  -8.350  -2.417  0.00  0.00    -0.214 NA
ATOM     14  C   UNL     1      -5.510  -7.744  -3.058  0.00  0.00    +0.191 A 
ATOM     15  N   UNL     1      -4.718  -6.877  -2.439  0.00  0.00    -0.206 NA
ATOM     16  H   UNL     1      -2.146  -3.678   0.763  0.00  0.00    -0.081 HD
ENDROOT
BRANCH   9  17
ATOM     17  C   UNL     1      -5.514  -6.114   1.862  0.00  0.00    -0.017 A 
ATOM     18  C   UNL     1      -4.151  -6.317   2.073  0.00  0.00    +0.008 A 
ATOM     19  C   UNL     1      -3.446  -5.455   2.890  0.00  0.00    +0.001 A 
ATOM     20  C   UNL     1      -4.090  -4.393   3.498  0.00  0.00    +0.000 A 
ATOM     21  C   UNL     1      -5.442  -4.186   3.293  0.00  0.00    +0.001 A 
ATOM     22  C   UNL     1      -6.156  -5.037   2.474  0.00  0.00    +0.008 A 
ENDBRANCH   9  17
BRANCH   1  23
ATOM     23  C   UNL     1      -1.154  -2.628  -0.677  0.00  0.00    -0.043 C 
BRANCH  23  28
ATOM     24  C   UNL     1      -2.535   2.447   1.714  0.00  0.00    +0.044 C 
ATOM     25  C   UNL     1      -2.175   1.124   1.091  0.00  0.00    -0.050 A 
ATOM     26  C   UNL     1      -2.530   0.857  -0.218  0.00  0.00    +0.003 A 
ATOM     27  C   UNL     1      -2.200  -0.357  -0.790  0.00  0.00    +0.002 A 
ATOM     28  C   UNL     1      -1.513  -1.304  -0.054  0.00  0.00    -0.061 A 
ATOM     29  C   UNL     1      -1.157  -1.037   1.255  0.00  0.00    -0.049 A 
ATOM     30  C   UNL     1      -1.484   0.179   1.826  0.00  0.00    +0.007 A 
ATOM     31  C   UNL     1      -0.410  -2.070   2.058  0.00  0.00    +0.044 C 
ENDBRANCH  23  28
ENDBRANCH   1  23
BRANCH  14  32
ATOM     32  S   UNL     1      -5.245  -8.092  -4.765  0.00  0.00    -0.082 S 
BRANCH  32  33
ATOM     33  C   UNL     1      -6.537  -9.297  -5.174  0.00  0.00    +0.104 C 
BRANCH  33  34
ATOM     34  C   UNL     1      -6.422  -9.685  -6.625  0.00  0.00    -0.023 C 
ATOM     35  C   UNL     1      -6.112 -10.915  -6.952  0.00  0.00    +0.005 C 
ENDBRANCH  33  34
ENDBRANCH  32  33
ENDBRANCH  14  32
TORSDOF 6
