REMARK  Name = ZINC13065441
REMARK  12 active torsions:
REMARK  status: ('A' for Active; 'I' for Inactive)
REMARK    1  A    between atoms: C_1  and  C_2
REMARK    2  A    between atoms: C_2  and  C_3
REMARK    3  A    between atoms: C_3  and  C_4
REMARK    4  A    between atoms: C_3  and  C_5
REMARK    5  A    between atoms: C_3  and  N_6
REMARK    6  A    between atoms: C_7  and  C_11
REMARK    7  A    between atoms: C_11  and  N_62
REMARK    8  A    between atoms: C_12  and  C_13
REMARK    9  A    between atoms: C_12  and  N_62
REMARK   10  A    between atoms: C_20  and  C_21
REMARK   11  A    between atoms: C_20  and  N_62
REMARK   12  A    between atoms: C_25  and  C_33
REMARK                            x       y       z     vdW  Elec       q    Type
REMARK                         _______ _______ _______ _____ _____    ______ ____
ROOT
ATOM      1  N   UNL     1       1.913  -2.626   0.844  0.00  0.00    +0.390 N 
ATOM      2  H   UNL     1       2.664  -2.342   1.484  0.00  0.00    -0.080 HD
ENDROOT
BRANCH   1   3
ATOM      3  C   UNL     1       1.561  -4.036   1.111  0.00  0.00    +0.001 C 
BRANCH   3   5
ATOM      4  N   UNL     1       0.876  -5.222   3.262  0.00  0.00    -0.226 N 
ATOM      5  C   UNL     1       1.537  -4.253   2.602  0.00  0.00    +0.136 A 
ATOM      6  N   UNL     1       2.151  -3.532   3.508  0.00  0.00    -0.115 NA
ATOM      7  N   UNL     1       1.885  -4.035   4.664  0.00  0.00    -0.023 NA
ATOM      8  N   UNL     1       1.117  -5.058   4.519  0.00  0.00    -0.043 NA
BRANCH   4   9
ATOM      9  C   UNL     1       0.042  -6.269   2.665  0.00  0.00    +0.061 C 
ATOM     10  C   UNL     1      -1.204  -5.635   2.043  0.00  0.00    +0.036 C 
ATOM     11  C   UNL     1       0.837  -6.999   1.581  0.00  0.00    +0.036 C 
BRANCH   9  13
ATOM     12  C   UNL     1      -1.250  -8.357   3.124  0.00  0.00    +0.006 C 
ATOM     13  C   UNL     1      -0.379  -7.265   3.748  0.00  0.00    +0.026 C 
ENDBRANCH   9  13
ENDBRANCH   4   9
ENDBRANCH   3   5
ENDBRANCH   1   3
BRANCH   1  14
ATOM     14  C   UNL     1       0.737  -1.760   1.070  0.00  0.00    -0.040 C 
BRANCH  14  15
ATOM     15  C   UNL     1       0.509  -1.631   2.554  0.00  0.00    -0.046 A 
ATOM     16  C   UNL     1      -0.568  -2.265   3.146  0.00  0.00    +0.003 A 
ATOM     17  C   UNL     1      -0.774  -2.151   4.507  0.00  0.00    +0.000 A 
ATOM     18  C   UNL     1       0.090  -1.395   5.277  0.00  0.00    +0.001 A 
ATOM     19  C   UNL     1       1.164  -0.757   4.687  0.00  0.00    +0.020 A 
ATOM     20  C   UNL     1       1.374  -0.875   3.324  0.00  0.00    +0.042 A 
ATOM     21 CL   UNL     1       2.722  -0.072   2.581  0.00  0.00    -0.083 Cl
ENDBRANCH  14  15
ENDBRANCH   1  14
BRANCH   1  22
ATOM     22  C   UNL     1       2.388  -2.478  -0.548  0.00  0.00    -0.036 C 
BRANCH  22  23
ATOM     23  C   UNL     1       2.945  -1.089  -0.728  0.00  0.00    +0.001 A 
ATOM     24  C   UNL     1       4.273  -0.868  -0.567  0.00  0.00    +0.017 A 
ATOM     25  C   UNL     1       4.782   0.493  -0.747  0.00  0.00    -0.001 A 
ATOM     26  C   UNL     1       6.142   0.783  -0.595  0.00  0.00    +0.013 A 
ATOM     27  C   UNL     1       6.585   2.063  -0.771  0.00  0.00    -0.050 A 
ATOM     28  C   UNL     1       5.698   3.079  -1.099  0.00  0.00    +0.005 A 
ATOM     29  C   UNL     1       4.354   2.816  -1.255  0.00  0.00    +0.026 A 
ATOM     30  C   UNL     1       3.880   1.520  -1.081  0.00  0.00    +0.049 A 
ATOM     31  N   UNL     1       2.541   1.229  -1.230  0.00  0.00    -0.322 N 
ATOM     32  H   UNL     1       1.921   1.937  -1.464  0.00  0.00    +0.169 HD
ATOM     33  C   UNL     1       2.082  -0.024  -1.062  0.00  0.00    +0.251 A 
ATOM     34  O   UNL     1       0.892  -0.245  -1.202  0.00  0.00    -0.268 OA
ATOM     35  C   UNL     1       8.050   2.375  -0.607  0.00  0.00    +0.044 C 
ENDBRANCH  22  23
ENDBRANCH   1  22
TORSDOF 8
