REMARK  Name = ZINC59148684
REMARK  15 active torsions:
REMARK  status: ('A' for Active; 'I' for Inactive)
REMARK    1  A    between atoms: C_1  and  C_2
REMARK    2  A    between atoms: C_5  and  O_9
REMARK    3  A    between atoms: O_9  and  C_10
REMARK    4  A    between atoms: C_10  and  C_11
REMARK    5  A    between atoms: N_13  and  N_14
REMARK    6  A    between atoms: C_15  and  C_16
REMARK    7  A    between atoms: C_18  and  C_27
REMARK    8  A    between atoms: C_19  and  O_26
REMARK    9  A    between atoms: C_20  and  C_22
REMARK   10  A    between atoms: C_22  and  C_23
REMARK   11  A    between atoms: C_22  and  C_24
REMARK   12  A    between atoms: C_22  and  C_25
REMARK   13  A    between atoms: C_27  and  C_28
REMARK   14  A    between atoms: C_27  and  C_29
REMARK   15  A    between atoms: C_27  and  C_30
REMARK                            x       y       z     vdW  Elec       q    Type
REMARK                         _______ _______ _______ _____ _____    ______ ____
ROOT
ATOM      1  N   UNL     1       0.123  -8.494   1.912  0.00  0.00    -0.188 NA
ATOM      2  C   UNL     1       0.139  -9.291   2.937  0.00  0.00    +0.138 C 
ENDROOT
BRANCH   2   3
ATOM      3  C   UNL     1       0.156 -10.751   2.734  0.00  0.00    -0.005 A 
ATOM      4  C   UNL     1       0.162 -11.280   1.441  0.00  0.00    +0.017 A 
ATOM      5  C   UNL     1       0.180 -12.645   1.257  0.00  0.00    +0.000 A 
ATOM      6  C   UNL     1       0.191 -13.496   2.354  0.00  0.00    +0.124 A 
ATOM      7  C   UNL     1       0.184 -12.975   3.642  0.00  0.00    +0.000 A 
ATOM      8  C   UNL     1       0.173 -11.611   3.836  0.00  0.00    +0.017 A 
BRANCH   7   9
ATOM      9  C   UNL     1       0.196 -13.904   4.829  0.00  0.00    -0.009 C 
ATOM     10  C   UNL     1       0.185 -13.082   6.120  0.00  0.00    +0.015 C 
ATOM     11  C   UNL     1      -1.043 -14.801   4.786  0.00  0.00    +0.015 C 
ATOM     12  C   UNL     1       1.456 -14.771   4.786  0.00  0.00    +0.015 C 
ENDBRANCH   7   9
BRANCH   5  13
ATOM     13  C   UNL     1       0.186 -13.216  -0.138  0.00  0.00    -0.009 C 
ATOM     14  C   UNL     1       0.170 -12.074  -1.157  0.00  0.00    +0.015 C 
ATOM     15  C   UNL     1       1.446 -14.061  -0.338  0.00  0.00    +0.015 C 
ATOM     16  C   UNL     1      -1.053 -14.092  -0.336  0.00  0.00    +0.015 C 
ENDBRANCH   5  13
BRANCH   6  17
ATOM     17  O   UNL     1       0.208 -14.841   2.168  0.00  0.00    -0.506 OA
ATOM     18  H   UNL     1       1.096 -15.220   2.114  0.00  0.00    +0.292 HD
ENDBRANCH   6  17
ENDBRANCH   2   3
BRANCH   1  21
ATOM     19  C   UNL     1       0.090  -6.279   1.041  0.00  0.00    +0.270 C 
ATOM     20  O   UNL     1       0.090  -6.736  -0.083  0.00  0.00    -0.270 OA
ATOM     21  N   UNL     1       0.106  -7.106   2.104  0.00  0.00    -0.204 N 
ATOM     22  H   UNL     1       0.106  -6.741   3.003  0.00  0.00    +0.177 HD
BRANCH  19  23
ATOM     23  C   UNL     1       0.072  -4.786   1.247  0.00  0.00    +0.326 C 
BRANCH  23  24
ATOM     24  O   UNL     1       0.057  -4.130  -0.022  0.00  0.00    -0.483 OA
BRANCH  24  29
ATOM     25  C   UNL     1      -0.018   1.503   0.010  0.00  0.00    +0.045 C 
ATOM     26  C   UNL     1       0.002  -0.004   0.002  0.00  0.00    -0.032 A 
ATOM     27  C   UNL     1       0.006  -0.688  -1.200  0.00  0.00    +0.008 A 
ATOM     28  C   UNL     1       0.024  -2.069  -1.210  0.00  0.00    +0.046 A 
ATOM     29  C   UNL     1       0.039  -2.771  -0.013  0.00  0.00    +0.123 A 
ATOM     30  C   UNL     1       0.036  -2.084   1.191  0.00  0.00    +0.066 A 
ATOM     31  C   UNL     1       0.023  -0.701   1.197  0.00  0.00    +0.047 A 
ATOM     32 CL   UNL     1       0.026   0.160   2.704  0.00  0.00    -0.083 Cl
ENDBRANCH  24  29
ENDBRANCH  23  24
ENDBRANCH  19  23
ENDBRANCH   1  21
TORSDOF 8
