REMARK  Name = ZINC09568963
REMARK  12 active torsions:
REMARK  status: ('A' for Active; 'I' for Inactive)
REMARK    1  A    between atoms: C_1  and  O_2
REMARK    2  A    between atoms: O_2  and  C_3
REMARK    3  A    between atoms: C_5  and  C_13
REMARK    4  A    between atoms: C_7  and  O_11
REMARK    5  A    between atoms: C_8  and  O_9
REMARK    6  A    between atoms: O_9  and  C_10
REMARK    7  A    between atoms: O_11  and  C_12
REMARK    8  A    between atoms: C_14  and  C_15
REMARK    9  A    between atoms: N_17  and  C_18
REMARK   10  A    between atoms: C_18  and  C_19
REMARK   11  A    between atoms: C_19  and  C_20
REMARK   12  A    between atoms: C_26  and  C_28
REMARK                            x       y       z     vdW  Elec       q    Type
REMARK                         _______ _______ _______ _____ _____    ______ ____
ROOT
ATOM      1  C   UNL     1       2.424   1.053  -0.015  0.00  0.00    +0.237 C 
ATOM      2  O   UNL     1       2.440  -0.164  -0.022  0.00  0.00    -0.271 OA
ATOM      3  N   UNL     1       3.581   1.742  -0.023  0.00  0.00    -0.311 N 
ATOM      4  H   UNL     1       3.568   2.712  -0.017  0.00  0.00    +0.149 HD
ENDROOT
BRANCH   1   6
ATOM      5  C   UNL     1      -0.013   1.076   0.008  0.00  0.00    +0.013 C 
ATOM      6  C   UNL     1       1.147   1.767   0.001  0.00  0.00    +0.068 C 
BRANCH   5   9
ATOM      7  C   UNL     1      -3.703   1.757   0.030  0.00  0.00    +0.166 A 
ATOM      8  C   UNL     1      -2.499   1.079   0.020  0.00  0.00    +0.057 A 
ATOM      9  C   UNL     1      -1.296   1.793   0.018  0.00  0.00    -0.018 A 
ATOM     10  C   UNL     1      -1.316   3.193   0.032  0.00  0.00    +0.057 A 
ATOM     11  C   UNL     1      -2.524   3.864   0.036  0.00  0.00    +0.166 A 
ATOM     12  C   UNL     1      -3.720   3.150   0.038  0.00  0.00    +0.204 A 
BRANCH   7  14
ATOM     13  C   UNL     1      -4.782  -0.363   0.023  0.00  0.00    +0.277 C 
ATOM     14  O   UNL     1      -4.873   1.063   0.031  0.00  0.00    -0.491 OA
ENDBRANCH   7  14
BRANCH  12  15
ATOM     15  O   UNL     1      -4.906   3.813   0.049  0.00  0.00    -0.488 OA
ATOM     16  C   UNL     1      -5.465   4.122   1.327  0.00  0.00    +0.277 C 
ENDBRANCH  12  15
BRANCH  11  17
ATOM     17  O   UNL     1      -2.546   5.224   0.045  0.00  0.00    -0.491 OA
ATOM     18  C   UNL     1      -1.283   5.892   0.043  0.00  0.00    +0.277 C 
ENDBRANCH  11  17
ENDBRANCH   5   9
ENDBRANCH   1   6
BRANCH   3  19
ATOM     19  C   UNL     1       4.860   1.027  -0.039  0.00  0.00    +0.110 C 
BRANCH  19  20
ATOM     20  C   UNL     1       6.009   2.037  -0.044  0.00  0.00    +0.075 C 
BRANCH  20  21
ATOM     21  C   UNL     1       7.324   1.302  -0.061  0.00  0.00    +0.054 A 
ATOM     22  C   UNL     1       7.837   0.893  -1.223  0.00  0.00    +0.072 A 
ATOM     23  S   UNL     1       9.351   0.106  -0.695  0.00  0.00    -0.056 S 
ATOM     24  C   UNL     1       9.163   0.386   1.050  0.00  0.00    +0.196 A 
ATOM     25  N   UNL     1       7.979   1.054   1.121  0.00  0.00    -0.210 N 
ATOM     26  N   UNL     1       7.797   1.296   2.508  0.00  0.00    -0.144 NA
ATOM     27  C   UNL     1       8.828   0.783   3.141  0.00  0.00    +0.183 A 
ATOM     28  N   UNL     1       9.656   0.231   2.246  0.00  0.00    -0.200 NA
BRANCH  27  29
ATOM     29  C   UNL     1       9.040   0.813   4.609  0.00  0.00    +0.021 A 
ATOM     30  C   UNL     1       8.104   1.427   5.438  0.00  0.00    +0.014 A 
ATOM     31  C   UNL     1       8.303   1.447   6.803  0.00  0.00    +0.039 A 
ATOM     32  C   UNL     1       9.437   0.868   7.349  0.00  0.00    +0.123 A 
ATOM     33  C   UNL     1      10.373   0.261   6.528  0.00  0.00    +0.039 A 
ATOM     34  C   UNL     1      10.180   0.232   5.162  0.00  0.00    +0.014 A 
ATOM     35  F   UNL     1       9.630   0.894   8.686  0.00  0.00    -0.205 F 
ENDBRANCH  27  29
ENDBRANCH  20  21
ENDBRANCH  19  20
ENDBRANCH   3  19
TORSDOF 9
