REMARK  Name = ZINC05596016
REMARK  6 active torsions:
REMARK  status: ('A' for Active; 'I' for Inactive)
REMARK    1  A    between atoms: C_4  and  C_7
REMARK    2  A    between atoms: C_9  and  C_13
REMARK    3  A    between atoms: N_17  and  N_18
REMARK    4  A    between atoms: C_19  and  C_20
REMARK    5  A    between atoms: C_23  and  O_27
REMARK    6  A    between atoms: C_25  and  O_26
REMARK                            x       y       z     vdW  Elec       q    Type
REMARK                         _______ _______ _______ _____ _____    ______ ____
ROOT
ATOM      1  C   UNL     1      -3.165  -3.210  -1.085  0.00  0.00    +0.203 A 
ATOM      2  N   UNL     1      -4.219  -3.849  -0.625  0.00  0.00    -0.125 NA
ATOM      3  N   UNL     1      -4.202  -3.857   0.659  0.00  0.00    -0.119 NA
ATOM      4  C   UNL     1      -3.135  -3.228   1.103  0.00  0.00    +0.223 A 
ATOM      5  N   UNL     1      -2.439  -2.789   0.009  0.00  0.00    -0.185 N 
ATOM      6  S   UNL     1      -2.687  -2.992   2.790  0.00  0.00    -0.007 SA
ENDROOT
BRANCH   1   9
ATOM      7  C   UNL     1      -2.940  -2.830  -4.737  0.00  0.00    +0.093 A 
ATOM      8  C   UNL     1      -3.667  -3.150  -3.578  0.00  0.00    +0.061 A 
ATOM      9  C   UNL     1      -2.825  -2.985  -2.500  0.00  0.00    +0.105 A 
ATOM     10  N   UNL     1      -1.618  -2.572  -2.987  0.00  0.00    -0.273 N 
ATOM     11  H   UNL     1      -0.785  -2.372  -2.296  0.00  0.00    +0.189 HD
ATOM     12  N   UNL     1      -1.720  -2.488  -4.381  0.00  0.00    -0.173 NA
BRANCH   7  16
ATOM     13  C   UNL     1      -4.431  -2.945  -8.718  0.00  0.00    +0.000 A 
ATOM     14  C   UNL     1      -3.119  -2.575  -8.484  0.00  0.00    +0.001 A 
ATOM     15  C   UNL     1      -2.630  -2.536  -7.194  0.00  0.00    +0.010 A 
ATOM     16  C   UNL     1      -3.461  -2.870  -6.126  0.00  0.00    +0.002 A 
ATOM     17  C   UNL     1      -4.780  -3.247  -6.368  0.00  0.00    +0.010 A 
ATOM     18  C   UNL     1      -5.260  -3.278  -7.662  0.00  0.00    +0.001 A 
ENDBRANCH   7  16
ENDBRANCH   1   9
BRANCH   5  19
ATOM     19  N   UNL     1      -1.238  -2.069   0.003  0.00  0.00    -0.170 NA
ATOM     20  C   UNL     1      -1.260  -0.770   0.013  0.00  0.00    +0.145 C 
BRANCH  20  21
ATOM     21  C   UNL     1       0.003  -0.013   0.007  0.00  0.00    +0.036 A 
ATOM     22  C   UNL     1      -0.017   1.385   0.018  0.00  0.00    +0.016 A 
ATOM     23  C   UNL     1       1.167   2.089   0.011  0.00  0.00    +0.046 A 
ATOM     24  C   UNL     1       2.383   1.415  -0.007  0.00  0.00    +0.120 A 
ATOM     25  C   UNL     1       2.413   0.028  -0.018  0.00  0.00    +0.091 A 
ATOM     26  C   UNL     1       1.231  -0.691  -0.011  0.00  0.00    +0.129 A 
BRANCH  26  27
ATOM     27  O   UNL     1       1.259  -2.048  -0.022  0.00  0.00    -0.506 OA
ATOM     28  H   UNL     1       2.223  -2.578  -0.036  0.00  0.00    +0.292 HD
ENDBRANCH  26  27
BRANCH  24  29
ATOM     29  O   UNL     1       3.545   2.117  -0.013  0.00  0.00    -0.507 OA
ATOM     30  H   UNL     1       4.508   1.586  -0.027  0.00  0.00    +0.292 HD
ENDBRANCH  24  29
ENDBRANCH  20  21
ENDBRANCH   5  19
TORSDOF 6
