REMARK  Name = ZINC09588987
REMARK  10 active torsions:
REMARK  status: ('A' for Active; 'I' for Inactive)
REMARK    1  A    between atoms: C_1  and  C_2
REMARK    2  A    between atoms: C_2  and  C_3
REMARK    3  A    between atoms: C_3  and  C_5
REMARK    4  A    between atoms: C_3  and  C_30
REMARK    5  A    between atoms: C_5  and  N_6
REMARK    6  A    between atoms: C_7  and  C_9
REMARK    7  A    between atoms: C_9  and  S_10
REMARK    8  A    between atoms: S_10  and  C_11
REMARK    9  A    between atoms: N_23  and  C_24
REMARK   10  A    between atoms: C_24  and  C_25
REMARK                            x       y       z     vdW  Elec       q    Type
REMARK                         _______ _______ _______ _____ _____    ______ ____
ROOT
ATOM      1  C   UNL     1       6.571   2.100  -1.139  0.00  0.00    +0.173 A 
ATOM      2  N   UNL     1       5.981   1.177  -1.872  0.00  0.00    -0.216 NA
ATOM      3  C   UNL     1       6.570   0.699  -2.963  0.00  0.00    +0.117 A 
ATOM      4  C   UNL     1       7.835   1.137  -3.379  0.00  0.00    +0.076 A 
ATOM      5  C   UNL     1       8.363   0.513  -4.604  0.00  0.00    -0.023 A 
ATOM      6  C   UNL     1       7.589  -0.409  -5.198  0.00  0.00    -0.004 A 
ATOM      7  S   UNL     1       6.129  -0.506  -4.187  0.00  0.00    -0.073 S 
ATOM      8  C   UNL     1       8.231  -0.979  -6.435  0.00  0.00    +0.043 C 
ATOM      9  C   UNL     1       9.722  -0.596  -6.309  0.00  0.00    +0.010 C 
ATOM     10  C   UNL     1       9.648   0.664  -5.424  0.00  0.00    +0.037 C 
ATOM     11  C   UNL     1       8.455   2.134  -2.563  0.00  0.00    +0.264 A 
ATOM     12  O   UNL     1       9.555   2.573  -2.850  0.00  0.00    -0.267 OA
ATOM     13  N   UNL     1       7.804   2.581  -1.473  0.00  0.00    -0.280 N 
ENDROOT
BRANCH   1  14
ATOM     14  S   UNL     1       5.759   2.716   0.299  0.00  0.00    -0.078 S 
BRANCH  14  15
ATOM     15  C   UNL     1       4.229   1.752   0.233  0.00  0.00    +0.173 C 
BRANCH  15  17
ATOM     16  N   UNL     1       2.152   1.526   1.558  0.00  0.00    -0.314 N 
ATOM     17  C   UNL     1       3.351   2.122   1.401  0.00  0.00    +0.223 C 
ATOM     18  O   UNL     1       3.723   2.956   2.199  0.00  0.00    -0.275 OA
ATOM     19  H   UNL     1       1.855   0.859   0.920  0.00  0.00    +0.149 HD
BRANCH  16  20
ATOM     20  C   UNL     1       1.299   1.887   2.694  0.00  0.00    +0.112 C 
BRANCH  20  21
ATOM     21  C   UNL     1      -0.032   1.140   2.588  0.00  0.00    +0.036 C 
BRANCH  21  22
ATOM     22  C   UNL     1      -0.854   1.400   3.825  0.00  0.00    -0.043 A 
ATOM     23  C   UNL     1      -1.216   2.693   4.154  0.00  0.00    +0.004 A 
ATOM     24  C   UNL     1      -1.973   2.932   5.285  0.00  0.00    +0.000 A 
ATOM     25  C   UNL     1      -2.360   1.878   6.093  0.00  0.00    +0.000 A 
ATOM     26  C   UNL     1      -1.993   0.586   5.766  0.00  0.00    +0.000 A 
ATOM     27  C   UNL     1      -1.240   0.347   4.632  0.00  0.00    +0.004 A 
ENDBRANCH  21  22
BRANCH  21  29
ATOM     28  C   UNL     1      -2.064   0.792   1.176  0.00  0.00    +0.004 C 
ATOM     29  C   UNL     1      -0.796   1.629   1.356  0.00  0.00    +0.006 C 
ENDBRANCH  21  29
ENDBRANCH  20  21
ENDBRANCH  16  20
ENDBRANCH  15  17
ENDBRANCH  14  15
ENDBRANCH   1  14
BRANCH  13  30
ATOM     30  C   UNL     1       8.430   3.602  -0.629  0.00  0.00    +0.201 C 
BRANCH  30  31
ATOM     31  C   UNL     1       9.254   2.933   0.441  0.00  0.00    +0.125 A 
ATOM     32  C   UNL     1      10.551   2.592   0.337  0.00  0.00    +0.046 A 
ATOM     33  C   UNL     1      10.918   1.997   1.566  0.00  0.00    +0.041 A 
ATOM     34  C   UNL     1       9.821   2.003   2.345  0.00  0.00    +0.195 A 
ATOM     35  O   UNL     1       8.816   2.571   1.658  0.00  0.00    -0.466 OA
ENDBRANCH  30  31
ENDBRANCH  13  30
TORSDOF 9
