REMARK  Name = ZINC02519952
REMARK  8 active torsions:
REMARK  status: ('A' for Active; 'I' for Inactive)
REMARK    1  A    between atoms: C_1  and  C_2
REMARK    2  A    between atoms: C_7  and  C_8
REMARK    3  A    between atoms: C_8  and  O_10
REMARK    4  A    between atoms: O_10  and  C_11
REMARK    5  A    between atoms: C_14  and  C_17
REMARK    6  A    between atoms: N_18  and  N_19
REMARK    7  A    between atoms: C_20  and  C_22
REMARK    8  A    between atoms: C_31  and  O_32
REMARK                            x       y       z     vdW  Elec       q    Type
REMARK                         _______ _______ _______ _____ _____    ______ ____
ROOT
ATOM      1  C   UNL     1      -0.048   2.637   8.169  0.00  0.00    +0.138 C 
ATOM      2  N   UNL     1      -0.155   3.930   8.122  0.00  0.00    -0.187 NA
ENDROOT
BRANCH   1   6
ATOM      3  C   UNL     1      -0.103   0.372   4.579  0.00  0.00    +0.132 A 
ATOM      4  C   UNL     1      -0.212   1.756   4.526  0.00  0.00    +0.047 A 
ATOM      5  C   UNL     1      -0.200   2.495   5.689  0.00  0.00    +0.013 A 
ATOM      6  C   UNL     1      -0.067   1.851   6.922  0.00  0.00    -0.005 A 
ATOM      7  C   UNL     1       0.049   0.459   6.970  0.00  0.00    +0.013 A 
ATOM      8  C   UNL     1       0.030  -0.272   5.802  0.00  0.00    +0.047 A 
BRANCH   3   9
ATOM      9  O   UNL     1      -0.121  -0.353   3.430  0.00  0.00    -0.422 OA
BRANCH   9  10
ATOM     10  C   UNL     1      -1.289  -0.930   3.089  0.00  0.00    +0.345 C 
ATOM     11  O   UNL     1      -2.291  -0.702   3.736  0.00  0.00    -0.245 OA
BRANCH  10  18
ATOM     12  C   UNL     1      -3.742  -2.356   2.521  0.00  0.00    +0.044 C 
ATOM     13  C   UNL     1      -2.530  -2.535   1.644  0.00  0.00    -0.036 A 
ATOM     14  C   UNL     1      -2.579  -3.389   0.562  0.00  0.00    +0.004 A 
ATOM     15  C   UNL     1      -1.469  -3.551  -0.247  0.00  0.00    +0.000 A 
ATOM     16  C   UNL     1      -0.298  -2.866   0.028  0.00  0.00    +0.001 A 
ATOM     17  C   UNL     1      -0.233  -2.014   1.110  0.00  0.00    +0.015 A 
ATOM     18  C   UNL     1      -1.352  -1.842   1.928  0.00  0.00    +0.062 A 
ENDBRANCH  10  18
ENDBRANCH   9  10
ENDBRANCH   3   9
ENDBRANCH   1   6
BRANCH   2  19
ATOM     19  N   UNL     1      -0.137   4.678   9.307  0.00  0.00    -0.203 N 
ATOM     20  C   UNL     1      -0.248   6.020   9.259  0.00  0.00    +0.267 C 
ATOM     21  O   UNL     1      -0.364   6.582   8.186  0.00  0.00    -0.268 OA
ATOM     22  H   UNL     1      -0.044   4.229  10.162  0.00  0.00    +0.178 HD
BRANCH  20  23
ATOM     23  C   UNL     1      -0.230   6.807  10.506  0.00  0.00    +0.080 A 
ATOM     24  C   UNL     1      -0.097   6.162  11.726  0.00  0.00    +0.025 A 
ATOM     25  C   UNL     1      -0.080   6.915  12.908  0.00  0.00    -0.017 A 
ATOM     26  C   UNL     1       0.053   6.293  14.163  0.00  0.00    +0.008 A 
ATOM     27  C   UNL     1       0.067   7.051  15.292  0.00  0.00    +0.001 A 
ATOM     28  C   UNL     1      -0.049   8.439  15.226  0.00  0.00    +0.001 A 
ATOM     29  C   UNL     1      -0.179   9.076  14.031  0.00  0.00    +0.008 A 
ATOM     30  C   UNL     1      -0.198   8.328  12.841  0.00  0.00    -0.014 A 
ATOM     31  C   UNL     1      -0.331   8.958  11.592  0.00  0.00    +0.054 A 
ATOM     32  C   UNL     1      -0.341   8.213  10.450  0.00  0.00    +0.130 A 
BRANCH  32  33
ATOM     33  O   UNL     1      -0.464   8.829   9.247  0.00  0.00    -0.506 OA
ATOM     34  H   UNL     1      -1.378   8.940   8.954  0.00  0.00    +0.292 HD
ENDBRANCH  32  33
ENDBRANCH  20  23
ENDBRANCH   2  19
TORSDOF 7
