REMARK  Name = ZINC11934657
REMARK  9 active torsions:
REMARK  status: ('A' for Active; 'I' for Inactive)
REMARK    1  A    between atoms: C_1  and  N_62
REMARK    2  A    between atoms: C_2  and  C_3
REMARK    3  A    between atoms: C_2  and  N_62
REMARK    4  A    between atoms: C_6  and  S_15
REMARK    5  A    between atoms: N_7  and  C_8
REMARK    6  A    between atoms: C_8  and  C_9
REMARK    7  A    between atoms: S_15  and  C_18
REMARK    8  A    between atoms: C_19  and  C_20
REMARK    9  A    between atoms: C_19  and  N_62
REMARK                            x       y       z     vdW  Elec       q    Type
REMARK                         _______ _______ _______ _____ _____    ______ ____
ROOT
ATOM      1  C   UNL     1      -2.413  -1.000   6.548  0.00  0.00    +0.023 A 
ATOM      2  C   UNL     1      -1.324  -1.693   6.934  0.00  0.00    +0.133 A 
ATOM      3  N   UNL     1      -1.739  -2.833   7.505  0.00  0.00    -0.220 NA
ATOM      4  C   UNL     1      -3.043  -2.877   7.481  0.00  0.00    +0.251 A 
ATOM      5  N   UNL     1      -3.503  -1.752   6.892  0.00  0.00    -0.315 N 
ENDROOT
BRANCH   4   6
ATOM      6  S   UNL     1      -4.038  -4.187   8.113  0.00  0.00    +0.027 S 
ATOM      7  O   UNL     1      -3.244  -4.790   9.125  0.00  0.00    -0.167 OA
ATOM      8  O   UNL     1      -5.280  -3.576   8.434  0.00  0.00    -0.167 OA
ATOM      9  C   UNL     1      -4.246  -5.328   6.718  0.00  0.00    +0.204 C 
ENDBRANCH   4   6
BRANCH   1  10
ATOM     10  C   UNL     1      -2.427   0.343   5.864  0.00  0.00    -0.023 C 
BRANCH  10  12
ATOM     11  C   UNL     1      -1.261  -0.484   3.909  0.00  0.00    -0.095 C 
ATOM     12  N   UNL     1      -2.511   0.132   4.403  0.00  0.00    +0.385 N 
ATOM     13  H   UNL     1      -3.296  -0.498   4.201  0.00  0.00    -0.081 HD
BRANCH  12  14
ATOM     14  C   UNL     1      -2.743   1.422   3.719  0.00  0.00    -0.020 C 
BRANCH  14  15
ATOM     15  C   UNL     1      -3.042   1.155   2.267  0.00  0.00    +0.050 A 
ATOM     16  C   UNL     1      -2.108   1.099   1.236  0.00  0.00    -0.006 A 
ATOM     17  C   UNL     1      -2.773   0.839   0.081  0.00  0.00    +0.039 A 
ATOM     18  N   UNL     1      -4.080   0.733   0.373  0.00  0.00    -0.281 N 
ATOM     19  H   UNL     1      -4.815   0.543  -0.277  0.00  0.00    +0.189 HD
ATOM     20  N   UNL     1      -4.228   0.936   1.753  0.00  0.00    -0.180 NA
ATOM     21  C   UNL     1      -2.108   0.704  -1.266  0.00  0.00    +0.055 C 
ATOM     22  C   UNL     1      -0.700   1.305  -1.173  0.00  0.00    +0.006 C 
ATOM     23  C   UNL     1       0.022   0.728   0.047  0.00  0.00    +0.005 C 
ATOM     24  C   UNL     1      -0.614   1.283   1.328  0.00  0.00    +0.039 C 
ENDBRANCH  14  15
ENDBRANCH  12  14
ENDBRANCH  10  12
ENDBRANCH   1  10
BRANCH   5  25
ATOM     25  C   UNL     1      -4.907  -1.403   6.664  0.00  0.00    +0.128 C 
BRANCH  25  26
ATOM     26  C   UNL     1      -5.398  -2.076   5.380  0.00  0.00    +0.009 C 
ATOM     27  C   UNL     1      -4.626  -1.516   4.184  0.00  0.00    +0.005 C 
ATOM     28  C   UNL     1      -5.117  -2.189   2.900  0.00  0.00    +0.000 C 
ATOM     29  C   UNL     1      -6.611  -1.912   2.718  0.00  0.00    +0.000 C 
ATOM     30  C   UNL     1      -7.383  -2.471   3.915  0.00  0.00    +0.000 C 
ATOM     31  C   UNL     1      -6.892  -1.798   5.198  0.00  0.00    +0.005 C 
ENDBRANCH  25  26
ENDBRANCH   5  25
TORSDOF 7
