REMARK  Name = ZINC23221850
REMARK  11 active torsions:
REMARK  status: ('A' for Active; 'I' for Inactive)
REMARK    1  A    between atoms: C_1  and  C_2
REMARK    2  A    between atoms: C_6  and  N_9
REMARK    3  A    between atoms: C_7  and  C_8
REMARK    4  A    between atoms: C_13  and  S_15
REMARK    5  A    between atoms: S_15  and  C_16
REMARK    6  A    between atoms: C_16  and  C_18
REMARK    7  A    between atoms: C_16  and  C_19
REMARK    8  A    between atoms: C_19  and  C_21
REMARK    9  A    between atoms: C_24  and  N_27
REMARK   10  A    between atoms: N_27  and  S_28
REMARK   11  A    between atoms: S_28  and  C_31
REMARK                            x       y       z     vdW  Elec       q    Type
REMARK                         _______ _______ _______ _____ _____    ______ ____
ROOT
ATOM      1  S   UNL     1       4.740   8.090  -0.304  0.00  0.00    -0.086 S 
ENDROOT
BRANCH   1   6
ATOM      2  N   UNL     1       3.929   2.413   0.551  0.00  0.00    -0.292 N 
ATOM      3  C   UNL     1       3.880   3.791   0.366  0.00  0.00    +0.187 A 
ATOM      4  N   UNL     1       2.834   4.594   0.343  0.00  0.00    -0.125 NA
ATOM      5  N   UNL     1       3.013   5.944   0.147  0.00  0.00    -0.133 NA
ATOM      6  C   UNL     1       4.228   6.427  -0.029  0.00  0.00    +0.161 A 
ATOM      7  S   UNL     1       5.216   4.943   0.087  0.00  0.00    -0.024 S 
ATOM      8  H   UNL     1       4.900   1.901   0.618  0.00  0.00    +0.154 HD
BRANCH   2  14
ATOM      9  C   UNL     1       1.659  -1.935   0.856  0.00  0.00    +0.044 C 
ATOM     10  C   UNL     1       1.613  -0.430   0.802  0.00  0.00    -0.046 A 
ATOM     11  C   UNL     1       0.397   0.227   0.852  0.00  0.00    +0.004 A 
ATOM     12  C   UNL     1       0.351   1.608   0.802  0.00  0.00    +0.002 A 
ATOM     13  C   UNL     1       1.521   2.336   0.703  0.00  0.00    +0.023 A 
ATOM     14  C   UNL     1       2.744   1.680   0.652  0.00  0.00    +0.036 A 
ATOM     15  C   UNL     1       2.786   0.292   0.702  0.00  0.00    -0.026 A 
ATOM     16  C   UNL     1       4.111  -0.425   0.648  0.00  0.00    +0.046 C 
ENDBRANCH   2  14
ENDBRANCH   1   6
BRANCH   1  17
ATOM     17  C   UNL     1       3.190   9.033  -0.295  0.00  0.00    +0.121 C 
ATOM     18  C   UNL     1       2.558   8.963   1.096  0.00  0.00    +0.028 C 
BRANCH  17  19
ATOM     19  C   UNL     1       3.475  10.471  -0.645  0.00  0.00    +0.176 C 
ATOM     20  O   UNL     1       4.575  10.939  -0.439  0.00  0.00    -0.291 OA
BRANCH  19  21
ATOM     21  C   UNL     1       2.422  11.306  -1.235  0.00  0.00    +0.019 A 
ATOM     22  C   UNL     1       1.152  10.766  -1.479  0.00  0.00    +0.013 A 
ATOM     23  C   UNL     1       0.173  11.547  -2.023  0.00  0.00    +0.025 A 
ATOM     24  C   UNL     1       0.439  12.876  -2.345  0.00  0.00    +0.048 A 
ATOM     25  C   UNL     1       1.702  13.415  -2.110  0.00  0.00    +0.025 A 
ATOM     26  C   UNL     1       2.685  12.643  -1.561  0.00  0.00    +0.013 A 
BRANCH  24  27
ATOM     27  N   UNL     1      -0.558  13.666  -2.903  0.00  0.00    -0.221 N 
ATOM     28  H   UNL     1      -1.377  14.044  -2.273  0.00  0.00    +0.173 HD
BRANCH  27  29
ATOM     29  S   UNL     1      -0.514  14.039  -4.515  0.00  0.00    +0.040 S 
ATOM     30  O   UNL     1      -1.673  14.832  -4.736  0.00  0.00    -0.155 OA
ATOM     31  O   UNL     1       0.783  14.579  -4.728  0.00  0.00    -0.155 OA
ATOM     32  C   UNL     1      -0.675  12.446  -5.367  0.00  0.00    +0.218 C 
ENDBRANCH  27  29
ENDBRANCH  24  27
ENDBRANCH  19  21
ENDBRANCH  17  19
ENDBRANCH   1  17
TORSDOF 7
