REMARK  Name = ZINC04661283
REMARK  7 active torsions:
REMARK  status: ('A' for Active; 'I' for Inactive)
REMARK    1  A    between atoms: C_1  and  C_2
REMARK    2  A    between atoms: C_7  and  N_12
REMARK    3  A    between atoms: C_9  and  C_11
REMARK    4  A    between atoms: C_13  and  C_15
REMARK    5  A    between atoms: C_18  and  S_24
REMARK    6  A    between atoms: C_19  and  N_21
REMARK    7  A    between atoms: S_24  and  C_25
REMARK                            x       y       z     vdW  Elec       q    Type
REMARK                         _______ _______ _______ _____ _____    ______ ____
ROOT
ATOM      1  C   UNL     1      -1.327   1.396  -3.541  0.00  0.00    +0.039 A 
ATOM      2  C   UNL     1      -2.102   2.558  -3.468  0.00  0.00    +0.014 A 
ATOM      3  C   UNL     1      -2.764   3.009  -4.574  0.00  0.00    +0.018 A 
ATOM      4  C   UNL     1      -2.671   2.314  -5.778  0.00  0.00    +0.043 A 
ATOM      5  C   UNL     1      -1.902   1.156  -5.859  0.00  0.00    +0.141 A 
ATOM      6  C   UNL     1      -1.227   0.700  -4.750  0.00  0.00    +0.047 A 
ENDROOT
BRANCH   1   8
ATOM      7  N   UNL     1      -0.704   1.585  -1.184  0.00  0.00    -0.308 N 
ATOM      8  C   UNL     1      -0.611   0.909  -2.347  0.00  0.00    +0.244 C 
ATOM      9  O   UNL     1       0.062  -0.101  -2.411  0.00  0.00    -0.270 OA
ATOM     10  H   UNL     1      -1.241   2.390  -1.133  0.00  0.00    +0.149 HD
BRANCH   7  16
ATOM     11  C   UNL     1      -1.423   3.637   2.522  0.00  0.00    +0.008 C 
ATOM     12  C   UNL     1      -0.714   3.134   1.263  0.00  0.00    -0.009 C 
ATOM     13  C   UNL     1       0.724   3.656   1.244  0.00  0.00    +0.003 C 
ATOM     14  C   UNL     1       1.432   3.153  -0.015  0.00  0.00    +0.002 C 
ATOM     15  C   UNL     1       1.445   1.623  -0.017  0.00  0.00    +0.022 C 
ATOM     16  C   UNL     1       0.007   1.101   0.002  0.00  0.00    +0.076 C 
ATOM     17  C   UNL     1      -0.702   1.604   1.262  0.00  0.00    +0.009 C 
ATOM     18  C   UNL     1      -2.140   1.082   1.281  0.00  0.00    +0.009 C 
ENDBRANCH   7  16
ENDBRANCH   1   8
BRANCH   5  19
ATOM     19  N   UNL     1      -1.804   0.420  -7.140  0.00  0.00    +0.058 N 
ATOM     20  O   UNL     1      -1.131  -0.593  -7.210  0.00  0.00    -0.126 OA
ATOM     21  O   UNL     1      -2.397   0.827  -8.123  0.00  0.00    -0.126 OA
ENDBRANCH   5  19
BRANCH   4  22
ATOM     22  S   UNL     1      -3.529   2.901  -7.201  0.00  0.00    -0.087 S 
BRANCH  22  23
ATOM     23  C   UNL     1      -4.473   4.261  -6.598  0.00  0.00    +0.013 A 
ATOM     24  C   UNL     1      -5.721   4.043  -6.028  0.00  0.00    +0.018 A 
ATOM     25  C   UNL     1      -6.457   5.110  -5.552  0.00  0.00    +0.039 A 
ATOM     26  C   UNL     1      -5.957   6.398  -5.652  0.00  0.00    +0.123 A 
ATOM     27  C   UNL     1      -4.716   6.618  -6.224  0.00  0.00    +0.039 A 
ATOM     28  C   UNL     1      -3.974   5.554  -6.697  0.00  0.00    +0.018 A 
ATOM     29  F   UNL     1      -6.681   7.440  -5.189  0.00  0.00    -0.205 F 
ENDBRANCH  22  23
ENDBRANCH   4  22
TORSDOF 5
