REMARK  Name = ZINC04618641
REMARK  12 active torsions:
REMARK  status: ('A' for Active; 'I' for Inactive)
REMARK    1  A    between atoms: C_1  and  C_2
REMARK    2  A    between atoms: C_2  and  C_3
REMARK    3  A    between atoms: C_3  and  C_5
REMARK    4  A    between atoms: C_3  and  N_68
REMARK    5  A    between atoms: N_9  and  C_10
REMARK    6  A    between atoms: C_10  and  C_11
REMARK    7  A    between atoms: C_17  and  C_18
REMARK    8  A    between atoms: C_17  and  N_68
REMARK    9  A    between atoms: C_24  and  C_25
REMARK   10  A    between atoms: C_24  and  N_68
REMARK   11  A    between atoms: C_29  and  C_38
REMARK   12  A    between atoms: C_30  and  C_37
REMARK                            x       y       z     vdW  Elec       q    Type
REMARK                         _______ _______ _______ _____ _____    ______ ____
ROOT
ATOM      1  N   UNL     1       4.268   0.525  -3.521  0.00  0.00    +0.392 N 
ATOM      2  H   UNL     1       4.603   0.544  -4.492  0.00  0.00    -0.080 HD
ENDROOT
BRANCH   1   3
ATOM      3  C   UNL     1       5.000   1.544  -2.740  0.00  0.00    +0.003 C 
BRANCH   3   4
ATOM      4  C   UNL     1       4.371   1.722  -1.383  0.00  0.00    +0.138 A 
ATOM      5  N   UNL     1       3.097   1.897  -1.128  0.00  0.00    -0.115 NA
ATOM      6  N   UNL     1       2.959   2.015   0.148  0.00  0.00    -0.023 NA
ATOM      7  N   UNL     1       4.111   1.914   0.714  0.00  0.00    -0.044 NA
ATOM      8  N   UNL     1       5.007   1.730  -0.196  0.00  0.00    -0.226 N 
BRANCH   8   9
ATOM      9  C   UNL     1       6.446   1.565   0.020  0.00  0.00    +0.182 C 
BRANCH   9  10
ATOM     10  C   UNL     1       6.763   0.104   0.204  0.00  0.00    -0.026 A 
ATOM     11  C   UNL     1       7.073  -0.680  -0.892  0.00  0.00    +0.005 A 
ATOM     12  C   UNL     1       7.364  -2.021  -0.723  0.00  0.00    +0.000 A 
ATOM     13  C   UNL     1       7.339  -2.579   0.542  0.00  0.00    +0.000 A 
ATOM     14  C   UNL     1       7.034  -1.795   1.638  0.00  0.00    +0.000 A 
ATOM     15  C   UNL     1       6.744  -0.454   1.469  0.00  0.00    +0.005 A 
ENDBRANCH   9  10
ENDBRANCH   8   9
ENDBRANCH   3   4
BRANCH   3  17
ATOM     16  C   UNL     1       5.602   2.691  -4.877  0.00  0.00    +0.002 C 
ATOM     17  C   UNL     1       4.959   2.871  -3.500  0.00  0.00    -0.011 C 
ENDBRANCH   3  17
ENDBRANCH   1   3
BRANCH   1  18
ATOM     18  C   UNL     1       2.820   0.822  -3.506  0.00  0.00    -0.040 C 
BRANCH  18  19
ATOM     19  C   UNL     1       2.558   1.994  -4.417  0.00  0.00    -0.046 A 
ATOM     20  C   UNL     1       2.028   3.171  -3.910  0.00  0.00    +0.005 A 
ATOM     21  C   UNL     1       1.807   4.225  -4.784  0.00  0.00    +0.020 A 
ATOM     22  C   UNL     1       2.111   4.065  -6.122  0.00  0.00    +0.111 A 
ATOM     23  N   UNL     1       2.609   2.929  -6.570  0.00  0.00    -0.263 NA
ATOM     24  C   UNL     1       2.836   1.907  -5.767  0.00  0.00    +0.112 A 
ENDBRANCH  18  19
ENDBRANCH   1  18
BRANCH   1  25
ATOM     25  C   UNL     1       4.514  -0.818  -2.955  0.00  0.00    -0.036 C 
BRANCH  25  26
ATOM     26  C   UNL     1       3.866  -1.848  -3.845  0.00  0.00    +0.001 A 
ATOM     27  C   UNL     1       4.592  -2.453  -4.817  0.00  0.00    +0.017 A 
ATOM     28  C   UNL     1       3.933  -3.449  -5.665  0.00  0.00    -0.001 A 
ATOM     29  C   UNL     1       4.630  -4.106  -6.684  0.00  0.00    +0.013 A 
ATOM     30  C   UNL     1       3.987  -5.030  -7.457  0.00  0.00    -0.047 A 
ATOM     31  C   UNL     1       2.647  -5.323  -7.240  0.00  0.00    -0.046 A 
ATOM     32  C   UNL     1       1.941  -4.688  -6.241  0.00  0.00    +0.030 A 
ATOM     33  C   UNL     1       2.575  -3.743  -5.441  0.00  0.00    +0.049 A 
ATOM     34  N   UNL     1       1.893  -3.093  -4.435  0.00  0.00    -0.322 N 
ATOM     35  H   UNL     1       0.927  -3.301  -4.280  0.00  0.00    +0.169 HD
ATOM     36  C   UNL     1       2.508  -2.184  -3.658  0.00  0.00    +0.251 A 
ATOM     37  O   UNL     1       1.875  -1.632  -2.775  0.00  0.00    -0.268 OA
ATOM     38  C   UNL     1       1.958  -6.346  -8.106  0.00  0.00    +0.044 C 
ATOM     39  C   UNL     1       4.737  -5.738  -8.555  0.00  0.00    +0.044 C 
ENDBRANCH  25  26
ENDBRANCH   1  25
TORSDOF 9
