REMARK  Name = ZINC42143847
REMARK  3 active torsions:
REMARK  status: ('A' for Active; 'I' for Inactive)
REMARK    1  A    between atoms: C_6  and  N_7
REMARK    2  A    between atoms: C_9  and  S_11
REMARK    3  A    between atoms: S_11  and  C_12
REMARK                            x       y       z     vdW  Elec       q    Type
REMARK                         _______ _______ _______ _____ _____    ______ ____
ROOT
ATOM      1  C   UNL     1      -0.017   1.388   0.010  0.00  0.00    +0.025 A 
ATOM      2  C   UNL     1       1.163   2.099   0.002  0.00  0.00    +0.033 A 
ATOM      3  C   UNL     1       2.382   1.421  -0.013  0.00  0.00    +0.111 A 
ATOM      4  C   UNL     1       2.400   0.018  -0.021  0.00  0.00    +0.158 A 
ATOM      5  C   UNL     1       1.208  -0.687  -0.013  0.00  0.00    +0.071 A 
ATOM      6  C   UNL     1       0.002  -0.004   0.002  0.00  0.00    +0.028 A 
ATOM      7  O   UNL     1       3.703  -0.347  -0.035  0.00  0.00    -0.430 OA
ATOM      8  C   UNL     1       4.452   0.770  -0.036  0.00  0.00    +0.264 A 
ATOM      9  N   UNL     1       3.683   1.828  -0.023  0.00  0.00    -0.203 NA
ENDROOT
BRANCH   6  10
ATOM     10  N   UNL     1      -1.202  -0.717   0.010  0.00  0.00    -0.358 N 
ATOM     11  H   UNL     1      -2.047  -0.241   0.021  0.00  0.00    +0.142 HD
ATOM     12  H   UNL     1      -1.191  -1.687   0.005  0.00  0.00    +0.142 HD
ENDBRANCH   6  10
BRANCH   8  13
ATOM     13  S   UNL     1       6.214   0.804  -0.052  0.00  0.00    -0.011 S 
BRANCH  13  14
ATOM     14  C   UNL     1       6.607   2.521  -0.047  0.00  0.00    +0.106 A 
ATOM     15  C   UNL     1       7.939   2.923  -0.063  0.00  0.00    +0.036 A 
ATOM     16  C   UNL     1       8.234   4.274  -0.059  0.00  0.00    +0.019 A 
ATOM     17  C   UNL     1       7.183   5.183  -0.039  0.00  0.00    +0.036 A 
ATOM     18  C   UNL     1       5.884   4.713  -0.024  0.00  0.00    +0.127 A 
ATOM     19  N   UNL     1       5.633   3.417  -0.034  0.00  0.00    -0.247 NA
ATOM     20 BR   UNL     1       7.527   7.042  -0.031  0.00  0.00    -0.049 Br
ENDBRANCH  13  14
ENDBRANCH   8  13
TORSDOF 3
