REMARK  Name = ZINC15464875
REMARK  15 active torsions:
REMARK  status: ('A' for Active; 'I' for Inactive)
REMARK    1  A    between atoms: C_1  and  C_2
REMARK    2  A    between atoms: C_2  and  C_3
REMARK    3  A    between atoms: C_3  and  C_4
REMARK    4  A    between atoms: C_4  and  N_5
REMARK    5  A    between atoms: N_5  and  C_6
REMARK    6  A    between atoms: N_5  and  S_10
REMARK    7  A    between atoms: C_6  and  C_7
REMARK    8  A    between atoms: C_7  and  C_8
REMARK    9  A    between atoms: C_8  and  C_9
REMARK   10  A    between atoms: S_10  and  C_13
REMARK   11  A    between atoms: C_16  and  N_19
REMARK   12  A    between atoms: C_20  and  C_22
REMARK   13  A    between atoms: N_27  and  C_29
REMARK   14  A    between atoms: C_31  and  C_36
REMARK   15  A    between atoms: C_34  and  C_35
REMARK                            x       y       z     vdW  Elec       q    Type
REMARK                         _______ _______ _______ _____ _____    ______ ____
ROOT
ATOM      1  C   UNL     1      -0.934   1.920  -1.409  0.00  0.00    +0.106 A 
ATOM      2  C   UNL     1      -1.865   1.056  -1.955  0.00  0.00    +0.030 A 
ATOM      3  C   UNL     1      -2.611   1.444  -3.050  0.00  0.00    +0.025 A 
ATOM      4  C   UNL     1      -2.417   2.700  -3.611  0.00  0.00    +0.034 A 
ATOM      5  C   UNL     1      -1.478   3.564  -3.063  0.00  0.00    +0.025 A 
ATOM      6  C   UNL     1      -0.739   3.172  -1.964  0.00  0.00    +0.030 A 
ENDROOT
BRANCH   4   7
ATOM      7  N   UNL     1      -3.167   3.094  -4.724  0.00  0.00    -0.285 N 
ATOM      8  C   UNL     1      -3.548   4.380  -4.859  0.00  0.00    +0.222 C 
ATOM      9  O   UNL     1      -3.171   5.211  -4.060  0.00  0.00    -0.275 OA
ATOM     10  H   UNL     1      -3.413   2.442  -5.399  0.00  0.00    +0.155 HD
BRANCH   8  11
ATOM     11  C   UNL     1      -4.443   4.784  -6.002  0.00  0.00    +0.102 C 
ATOM     12  C   UNL     1      -5.855   4.173  -5.843  0.00  0.00    +0.110 C 
ATOM     13  C   UNL     1      -6.644   5.246  -5.125  0.00  0.00    +0.221 C 
ATOM     14  O   UNL     1      -7.705   5.069  -4.564  0.00  0.00    -0.275 OA
ATOM     15  N   UNL     1      -5.999   6.423  -5.199  0.00  0.00    -0.270 N 
ATOM     16  C   UNL     1      -4.748   6.298  -5.956  0.00  0.00    +0.127 C 
BRANCH  15  17
ATOM     17  C   UNL     1      -6.462   7.614  -4.629  0.00  0.00    +0.039 A 
ATOM     18  C   UNL     1      -7.276   8.467  -5.363  0.00  0.00    +0.027 A 
ATOM     19  C   UNL     1      -7.736   9.639  -4.795  0.00  0.00    -0.049 A 
ATOM     20  C   UNL     1      -7.377   9.969  -3.501  0.00  0.00    +0.004 A 
ATOM     21  C   UNL     1      -6.561   9.125  -2.770  0.00  0.00    +0.005 A 
ATOM     22  C   UNL     1      -6.103   7.949  -3.330  0.00  0.00    -0.029 A 
ATOM     23  C   UNL     1      -5.215   7.029  -2.532  0.00  0.00    +0.045 C 
ATOM     24  C   UNL     1      -8.624  10.561  -5.589  0.00  0.00    +0.044 C 
ENDBRANCH  15  17
ENDBRANCH   8  11
ENDBRANCH   4   7
BRANCH   1  25
ATOM     25  S   UNL     1       0.011   1.423  -0.007  0.00  0.00    +0.061 S 
ATOM     26  O   UNL     1       0.028   0.003  -0.011  0.00  0.00    -0.153 OA
ATOM     27  O   UNL     1       1.201   2.199  -0.024  0.00  0.00    -0.153 OA
BRANCH  25  28
ATOM     28  N   UNL     1      -0.834   1.883   1.341  0.00  0.00    -0.177 NA
BRANCH  28  29
ATOM     29  C   UNL     1      -1.806   0.967   1.944  0.00  0.00    +0.109 C 
BRANCH  29  30
ATOM     30  C   UNL     1      -1.136   0.187   3.077  0.00  0.00    +0.017 C 
BRANCH  30  32
ATOM     31  C   UNL     1      -1.482  -1.550   4.839  0.00  0.00    +0.004 C 
ATOM     32  C   UNL     1      -2.151  -0.770   3.707  0.00  0.00    -0.002 C 
ENDBRANCH  30  32
ENDBRANCH  29  30
ENDBRANCH  28  29
BRANCH  28  33
ATOM     33  C   UNL     1      -0.610   3.205   1.931  0.00  0.00    +0.109 C 
BRANCH  33  34
ATOM     34  C   UNL     1      -1.651   4.188   1.391  0.00  0.00    +0.017 C 
BRANCH  34  35
ATOM     35  C   UNL     1      -1.417   5.569   2.006  0.00  0.00    -0.002 C 
ATOM     36  C   UNL     1      -2.458   6.551   1.466  0.00  0.00    +0.004 C 
ENDBRANCH  34  35
ENDBRANCH  33  34
ENDBRANCH  28  33
ENDBRANCH  25  28
ENDBRANCH   1  25
TORSDOF 11
