REMARK  Name = ZINC35071689
REMARK  14 active torsions:
REMARK  status: ('A' for Active; 'I' for Inactive)
REMARK    1  A    between atoms: C_1  and  C_2
REMARK    2  A    between atoms: C_2  and  C_3
REMARK    3  A    between atoms: C_3  and  C_4
REMARK    4  A    between atoms: C_4  and  N_5
REMARK    5  A    between atoms: N_8  and  C_9
REMARK    6  A    between atoms: N_8  and  C_14
REMARK    7  A    between atoms: C_9  and  C_10
REMARK    8  A    between atoms: C_10  and  N_11
REMARK    9  A    between atoms: N_11  and  C_12
REMARK   10  A    between atoms: N_11  and  C_13
REMARK   11  A    between atoms: C_14  and  C_16
REMARK   12  A    between atoms: C_14  and  C_17
REMARK   13  A    between atoms: N_27  and  C_28
REMARK   14  A    between atoms: C_33  and  C_34
REMARK                            x       y       z     vdW  Elec       q    Type
REMARK                         _______ _______ _______ _____ _____    ______ ____
ROOT
ATOM      1  C   UNL     1       1.535  -6.082  -5.398  0.00  0.00    +0.138 A 
ATOM      2  N   UNL     1       2.049  -5.680  -6.520  0.00  0.00    -0.231 NA
ATOM      3  C   UNL     1       1.525  -6.049  -7.715  0.00  0.00    +0.078 A 
ATOM      4  C   UNL     1       2.078  -5.616  -8.923  0.00  0.00    +0.028 A 
ATOM      5  C   UNL     1       1.513  -6.016 -10.113  0.00  0.00    +0.002 A 
ATOM      6  C   UNL     1       0.399  -6.845 -10.129  0.00  0.00    +0.001 A 
ATOM      7  C   UNL     1      -0.165  -7.285  -8.952  0.00  0.00    +0.015 A 
ATOM      8  C   UNL     1       0.392  -6.892  -7.736  0.00  0.00    +0.065 A 
ATOM      9  C   UNL     1      -0.166  -7.330  -6.448  0.00  0.00    +0.266 A 
ATOM     10  O   UNL     1      -1.141  -8.057  -6.396  0.00  0.00    -0.267 OA
ATOM     11  N   UNL     1       0.449  -6.899  -5.323  0.00  0.00    -0.263 N 
ENDROOT
BRANCH  11  12
ATOM     12  C   UNL     1      -0.039  -7.291  -4.070  0.00  0.00    +0.055 A 
ATOM     13  C   UNL     1      -1.016  -6.535  -3.436  0.00  0.00    +0.026 A 
ATOM     14  C   UNL     1      -1.496  -6.925  -2.201  0.00  0.00    +0.003 A 
ATOM     15  C   UNL     1      -1.005  -8.067  -1.595  0.00  0.00    +0.020 A 
ATOM     16  C   UNL     1      -0.032  -8.823  -2.224  0.00  0.00    +0.046 A 
ATOM     17  C   UNL     1       0.449  -8.441  -3.463  0.00  0.00    -0.008 A 
ATOM     18  C   UNL     1       1.504  -9.267  -4.151  0.00  0.00    +0.047 C 
ATOM     19 CL   UNL     1       0.582 -10.256  -1.461  0.00  0.00    -0.083 Cl
ENDBRANCH  11  12
BRANCH   1  20
ATOM     20  C   UNL     1       2.178  -5.627  -4.113  0.00  0.00    +0.141 C 
ATOM     21  C   UNL     1       3.667  -5.978  -4.135  0.00  0.00    +0.036 C 
BRANCH  20  25
ATOM     22  N   UNL     1       1.214  -2.336  -2.788  0.00  0.00    -0.299 N 
ATOM     23  C   UNL     1       1.359  -3.670  -2.915  0.00  0.00    +0.303 C 
ATOM     24  O   UNL     1       0.894  -4.415  -2.074  0.00  0.00    -0.253 OA
ATOM     25  N   UNL     1       2.020  -4.178  -3.974  0.00  0.00    -0.278 N 
ATOM     26  H   UNL     1       1.585  -1.741  -3.458  0.00  0.00    +0.150 HD
BRANCH  22  27
ATOM     27  C   UNL     1       0.496  -1.784  -1.636  0.00  0.00    +0.106 C 
BRANCH  27  28
ATOM     28  C   UNL     1       0.474  -0.257  -1.732  0.00  0.00    +0.018 C 
BRANCH  28  30
ATOM     29  C   UNL     1      -0.297   1.846  -0.626  0.00  0.00    +0.004 C 
ATOM     30  C   UNL     1      -0.276   0.319  -0.530  0.00  0.00    -0.002 C 
ENDBRANCH  28  30
ENDBRANCH  27  28
ENDBRANCH  22  27
BRANCH  25  31
ATOM     31  C   UNL     1       2.580  -3.280  -4.987  0.00  0.00    +0.091 C 
BRANCH  31  32
ATOM     32  C   UNL     1       4.011  -2.903  -4.600  0.00  0.00    -0.060 C 
BRANCH  32  33
ATOM     33  N   UNL     1       4.573  -2.002  -5.616  0.00  0.00    +0.377 N 
ATOM     34  C   UNL     1       5.901  -1.546  -5.185  0.00  0.00    -0.097 C 
ATOM     35  C   UNL     1       4.691  -2.719  -6.893  0.00  0.00    -0.097 C 
ATOM     36  H   UNL     1       3.964  -1.206  -5.732  0.00  0.00    -0.083 HD
ENDBRANCH  32  33
ENDBRANCH  31  32
ENDBRANCH  25  31
ENDBRANCH  20  25
ENDBRANCH   1  20
TORSDOF 9
