REMARK  Name = ZINC51150549
REMARK  10 active torsions:
REMARK  status: ('A' for Active; 'I' for Inactive)
REMARK    1  A    between atoms: C_1  and  C_2
REMARK    2  A    between atoms: C_2  and  C_3
REMARK    3  A    between atoms: C_3  and  C_4
REMARK    4  A    between atoms: C_9  and  S_12
REMARK    5  A    between atoms: S_12  and  C_13
REMARK    6  A    between atoms: C_13  and  C_14
REMARK    7  A    between atoms: C_15  and  C_22
REMARK    8  A    between atoms: N_17  and  C_21
REMARK    9  A    between atoms: C_18  and  N_19
REMARK   10  A    between atoms: N_19  and  N_20
REMARK                            x       y       z     vdW  Elec       q    Type
REMARK                         _______ _______ _______ _____ _____    ______ ____
ROOT
ATOM      1  C   UNL     1       4.020  -3.436   0.965  0.00  0.00    +0.117 C 
ENDROOT
BRANCH   1   2
ATOM      2  C   UNL     1       5.175  -4.003   1.749  0.00  0.00    +0.026 A 
ATOM      3  C   UNL     1       5.165  -4.332   3.107  0.00  0.00    +0.066 A 
ATOM      4  N   UNL     1       6.347  -4.794   3.427  0.00  0.00    -0.175 NA
ATOM      5  N   UNL     1       7.153  -4.777   2.281  0.00  0.00    -0.252 N 
ATOM      6  C   UNL     1       6.412  -4.291   1.259  0.00  0.00    +0.134 A 
ATOM      7  C   UNL     1       8.550  -5.212   2.203  0.00  0.00    +0.174 C 
ATOM      8  C   UNL     1       3.995  -4.180   4.044  0.00  0.00    +0.068 C 
BRANCH   6   9
ATOM      9  N   UNL     1       6.839  -4.115  -0.054  0.00  0.00    -0.268 N 
ATOM     10  H   UNL     1       6.321  -3.564  -0.663  0.00  0.00    +0.167 HD
BRANCH   9  11
ATOM     11  N   UNL     1       7.986  -4.718  -0.487  0.00  0.00    -0.255 NA
ATOM     12  H   UNL     1       7.946  -5.716  -0.342  0.00  0.00    +0.140 HD
ATOM     13  H   UNL     1       8.165  -4.500  -1.456  0.00  0.00    +0.140 HD
ENDBRANCH   9  11
ENDBRANCH   6   9
ENDBRANCH   1   2
BRANCH   1  14
ATOM     14  S   UNL     1       3.037  -4.793   0.270  0.00  0.00    -0.083 S 
BRANCH  14  20
ATOM     15  C   UNL     1       0.739  -2.004  -1.265  0.00  0.00    +0.049 A 
ATOM     16  C   UNL     1      -0.228  -2.695  -1.938  0.00  0.00    +0.093 A 
ATOM     17  C   UNL     1      -0.188  -4.100  -1.932  0.00  0.00    +0.252 A 
ATOM     18  O   UNL     1      -1.035  -4.749  -2.523  0.00  0.00    -0.268 OA
ATOM     19  N   UNL     1       0.806  -4.719  -1.259  0.00  0.00    -0.302 N 
ATOM     20  C   UNL     1       1.743  -3.977  -0.605  0.00  0.00    +0.169 A 
ATOM     21  N   UNL     1       1.701  -2.659  -0.621  0.00  0.00    -0.228 NA
ATOM     22  H   UNL     1       0.853  -5.687  -1.241  0.00  0.00    +0.171 HD
BRANCH  15  23
ATOM     23  C   UNL     1       0.718  -0.497  -1.257  0.00  0.00    +0.055 C 
BRANCH  23  25
ATOM     24  C   UNL     1      -0.019   1.526   0.010  0.00  0.00    +0.004 C 
ATOM     25  C   UNL     1       0.002  -0.004   0.002  0.00  0.00    +0.003 C 
ENDBRANCH  23  25
ENDBRANCH  15  23
ENDBRANCH  14  20
ENDBRANCH   1  14
TORSDOF 7
