REMARK  Name = ZINC10505327
REMARK  7 active torsions:
REMARK  status: ('A' for Active; 'I' for Inactive)
REMARK    1  A    between atoms: C_1  and  C_2
REMARK    2  A    between atoms: N_4  and  S_5
REMARK    3  A    between atoms: S_5  and  C_8
REMARK    4  A    between atoms: C_11  and  N_14
REMARK    5  A    between atoms: N_14  and  C_15
REMARK    6  A    between atoms: C_15  and  N_17
REMARK    7  A    between atoms: C_18  and  C_20
REMARK                            x       y       z     vdW  Elec       q    Type
REMARK                         _______ _______ _______ _____ _____    ______ ____
ROOT
ATOM      1  N   UNL     1      -2.345   0.934   0.018  0.00  0.00    -0.297 N 
ATOM      2  H   UNL     1      -1.619   1.193   0.607  0.00  0.00    +0.154 HD
ENDROOT
BRANCH   1   6
ATOM      3  C   UNL     1      -5.836   3.203  -0.103  0.00  0.00    +0.109 A 
ATOM      4  C   UNL     1      -5.912   1.824  -0.035  0.00  0.00    +0.030 A 
ATOM      5  C   UNL     1      -4.756   1.069   0.005  0.00  0.00    +0.025 A 
ATOM      6  C   UNL     1      -3.518   1.696  -0.023  0.00  0.00    +0.033 A 
ATOM      7  C   UNL     1      -3.445   3.082  -0.086  0.00  0.00    +0.025 A 
ATOM      8  C   UNL     1      -4.604   3.831  -0.132  0.00  0.00    +0.030 A 
BRANCH   3   9
ATOM      9  S   UNL     1      -7.313   4.163  -0.154  0.00  0.00    +0.074 S 
ATOM     10  O   UNL     1      -6.973   5.400  -0.766  0.00  0.00    -0.150 OA
ATOM     11  O   UNL     1      -8.332   3.315  -0.666  0.00  0.00    -0.150 OA
BRANCH   9  15
ATOM     12  C   UNL     1      -7.301   5.599   3.590  0.00  0.00    +0.111 C 
ATOM     13  C   UNL     1      -6.924   5.285   2.166  0.00  0.00    +0.229 C 
ATOM     14  O   UNL     1      -5.898   5.731   1.697  0.00  0.00    -0.275 OA
ATOM     15  N   UNL     1      -7.727   4.508   1.411  0.00  0.00    -0.186 N 
ATOM     16  H   UNL     1      -8.548   4.152   1.786  0.00  0.00    +0.177 HD
ENDBRANCH   9  15
ENDBRANCH   3   9
ENDBRANCH   1   6
BRANCH   1  17
ATOM     17  C   UNL     1      -2.225  -0.160  -0.760  0.00  0.00    +0.141 C 
ATOM     18  S   UNL     1      -3.546  -0.678  -1.718  0.00  0.00    -0.018 S 
BRANCH  17  19
ATOM     19  N   UNL     1      -1.065  -0.845  -0.784  0.00  0.00    -0.264 N 
ATOM     20  C   UNL     1      -0.946  -1.942  -1.558  0.00  0.00    +0.250 C 
ATOM     21  O   UNL     1      -1.884  -2.310  -2.238  0.00  0.00    -0.270 OA
ATOM     22  H   UNL     1      -0.316  -0.551  -0.242  0.00  0.00    +0.157 HD
BRANCH  20  23
ATOM     23  C   UNL     1       0.324  -2.697  -1.580  0.00  0.00    +0.040 A 
ATOM     24  C   UNL     1       1.405  -2.273  -0.805  0.00  0.00    +0.033 A 
ATOM     25  C   UNL     1       2.587  -2.986  -0.825  0.00  0.00    +0.043 A 
ATOM     26  C   UNL     1       2.706  -4.113  -1.621  0.00  0.00    +0.040 A 
ATOM     27  C   UNL     1       1.640  -4.535  -2.397  0.00  0.00    +0.043 A 
ATOM     28  C   UNL     1       0.450  -3.833  -2.381  0.00  0.00    +0.033 A 
ATOM     29 CL   UNL     1       1.798  -5.948  -3.392  0.00  0.00    -0.083 Cl
ATOM     30 CL   UNL     1       3.930  -2.465   0.144  0.00  0.00    -0.083 Cl
ENDBRANCH  20  23
ENDBRANCH  17  19
ENDBRANCH   1  17
TORSDOF 6
