REMARK  Name = ZINC08035285
REMARK  8 active torsions:
REMARK  status: ('A' for Active; 'I' for Inactive)
REMARK    1  A    between atoms: C_1  and  C_2
REMARK    2  A    between atoms: C_16  and  O_36
REMARK    3  A    between atoms: C_19  and  C_35
REMARK    4  A    between atoms: C_25  and  C_31
REMARK    5  A    between atoms: C_27  and  C_29
REMARK    6  A    between atoms: C_27  and  C_30
REMARK    7  A    between atoms: C_31  and  C_33
REMARK    8  A    between atoms: C_33  and  O_34
REMARK                            x       y       z     vdW  Elec       q    Type
REMARK                         _______ _______ _______ _____ _____    ______ ____
ROOT
ATOM      1  C   UNL     1       0.093   2.113  -0.527  0.00  0.00    +0.016 C 
ATOM      2  C   UNL     1       0.052   0.604  -0.260  0.00  0.00    -0.002 C 
ATOM      3  C   UNL     1      -1.389   0.115  -0.235  0.00  0.00    +0.019 C 
ATOM      4  C   UNL     1      -2.150   0.771   0.922  0.00  0.00    +0.080 C 
ATOM      5  C   UNL     1      -1.417   0.502   2.212  0.00  0.00    +0.156 C 
ATOM      6  O   UNL     1      -2.026   0.472   3.261  0.00  0.00    -0.293 OA
ATOM      7  C   UNL     1       0.027   0.280   2.198  0.00  0.00    +0.049 C 
ATOM      8  C   UNL     1       0.720   0.320   1.067  0.00  0.00    -0.027 C 
ATOM      9  C   UNL     1       2.212   0.076   1.072  0.00  0.00    +0.193 C 
ATOM     10  C   UNL     1       2.517  -1.180   0.253  0.00  0.00    +0.045 C 
ATOM     11  C   UNL     1       1.425  -1.422  -0.776  0.00  0.00    +0.002 C 
ATOM     12  C   UNL     1       0.875  -0.112  -1.336  0.00  0.00    +0.031 C 
ATOM     13  C   UNL     1       0.083  -0.367  -2.608  0.00  0.00    +0.119 C 
ATOM     14  C   UNL     1       0.989  -0.879  -3.743  0.00  0.00    +0.042 C 
ATOM     15  C   UNL     1       2.215  -1.559  -3.175  0.00  0.00    +0.012 C 
ATOM     16  C   UNL     1       1.844  -2.336  -1.894  0.00  0.00    +0.004 C 
ATOM     17  C   UNL     1       3.102  -3.183  -1.658  0.00  0.00    +0.039 C 
ATOM     18  C   UNL     1       3.446  -3.682  -3.090  0.00  0.00    +0.162 C 
ATOM     19  C   UNL     1       2.765  -2.690  -4.071  0.00  0.00    +0.164 C 
ATOM     20  O   UNL     1       1.686  -3.419  -4.661  0.00  0.00    -0.332 OA
ATOM     21  C   UNL     1       1.962  -4.816  -4.470  0.00  0.00    +0.166 C 
ATOM     22  O   UNL     1       2.771  -4.934  -3.289  0.00  0.00    -0.343 OA
ATOM     23  C   UNL     1       0.642  -5.580  -4.269  0.00  0.00    +0.074 C 
ATOM     24  C   UNL     1       2.697  -5.397  -5.683  0.00  0.00    +0.074 C 
ATOM     25  C   UNL     1       3.358  -0.568  -2.969  0.00  0.00    +0.015 C 
ATOM     26  F   UNL     1       2.653  -0.109   2.386  0.00  0.00    -0.241 F 
ENDROOT
BRANCH  19  27
ATOM     27  C   UNL     1       3.729  -2.136  -5.088  0.00  0.00    +0.193 C 
ATOM     28  O   UNL     1       4.915  -2.147  -4.863  0.00  0.00    -0.292 OA
BRANCH  27  29
ATOM     29  C   UNL     1       3.213  -1.570  -6.385  0.00  0.00    +0.233 C 
BRANCH  29  30
ATOM     30  O   UNL     1       4.297  -0.997  -7.120  0.00  0.00    -0.387 OA
ATOM     31  H   UNL     1       4.037  -0.613  -7.968  0.00  0.00    +0.210 HD
ENDBRANCH  29  30
ENDBRANCH  27  29
ENDBRANCH  19  27
BRANCH  13  32
ATOM     32  O   UNL     1      -0.926  -1.358  -2.372  0.00  0.00    -0.391 OA
ATOM     33  H   UNL     1      -1.465  -1.564  -3.148  0.00  0.00    +0.210 HD
ENDBRANCH  13  32
TORSDOF 4
