REMARK  Name = ZINC39461785
REMARK  9 active torsions:
REMARK  status: ('A' for Active; 'I' for Inactive)
REMARK    1  A    between atoms: C_1  and  C_2
REMARK    2  A    between atoms: C_5  and  C_8
REMARK    3  A    between atoms: N_10  and  C_11
REMARK    4  A    between atoms: C_11  and  C_13
REMARK    5  A    between atoms: C_11  and  C_16
REMARK    6  A    between atoms: C_13  and  C_14
REMARK    7  A    between atoms: C_13  and  C_15
REMARK    8  A    between atoms: C_21  and  N_24
REMARK    9  A    between atoms: C_25  and  C_27
REMARK                            x       y       z     vdW  Elec       q    Type
REMARK                         _______ _______ _______ _____ _____    ______ ____
ROOT
ATOM      1  C   UNL     1      -0.562  -7.016   2.168  0.00  0.00    +0.236 C 
ATOM      2  O   UNL     1      -1.155  -6.282   2.930  0.00  0.00    -0.274 OA
ATOM      3  N   UNL     1      -0.535  -8.344   2.395  0.00  0.00    -0.300 N 
ATOM      4  C   UNL     1       0.082  -9.257   1.423  0.00  0.00    +0.109 C 
ATOM      5  C   UNL     1      -0.931 -10.347   1.058  0.00  0.00    +0.041 C 
ATOM      6  C   UNL     1      -1.424 -11.029   2.337  0.00  0.00    +0.076 C 
ATOM      7  C   UNL     1      -2.122 -10.000   3.229  0.00  0.00    +0.041 C 
ATOM      8  C   UNL     1      -1.117  -8.906   3.622  0.00  0.00    +0.109 C 
ENDROOT
BRANCH   6   9
ATOM      9  N   UNL     1      -2.368 -12.094   1.989  0.00  0.00    -0.308 N 
ATOM     10  C   UNL     1      -2.550 -13.133   2.827  0.00  0.00    +0.244 C 
ATOM     11  O   UNL     1      -1.930 -13.187   3.872  0.00  0.00    -0.270 OA
ATOM     12  H   UNL     1      -2.862 -12.050   1.155  0.00  0.00    +0.149 HD
BRANCH  10  13
ATOM     13  C   UNL     1      -3.502 -14.208   2.476  0.00  0.00    +0.037 A 
ATOM     14  C   UNL     1      -4.211 -14.152   1.275  0.00  0.00    +0.013 A 
ATOM     15  C   UNL     1      -5.098 -15.158   0.953  0.00  0.00    +0.001 A 
ATOM     16  C   UNL     1      -5.287 -16.221   1.819  0.00  0.00    +0.000 A 
ATOM     17  C   UNL     1      -4.588 -16.282   3.011  0.00  0.00    +0.001 A 
ATOM     18  C   UNL     1      -3.693 -15.286   3.342  0.00  0.00    +0.013 A 
ENDBRANCH  10  13
ENDBRANCH   6   9
BRANCH   1  19
ATOM     19  C   UNL     1       0.144  -6.442   0.967  0.00  0.00    +0.162 C 
BRANCH  19  22
ATOM     20  C   UNL     1      -0.444  -4.811  -0.746  0.00  0.00    +0.245 C 
ATOM     21  O   UNL     1       0.212  -5.455  -1.542  0.00  0.00    -0.270 OA
ATOM     22  N   UNL     1      -0.540  -5.221   0.534  0.00  0.00    -0.300 N 
ATOM     23  H   UNL     1      -1.063  -4.708   1.170  0.00  0.00    +0.150 HD
BRANCH  20  28
ATOM     24  C   UNL     1      -3.134  -0.016  -2.444  0.00  0.00    +0.044 C 
ATOM     25  C   UNL     1      -2.429  -1.272  -1.999  0.00  0.00    -0.050 A 
ATOM     26  C   UNL     1      -1.684  -2.002  -2.908  0.00  0.00    +0.004 A 
ATOM     27  C   UNL     1      -1.036  -3.152  -2.507  0.00  0.00    +0.013 A 
ATOM     28  C   UNL     1      -1.135  -3.579  -1.182  0.00  0.00    +0.037 A 
ATOM     29  C   UNL     1      -1.888  -2.838  -0.271  0.00  0.00    +0.013 A 
ATOM     30  C   UNL     1      -2.526  -1.687  -0.683  0.00  0.00    +0.004 A 
ENDBRANCH  20  28
ENDBRANCH  19  22
BRANCH  19  31
ATOM     31  C   UNL     1       1.592  -6.112   1.335  0.00  0.00    +0.012 C 
ATOM     32  C   UNL     1       2.287  -7.373   1.852  0.00  0.00    +0.009 C 
ATOM     33  C   UNL     1       2.328  -5.595   0.098  0.00  0.00    +0.009 C 
ENDBRANCH  19  31
ENDBRANCH   1  19
TORSDOF 6
