REMARK  Name = ZINC16187728
REMARK  8 active torsions:
REMARK  status: ('A' for Active; 'I' for Inactive)
REMARK    1  A    between atoms: C_1  and  C_2
REMARK    2  A    between atoms: C_2  and  C_3
REMARK    3  A    between atoms: C_2  and  C_4
REMARK    4  A    between atoms: C_9  and  N_10
REMARK    5  A    between atoms: N_10  and  C_11
REMARK    6  A    between atoms: C_11  and  N_13
REMARK    7  A    between atoms: N_13  and  C_14
REMARK    8  A    between atoms: C_23  and  O_24
REMARK                            x       y       z     vdW  Elec       q    Type
REMARK                         _______ _______ _______ _____ _____    ______ ____
ROOT
ATOM      1  N   UNL     1      -0.591  -2.344  -4.239  0.00  0.00    -0.296 N 
ATOM      2  H   UNL     1       0.360  -2.246  -4.077  0.00  0.00    +0.154 HD
ENDROOT
BRANCH   1   3
ATOM      3  C   UNL     1      -1.040  -3.061  -5.349  0.00  0.00    +0.040 A 
ATOM      4  C   UNL     1      -2.135  -3.891  -5.244  0.00  0.00    +0.024 A 
ATOM      5  C   UNL     1      -2.591  -4.610  -6.345  0.00  0.00    +0.003 A 
ATOM      6  C   UNL     1      -1.970  -4.514  -7.553  0.00  0.00    +0.012 A 
ATOM      7  C   UNL     1      -0.850  -3.679  -7.702  0.00  0.00    +0.025 A 
ATOM      8  C   UNL     1      -0.380  -2.939  -6.590  0.00  0.00    +0.007 A 
ATOM      9  C   UNL     1       0.737  -2.101  -6.741  0.00  0.00    +0.010 A 
ATOM     10  C   UNL     1       1.352  -2.005  -7.952  0.00  0.00    +0.004 A 
ATOM     11  C   UNL     1       0.891  -2.727  -9.050  0.00  0.00    +0.046 A 
ATOM     12  C   UNL     1      -0.187  -3.560  -8.940  0.00  0.00    +0.125 A 
BRANCH  12  13
ATOM     13  O   UNL     1      -0.624  -4.258 -10.020  0.00  0.00    -0.506 OA
ATOM     14  H   UNL     1      -1.281  -3.788 -10.552  0.00  0.00    +0.292 HD
ENDBRANCH  12  13
ENDBRANCH   1   3
BRANCH   1  15
ATOM     15  C   UNL     1      -1.479  -1.788  -3.391  0.00  0.00    +0.139 C 
ATOM     16  S   UNL     1      -3.156  -1.880  -3.727  0.00  0.00    -0.018 S 
BRANCH  15  17
ATOM     17  N   UNL     1      -1.048  -1.160  -2.280  0.00  0.00    -0.296 N 
ATOM     18  H   UNL     1      -0.097  -1.050  -2.123  0.00  0.00    +0.154 HD
BRANCH  17  24
ATOM     19  C   UNL     1      -1.716  -0.772   0.009  0.00  0.00    -0.024 A 
ATOM     20  C   UNL     1      -2.627  -0.278   0.921  0.00  0.00    +0.006 A 
ATOM     21  C   UNL     1      -3.796   0.316   0.482  0.00  0.00    +0.000 A 
ATOM     22  C   UNL     1      -4.056   0.418  -0.873  0.00  0.00    +0.002 A 
ATOM     23  C   UNL     1      -3.149  -0.074  -1.791  0.00  0.00    +0.023 A 
ATOM     24  C   UNL     1      -1.972  -0.666  -1.352  0.00  0.00    +0.036 A 
BRANCH  19  26
ATOM     25  C   UNL     1       0.418  -0.379   1.209  0.00  0.00    +0.012 C 
ATOM     26  C   UNL     1      -0.443  -1.419   0.489  0.00  0.00    +0.015 C 
ATOM     27  C   UNL     1      -0.781  -2.557   1.453  0.00  0.00    +0.012 C 
ENDBRANCH  19  26
ENDBRANCH  17  24
ENDBRANCH  15  17
ENDBRANCH   1  15
TORSDOF 6
