REMARK  Name = ZINC13064267
REMARK  10 active torsions:
REMARK  status: ('A' for Active; 'I' for Inactive)
REMARK    1  A    between atoms: C_1  and  C_2
REMARK    2  A    between atoms: C_2  and  C_3
REMARK    3  A    between atoms: C_3  and  C_5
REMARK    4  A    between atoms: C_3  and  N_73
REMARK    5  A    between atoms: N_9  and  C_10
REMARK    6  A    between atoms: C_16  and  C_17
REMARK    7  A    between atoms: C_16  and  N_73
REMARK    8  A    between atoms: C_22  and  O_29
REMARK    9  A    between atoms: O_29  and  C_30
REMARK   10  A    between atoms: C_31  and  N_73
REMARK                            x       y       z     vdW  Elec       q    Type
REMARK                         _______ _______ _______ _____ _____    ______ ____
ROOT
ATOM      1  N   UNL     1       2.882   1.194   9.493  0.00  0.00    +0.391 N 
ATOM      2  H   UNL     1       2.681   2.195   9.596  0.00  0.00    -0.080 HD
ENDROOT
BRANCH   1   3
ATOM      3  C   UNL     1       4.167   1.034   8.780  0.00  0.00    -0.067 C 
ATOM      4  C   UNL     1       5.320   1.161   9.777  0.00  0.00    -0.015 C 
ATOM      5  C   UNL     1       6.652   1.024   9.037  0.00  0.00    -0.002 C 
ATOM      6  C   UNL     1       6.766   2.126   7.982  0.00  0.00    -0.000 C 
ATOM      7  C   UNL     1       5.612   1.998   6.985  0.00  0.00    -0.002 C 
ATOM      8  C   UNL     1       4.280   2.136   7.725  0.00  0.00    -0.015 C 
ENDBRANCH   1   3
BRANCH   1   9
ATOM      9  C   UNL     1       2.970   0.581  10.835  0.00  0.00    +0.003 C 
BRANCH   9  10
ATOM     10  C   UNL     1       1.914   1.197  11.716  0.00  0.00    +0.138 A 
ATOM     11  N   UNL     1       0.655   1.392  11.409  0.00  0.00    -0.115 NA
ATOM     12  N   UNL     1       0.077   1.938  12.423  0.00  0.00    -0.023 NA
ATOM     13  N   UNL     1       0.938   2.103  13.367  0.00  0.00    -0.044 NA
ATOM     14  N   UNL     1       2.082   1.659  12.969  0.00  0.00    -0.228 N 
BRANCH  14  15
ATOM     15  C   UNL     1       3.329   1.657  13.738  0.00  0.00    +0.111 C 
ATOM     16  C   UNL     1       3.140   0.836  15.014  0.00  0.00    +0.027 C 
ATOM     17  C   UNL     1       4.443   0.834  15.817  0.00  0.00    +0.002 C 
ATOM     18  C   UNL     1       4.817   2.271  16.186  0.00  0.00    +0.000 C 
ATOM     19  C   UNL     1       5.006   3.092  14.909  0.00  0.00    +0.002 C 
ATOM     20  C   UNL     1       3.703   3.094  14.106  0.00  0.00    +0.027 C 
ENDBRANCH  14  15
ENDBRANCH   9  10
BRANCH   9  22
ATOM     21  C   UNL     1       3.926  -1.581  10.027  0.00  0.00    +0.002 C 
ATOM     22  C   UNL     1       2.745  -0.930  10.749  0.00  0.00    -0.011 C 
ENDBRANCH   9  22
ENDBRANCH   1   9
BRANCH   1  23
ATOM     23  C   UNL     1       1.793   0.562   8.720  0.00  0.00    -0.036 C 
BRANCH  23  24
ATOM     24  C   UNL     1       1.462   1.442   7.542  0.00  0.00    +0.001 A 
ATOM     25  C   UNL     1       1.882   1.093   6.299  0.00  0.00    +0.017 A 
ATOM     26  C   UNL     1       1.545   1.968   5.176  0.00  0.00    -0.001 A 
ATOM     27  C   UNL     1       1.952   1.660   3.872  0.00  0.00    +0.013 A 
ATOM     28  C   UNL     1       1.618   2.491   2.844  0.00  0.00    +0.046 A 
ATOM     29  C   UNL     1       0.884   3.653   3.082  0.00  0.00    +0.122 A 
ATOM     30  C   UNL     1       0.474   3.976   4.364  0.00  0.00    +0.072 A 
ATOM     31  C   UNL     1       0.799   3.138   5.423  0.00  0.00    +0.053 A 
ATOM     32  N   UNL     1       0.404   3.435   6.710  0.00  0.00    -0.322 N 
ATOM     33  H   UNL     1      -0.110   4.240   6.878  0.00  0.00    +0.169 HD
ATOM     34  C   UNL     1       0.718   2.623   7.735  0.00  0.00    +0.251 A 
ATOM     35  O   UNL     1       0.352   2.917   8.860  0.00  0.00    -0.268 OA
BRANCH  29  36
ATOM     36  O   UNL     1       0.566   4.472   2.048  0.00  0.00    -0.495 OA
ATOM     37  C   UNL     1       1.019   4.083   0.749  0.00  0.00    +0.277 C 
ENDBRANCH  29  36
ENDBRANCH  23  24
ENDBRANCH   1  23
TORSDOF 8
