REMARK  Name = ZINC32104144
REMARK  5 active torsions:
REMARK  status: ('A' for Active; 'I' for Inactive)
REMARK    1  A    between atoms: C_4  and  C_7
REMARK    2  A    between atoms: C_11  and  C_12
REMARK    3  A    between atoms: C_17  and  O_19
REMARK    4  A    between atoms: N_26  and  C_29
REMARK    5  A    between atoms: C_29  and  C_30
REMARK                            x       y       z     vdW  Elec       q    Type
REMARK                         _______ _______ _______ _____ _____    ______ ____
ROOT
ATOM      1  C   UNL     1       3.696  -0.685  -0.038  0.00  0.00    +0.029 A 
ATOM      2  C   UNL     1       4.091  -1.473  -1.123  0.00  0.00    +0.087 A 
ATOM      3  C   UNL     1       5.330  -2.091  -1.016  0.00  0.00    +0.036 A 
ATOM      4  S   UNL     1       5.938  -1.648   0.466  0.00  0.00    -0.082 S 
ATOM      5  C   UNL     1       4.599  -0.612   1.028  0.00  0.00    +0.110 A 
ATOM      6  C   UNL     1       5.917  -2.962  -2.079  0.00  0.00    +0.115 C 
ATOM      7  C   UNL     1       5.369  -2.513  -3.435  0.00  0.00    +0.121 C 
ATOM      8  C   UNL     1       3.911  -2.169  -3.334  0.00  0.00    +0.189 C 
ATOM      9  N   UNL     1       3.345  -1.683  -2.280  0.00  0.00    -0.216 NA
ATOM     10  C   UNL     1       5.624  -4.408  -1.834  0.00  0.00    -0.006 A 
ATOM     11  C   UNL     1       4.434  -5.096  -1.736  0.00  0.00    +0.007 A 
ATOM     12  C   UNL     1       4.514  -6.463  -1.496  0.00  0.00    +0.000 A 
ATOM     13  C   UNL     1       5.732  -7.099  -1.363  0.00  0.00    +0.002 A 
ATOM     14  C   UNL     1       6.933  -6.415  -1.462  0.00  0.00    +0.024 A 
ATOM     15  C   UNL     1       6.867  -5.041  -1.703  0.00  0.00    +0.041 A 
ATOM     16  N   UNL     1       7.892  -4.124  -1.847  0.00  0.00    -0.261 N 
ATOM     17  C   UNL     1       7.427  -2.876  -2.073  0.00  0.00    +0.236 C 
ATOM     18  O   UNL     1       8.094  -1.877  -2.240  0.00  0.00    -0.274 OA
ENDROOT
BRANCH   1  22
ATOM     19  C   UNL     1      -0.017   1.379   0.010  0.00  0.00    +0.000 A 
ATOM     20  C   UNL     1       1.168   2.093   0.002  0.00  0.00    +0.001 A 
ATOM     21  C   UNL     1       2.377   1.429  -0.013  0.00  0.00    +0.008 A 
ATOM     22  C   UNL     1       2.403   0.034  -0.021  0.00  0.00    -0.015 A 
ATOM     23  C   UNL     1       1.204  -0.680  -0.013  0.00  0.00    +0.008 A 
ATOM     24  C   UNL     1       0.002  -0.004   0.002  0.00  0.00    +0.001 A 
ENDBRANCH   1  22
BRANCH   5  25
ATOM     25  C   UNL     1       4.479   0.100   2.244  0.00  0.00    +0.394 C 
ATOM     26  O   UNL     1       3.475   0.767   2.466  0.00  0.00    -0.240 OA
ATOM     27  O   UNL     1       5.378   0.049   3.075  0.00  0.00    -0.240 OA
ENDBRANCH   5  25
BRANCH   8  28
ATOM     28  O   UNL     1       3.138  -2.382  -4.420  0.00  0.00    -0.495 OA
ATOM     29  H   UNL     1       2.209  -2.142  -4.296  0.00  0.00    +0.293 HD
ENDBRANCH   8  28
BRANCH  16  30
ATOM     30  C   UNL     1       9.315  -4.465  -1.765  0.00  0.00    +0.209 C 
BRANCH  30  31
ATOM     31  C   UNL     1       9.824  -4.827  -3.136  0.00  0.00    +0.228 C 
ATOM     32  O   UNL     1       9.073  -4.802  -4.089  0.00  0.00    -0.274 OA
ATOM     33  N   UNL     1      11.114  -5.178  -3.305  0.00  0.00    -0.328 N 
ATOM     34  H   UNL     1      11.715  -5.198  -2.543  0.00  0.00    +0.145 HD
ATOM     35  H   UNL     1      11.443  -5.412  -4.187  0.00  0.00    +0.145 HD
ENDBRANCH  30  31
ENDBRANCH  16  30
TORSDOF 5
