REMARK  Name = ZINC35065897
REMARK  11 active torsions:
REMARK  status: ('A' for Active; 'I' for Inactive)
REMARK    1  A    between atoms: C_1  and  C_2
REMARK    2  A    between atoms: C_6  and  N_8
REMARK    3  A    between atoms: C_18  and  C_19
REMARK    4  A    between atoms: C_19  and  C_21
REMARK    5  A    between atoms: C_19  and  N_22
REMARK    6  A    between atoms: N_22  and  C_23
REMARK    7  A    between atoms: C_23  and  C_24
REMARK    8  A    between atoms: C_24  and  N_25
REMARK    9  A    between atoms: N_25  and  C_26
REMARK   10  A    between atoms: N_25  and  C_27
REMARK   11  A    between atoms: N_30  and  C_31
REMARK                            x       y       z     vdW  Elec       q    Type
REMARK                         _______ _______ _______ _____ _____    ______ ____
ROOT
ATOM      1  C   UNL     1       0.037  -4.638   0.930  0.00  0.00    +0.141 C 
ATOM      2  C   UNL     1      -1.039  -3.985   0.059  0.00  0.00    +0.036 C 
ENDROOT
BRANCH   1  13
ATOM      3  N   UNL     1       1.173  -3.469   2.777  0.00  0.00    -0.263 N 
ATOM      4  C   UNL     1       1.208  -2.891   4.001  0.00  0.00    +0.266 A 
ATOM      5  O   UNL     1       2.231  -2.396   4.437  0.00  0.00    -0.267 OA
ATOM      6  C   UNL     1      -0.037  -2.883   4.782  0.00  0.00    +0.065 A 
ATOM      7  C   UNL     1      -0.107  -2.313   6.052  0.00  0.00    +0.015 A 
ATOM      8  C   UNL     1      -1.300  -2.334   6.740  0.00  0.00    +0.001 A 
ATOM      9  C   UNL     1      -2.429  -2.916   6.179  0.00  0.00    +0.002 A 
ATOM     10  C   UNL     1      -2.381  -3.485   4.927  0.00  0.00    +0.028 A 
ATOM     11  C   UNL     1      -1.184  -3.477   4.208  0.00  0.00    +0.078 A 
ATOM     12  N   UNL     1      -1.092  -4.025   2.971  0.00  0.00    -0.231 NA
ATOM     13  C   UNL     1       0.020  -4.012   2.301  0.00  0.00    +0.138 A 
BRANCH   3  19
ATOM     14  C   UNL     1       3.896  -1.539  -0.835  0.00  0.00    +0.044 C 
ATOM     15  C   UNL     1       3.677  -2.579   0.234  0.00  0.00    -0.048 A 
ATOM     16  C   UNL     1       4.621  -3.569   0.439  0.00  0.00    +0.003 A 
ATOM     17  C   UNL     1       4.424  -4.524   1.419  0.00  0.00    +0.002 A 
ATOM     18  C   UNL     1       3.282  -4.494   2.195  0.00  0.00    +0.026 A 
ATOM     19  C   UNL     1       2.332  -3.502   1.992  0.00  0.00    +0.051 A 
ATOM     20  C   UNL     1       2.536  -2.540   1.011  0.00  0.00    +0.029 A 
ENDBRANCH   3  19
ENDBRANCH   1  13
BRANCH   1  21
ATOM     21  N   UNL     1      -0.232  -6.073   1.045  0.00  0.00    -0.277 N 
ATOM     22  C   UNL     1       0.680  -6.966   0.611  0.00  0.00    +0.307 C 
ATOM     23  O   UNL     1       1.725  -6.580   0.125  0.00  0.00    -0.252 OA
ATOM     24  N   UNL     1       0.433  -8.287   0.717  0.00  0.00    -0.269 N 
ATOM     25  H   UNL     1      -0.370  -8.596   1.164  0.00  0.00    +0.156 HD
BRANCH  24  26
ATOM     26  C   UNL     1       1.335  -9.213   0.180  0.00  0.00    +0.035 A 
ATOM     27  C   UNL     1       0.868 -10.390  -0.389  0.00  0.00    +0.025 A 
ATOM     28  C   UNL     1       1.760 -11.302  -0.918  0.00  0.00    +0.022 A 
ATOM     29  C   UNL     1       3.119 -11.043  -0.880  0.00  0.00    +0.041 A 
ATOM     30  C   UNL     1       3.588  -9.871  -0.313  0.00  0.00    +0.022 A 
ATOM     31  C   UNL     1       2.699  -8.953   0.211  0.00  0.00    +0.025 A 
ATOM     32 CL   UNL     1       4.238 -12.191  -1.546  0.00  0.00    -0.084 Cl
ENDBRANCH  24  26
BRANCH  21  33
ATOM     33  C   UNL     1      -1.492  -6.538   1.631  0.00  0.00    +0.091 C 
BRANCH  33  34
ATOM     34  C   UNL     1      -2.542  -6.690   0.528  0.00  0.00    -0.060 C 
BRANCH  34  35
ATOM     35  N   UNL     1      -3.805  -7.156   1.116  0.00  0.00    +0.377 N 
ATOM     36  C   UNL     1      -4.845  -7.188   0.079  0.00  0.00    -0.097 C 
ATOM     37  C   UNL     1      -3.620  -8.506   1.665  0.00  0.00    -0.097 C 
ATOM     38  H   UNL     1      -4.084  -6.528   1.854  0.00  0.00    -0.083 HD
ENDBRANCH  34  35
ENDBRANCH  33  34
ENDBRANCH  21  33
ENDBRANCH   1  21
TORSDOF 7
