REMARK  Name = ZINC09211140
REMARK  9 active torsions:
REMARK  status: ('A' for Active; 'I' for Inactive)
REMARK    1  A    between atoms: C_1  and  C_2
REMARK    2  A    between atoms: C_2  and  C_3
REMARK    3  A    between atoms: C_2  and  N_4
REMARK    4  A    between atoms: N_4  and  C_5
REMARK    5  A    between atoms: N_4  and  C_31
REMARK    6  A    between atoms: C_5  and  C_6
REMARK    7  A    between atoms: C_6  and  N_7
REMARK    8  A    between atoms: C_8  and  C_10
REMARK    9  A    between atoms: C_31  and  C_32
REMARK                            x       y       z     vdW  Elec       q    Type
REMARK                         _______ _______ _______ _____ _____    ______ ____
ROOT
ATOM      1  C   UNL     1      -0.978  -6.413   3.210  0.00  0.00    +0.092 C 
ATOM      2  C   UNL     1      -2.416  -6.879   2.973  0.00  0.00    +0.016 C 
ATOM      3  C   UNL     1      -2.443  -8.403   2.835  0.00  0.00    +0.020 C 
ATOM      4  C   UNL     1      -1.938  -9.038   4.135  0.00  0.00    +0.106 C 
ATOM      5  N   UNL     1      -0.613  -8.485   4.447  0.00  0.00    -0.313 N 
ATOM      6  C   UNL     1      -0.454  -7.025   4.513  0.00  0.00    +0.119 C 
ATOM      7  C   UNL     1       0.465  -9.322   4.675  0.00  0.00    +0.152 A 
ATOM      8  C   UNL     1       0.346 -10.711   4.501  0.00  0.00    +0.148 A 
ATOM      9  C   UNL     1       1.475 -11.510   4.748  0.00  0.00    +0.166 A 
ATOM     10  N   UNL     1       2.607 -10.927   5.132  0.00  0.00    -0.216 NA
ATOM     11  C   UNL     1       2.672  -9.621   5.282  0.00  0.00    +0.225 A 
ATOM     12  N   UNL     1       1.639  -8.830   5.058  0.00  0.00    -0.218 NA
ATOM     13  N   UNL     1       1.083 -12.802   4.509  0.00  0.00    -0.312 N 
ATOM     14  C   UNL     1      -0.226 -12.772   4.126  0.00  0.00    +0.112 A 
ATOM     15  N   UNL     1      -0.656 -11.542   4.127  0.00  0.00    -0.227 NA
ATOM     16  C   UNL     1      -1.046 -13.982   3.748  0.00  0.00    +0.074 C 
ATOM     17  C   UNL     1      -0.838 -15.082   4.792  0.00  0.00    +0.008 C 
ATOM     18  C   UNL     1       0.361 -15.939   4.398  0.00  0.00    +0.002 C 
ATOM     19  C   UNL     1       1.417 -15.088   3.696  0.00  0.00    +0.022 C 
ATOM     20  C   UNL     1       1.917 -14.000   4.649  0.00  0.00    +0.125 C 
ENDROOT
BRANCH   1  22
ATOM     21  N   UNL     1      -1.365  -4.155   2.278  0.00  0.00    -0.317 N 
ATOM     22  C   UNL     1      -0.947  -4.910   3.313  0.00  0.00    +0.218 C 
ATOM     23  O   UNL     1      -0.545  -4.379   4.327  0.00  0.00    -0.275 OA
ATOM     24  H   UNL     1      -1.686  -4.579   1.467  0.00  0.00    +0.149 HD
BRANCH  21  25
ATOM     25  C   UNL     1      -1.335  -2.694   2.378  0.00  0.00    +0.085 C 
BRANCH  25  26
ATOM     26  C   UNL     1      -1.859  -2.083   1.077  0.00  0.00    -0.059 C 
BRANCH  26  27
ATOM     27  N   UNL     1      -1.854  -0.618   1.186  0.00  0.00    +0.385 N 
ATOM     28  H   UNL     1      -2.380  -0.340   2.001  0.00  0.00    -0.081 HD
BRANCH  27  30
ATOM     29  C   UNL     1       0.265  -0.358  -0.014  0.00  0.00    -0.014 C 
ATOM     30  C   UNL     1      -0.470  -0.141   1.311  0.00  0.00    -0.074 C 
ATOM     31  C   UNL     1      -0.474   1.350   1.654  0.00  0.00    -0.014 C 
ENDBRANCH  27  30
BRANCH  27  32
ATOM     32  C   UNL     1      -2.467  -0.035  -0.014  0.00  0.00    -0.043 C 
BRANCH  32  33
ATOM     33  C   UNL     1      -2.656   1.447   0.187  0.00  0.00    -0.064 A 
ATOM     34  C   UNL     1      -3.341   1.912   1.295  0.00  0.00    +0.002 A 
ATOM     35  C   UNL     1      -3.514   3.271   1.480  0.00  0.00    +0.000 A 
ATOM     36  C   UNL     1      -3.003   4.165   0.557  0.00  0.00    +0.000 A 
ATOM     37  C   UNL     1      -2.318   3.700  -0.549  0.00  0.00    +0.000 A 
ATOM     38  C   UNL     1      -2.141   2.341  -0.732  0.00  0.00    +0.002 A 
ENDBRANCH  32  33
ENDBRANCH  27  32
ENDBRANCH  26  27
ENDBRANCH  25  26
ENDBRANCH  21  25
ENDBRANCH   1  22
TORSDOF 7
