REMARK  Name = ZINC16807955
REMARK  10 active torsions:
REMARK  status: ('A' for Active; 'I' for Inactive)
REMARK    1  A    between atoms: C_1  and  C_2
REMARK    2  A    between atoms: C_2  and  O_3
REMARK    3  A    between atoms: O_3  and  C_4
REMARK    4  A    between atoms: C_7  and  N_10
REMARK    5  A    between atoms: C_11  and  C_32
REMARK    6  A    between atoms: C_14  and  S_15
REMARK    7  A    between atoms: S_15  and  C_16
REMARK    8  A    between atoms: C_16  and  C_17
REMARK    9  A    between atoms: N_19  and  N_20
REMARK   10  A    between atoms: C_21  and  C_22
REMARK                            x       y       z     vdW  Elec       q    Type
REMARK                         _______ _______ _______ _____ _____    ______ ____
ROOT
ATOM      1  N   UNL     1      -2.321  -3.359   0.043  0.00  0.00    -0.270 N 
ATOM      2  C   UNL     1      -1.611  -4.539   0.021  0.00  0.00    +0.171 A 
ATOM      3  N   UNL     1      -0.337  -4.222   0.002  0.00  0.00    -0.128 NA
ATOM      4  N   UNL     1      -0.202  -2.944   0.006  0.00  0.00    -0.122 NA
ATOM      5  C   UNL     1      -1.382  -2.365   0.028  0.00  0.00    +0.197 A 
ENDROOT
BRANCH   1   9
ATOM      6  C   UNL     1      -6.468  -2.913   0.132  0.00  0.00    +0.121 A 
ATOM      7  C   UNL     1      -5.747  -2.478  -0.971  0.00  0.00    +0.047 A 
ATOM      8  C   UNL     1      -4.374  -2.625  -1.001  0.00  0.00    +0.030 A 
ATOM      9  C   UNL     1      -3.716  -3.209   0.073  0.00  0.00    +0.051 A 
ATOM     10  C   UNL     1      -4.438  -3.648   1.174  0.00  0.00    +0.030 A 
ATOM     11  C   UNL     1      -5.810  -3.496   1.205  0.00  0.00    +0.047 A 
BRANCH   6  12
ATOM     12  O   UNL     1      -7.819  -2.767   0.160  0.00  0.00    -0.492 OA
BRANCH  12  14
ATOM     13  C   UNL     1     -10.000  -2.990   1.177  0.00  0.00    +0.048 C 
ATOM     14  C   UNL     1      -8.498  -3.237   1.327  0.00  0.00    +0.225 C 
ENDBRANCH  12  14
ENDBRANCH   6  12
ENDBRANCH   1   9
BRANCH   2  15
ATOM     15  C   UNL     1      -2.176  -5.905   0.024  0.00  0.00    +0.038 A 
ATOM     16  C   UNL     1      -1.367  -7.010   0.318  0.00  0.00    +0.014 A 
ATOM     17  C   UNL     1      -1.945  -8.267   0.307  0.00  0.00    +0.020 A 
ATOM     18  C   UNL     1      -3.291  -8.391   0.010  0.00  0.00    +0.111 A 
ATOM     19  N   UNL     1      -4.028  -7.332  -0.264  0.00  0.00    -0.263 NA
ATOM     20  C   UNL     1      -3.526  -6.115  -0.261  0.00  0.00    +0.122 A 
ENDBRANCH   2  15
BRANCH   5  21
ATOM     21  S   UNL     1      -1.696  -0.631   0.042  0.00  0.00    -0.076 S 
BRANCH  21  22
ATOM     22  C   UNL     1       0.002  -0.004   0.018  0.00  0.00    +0.174 C 
BRANCH  22  23
ATOM     23  C   UNL     1      -0.018   1.503   0.026  0.00  0.00    +0.242 C 
ATOM     24  O   UNL     1      -1.077   2.095   0.041  0.00  0.00    -0.273 OA
ATOM     25  N   UNL     1       1.140   2.192   0.011  0.00  0.00    -0.206 N 
ATOM     26  H   UNL     1       1.986   1.719  -0.006  0.00  0.00    +0.177 HD
BRANCH  25  27
ATOM     27  N   UNL     1       1.121   3.593   0.018  0.00  0.00    -0.188 NA
ATOM     28  C   UNL     1       2.237   4.258   0.004  0.00  0.00    +0.139 C 
BRANCH  28  29
ATOM     29  C   UNL     1       2.217   5.729   0.012  0.00  0.00    +0.002 A 
ATOM     30  C   UNL     1       3.398   6.454   0.108  0.00  0.00    +0.010 A 
ATOM     31  C   UNL     1       3.376   7.842   0.116  0.00  0.00    +0.001 A 
ATOM     32  C   UNL     1       2.212   8.542   0.030  0.00  0.00    +0.008 A 
ATOM     33  C   UNL     1       0.980   7.875  -0.070  0.00  0.00    -0.017 A 
ATOM     34  C   UNL     1       0.954   6.459  -0.088  0.00  0.00    -0.009 A 
ATOM     35  C   UNL     1      -0.272   5.790  -0.182  0.00  0.00    +0.009 A 
ATOM     36  C   UNL     1      -1.427   6.509  -0.266  0.00  0.00    +0.001 A 
ATOM     37  C   UNL     1      -1.405   7.902  -0.255  0.00  0.00    +0.001 A 
ATOM     38  C   UNL     1      -0.230   8.584  -0.159  0.00  0.00    +0.008 A 
ENDBRANCH  28  29
ENDBRANCH  25  27
ENDBRANCH  22  23
ENDBRANCH  21  22
ENDBRANCH   5  21
TORSDOF 9
