REMARK  Name = ZINC02558499
REMARK  9 active torsions:
REMARK  status: ('A' for Active; 'I' for Inactive)
REMARK    1  A    between atoms: C_1  and  C_2
REMARK    2  A    between atoms: C_2  and  C_3
REMARK    3  A    between atoms: C_3  and  C_4
REMARK    4  A    between atoms: C_3  and  C_5
REMARK    5  A    between atoms: C_3  and  C_6
REMARK    6  A    between atoms: C_13  and  N_25
REMARK    7  A    between atoms: C_14  and  C_15
REMARK    8  A    between atoms: N_17  and  C_18
REMARK    9  A    between atoms: C_18  and  C_19
REMARK                            x       y       z     vdW  Elec       q    Type
REMARK                         _______ _______ _______ _____ _____    ______ ____
ROOT
ATOM      1  C   UNL     1      -3.783  -0.577   5.842  0.00  0.00    -0.000 C 
ATOM      2  C   UNL     1      -3.832  -0.712   4.317  0.00  0.00    +0.009 C 
ATOM      3  C   UNL     1      -2.454  -0.417   3.724  0.00  0.00    +0.037 C 
ATOM      4  C   UNL     1      -1.968   0.926   4.255  0.00  0.00    -0.023 A 
ATOM      5  C   UNL     1      -2.512   1.474   5.362  0.00  0.00    -0.004 A 
ATOM      6  S   UNL     1      -1.649   3.003   5.583  0.00  0.00    -0.078 S 
ATOM      7  C   UNL     1      -0.573   2.916   4.228  0.00  0.00    +0.076 A 
ATOM      8  C   UNL     1      -0.907   1.705   3.636  0.00  0.00    +0.068 A 
ATOM      9  C   UNL     1      -3.610   0.903   6.207  0.00  0.00    +0.046 C 
ENDROOT
BRANCH   8  10
ATOM     10  C   UNL     1      -0.222   1.232   2.431  0.00  0.00    +0.247 C 
ATOM     11  O   UNL     1       0.778   0.545   2.530  0.00  0.00    -0.270 OA
ATOM     12  N   UNL     1      -0.698   1.558   1.213  0.00  0.00    -0.307 N 
ATOM     13  H   UNL     1      -1.495   2.106   1.135  0.00  0.00    +0.149 HD
BRANCH  12  14
ATOM     14  C   UNL     1      -0.013   1.086   0.008  0.00  0.00    +0.139 C 
BRANCH  14  15
ATOM     15  C   UNL     1      -0.742   1.585  -1.213  0.00  0.00    -0.030 A 
ATOM     16  C   UNL     1      -1.750   0.825  -1.775  0.00  0.00    +0.005 A 
ATOM     17  C   UNL     1      -2.422   1.285  -2.892  0.00  0.00    +0.000 A 
ATOM     18  C   UNL     1      -2.078   2.501  -3.453  0.00  0.00    +0.000 A 
ATOM     19  C   UNL     1      -1.066   3.259  -2.894  0.00  0.00    +0.000 A 
ATOM     20  C   UNL     1      -0.398   2.801  -1.774  0.00  0.00    +0.005 A 
ENDBRANCH  14  15
ENDBRANCH  12  14
ENDBRANCH   8  10
BRANCH   1  21
ATOM     21  C   UNL     1      -5.083  -1.108   6.447  0.00  0.00    -0.032 C 
ATOM     22  C   UNL     1      -6.265  -0.303   5.903  0.00  0.00    +0.011 C 
ATOM     23  C   UNL     1      -5.255  -2.582   6.073  0.00  0.00    +0.011 C 
BRANCH  21  25
ATOM     24  C   UNL     1      -6.332  -1.503   8.575  0.00  0.00    +0.004 C 
ATOM     25  C   UNL     1      -5.031  -0.971   7.970  0.00  0.00    +0.003 C 
ENDBRANCH  21  25
ENDBRANCH   1  21
BRANCH   7  26
ATOM     26  N   UNL     1       0.385   3.830   3.832  0.00  0.00    -0.352 N 
ATOM     27  H   UNL     1       0.926   3.656   3.045  0.00  0.00    +0.143 HD
ATOM     28  H   UNL     1       0.518   4.645   4.340  0.00  0.00    +0.143 HD
ENDBRANCH   7  26
TORSDOF 6
