REMARK  Name = ZINC36071753
REMARK  14 active torsions:
REMARK  status: ('A' for Active; 'I' for Inactive)
REMARK    1  A    between atoms: C_1  and  C_2
REMARK    2  A    between atoms: C_3  and  C_32
REMARK    3  A    between atoms: C_4  and  C_22
REMARK    4  A    between atoms: C_7  and  C_12
REMARK    5  A    between atoms: C_13  and  N_15
REMARK    6  A    between atoms: N_18  and  C_21
REMARK    7  A    between atoms: C_24  and  O_30
REMARK    8  A    between atoms: C_27  and  O_28
REMARK    9  A    between atoms: O_28  and  C_29
REMARK   10  A    between atoms: O_30  and  C_31
REMARK   11  A    between atoms: C_32  and  O_34
REMARK   12  A    between atoms: O_34  and  C_35
REMARK   13  A    between atoms: C_35  and  C_36
REMARK   14  A    between atoms: C_35  and  C_37
REMARK                            x       y       z     vdW  Elec       q    Type
REMARK                         _______ _______ _______ _____ _____    ______ ____
ROOT
ATOM      1  C   UNL     1       1.450   1.425  -0.341  0.00  0.00    +0.066 C 
ATOM      2  C   UNL     1       1.020  -0.018  -0.271  0.00  0.00    +0.053 C 
ATOM      3  C   UNL     1      -0.322  -0.338  -0.355  0.00  0.00    +0.083 C 
ATOM      4  C   UNL     1      -0.703  -1.800  -0.280  0.00  0.00    +0.153 C 
ATOM      5  N   UNL     1       0.403  -2.781  -0.120  0.00  0.00    -0.267 N 
ATOM      6  C   UNL     1       0.290  -4.154  -0.030  0.00  0.00    +0.048 C 
ATOM      7  C   UNL     1       1.427  -4.869   0.113  0.00  0.00    +0.072 C 
ATOM      8  S   UNL     1       2.668  -3.590   0.120  0.00  0.00    -0.060 S 
ATOM      9  C   UNL     1       1.664  -2.257  -0.057  0.00  0.00    +0.166 C 
ATOM     10  N   UNL     1       1.929  -0.969  -0.134  0.00  0.00    -0.230 NA
ENDROOT
BRANCH   4  11
ATOM     11  C   UNL     1      -1.454  -2.149  -1.539  0.00  0.00    +0.023 A 
ATOM     12  C   UNL     1      -2.822  -2.332  -1.500  0.00  0.00    +0.055 A 
ATOM     13  C   UNL     1      -3.513  -2.653  -2.659  0.00  0.00    +0.121 A 
ATOM     14  C   UNL     1      -2.829  -2.790  -3.858  0.00  0.00    +0.049 A 
ATOM     15  C   UNL     1      -1.461  -2.607  -3.897  0.00  0.00    +0.049 A 
ATOM     16  C   UNL     1      -0.771  -2.281  -2.739  0.00  0.00    +0.126 A 
BRANCH  16  17
ATOM     17  O   UNL     1       0.576  -2.095  -2.779  0.00  0.00    -0.495 OA
ATOM     18  C   UNL     1       1.199  -2.141  -4.064  0.00  0.00    +0.277 C 
ENDBRANCH  16  17
BRANCH  13  19
ATOM     19  O   UNL     1      -4.860  -2.834  -2.620  0.00  0.00    -0.495 OA
ATOM     20  C   UNL     1      -5.506  -3.162  -3.851  0.00  0.00    +0.277 C 
ENDBRANCH  13  19
ENDBRANCH   4  11
BRANCH   6  21
ATOM     21  C   UNL     1      -1.022  -4.815  -0.087  0.00  0.00    +0.091 C 
ATOM     22  C   UNL     1      -1.119  -6.139   0.136  0.00  0.00    +0.241 C 
ATOM     23  O   UNL     1       0.002  -6.882   0.303  0.00  0.00    -0.271 OA
BRANCH  22  24
ATOM     24  N   UNL     1      -2.364  -6.742   0.193  0.00  0.00    -0.302 N 
ATOM     25  C   UNL     1      -3.495  -6.219  -0.588  0.00  0.00    +0.089 C 
ATOM     26  C   UNL     1      -4.130  -7.379  -1.362  0.00  0.00    -0.060 C 
ATOM     27  N   UNL     1      -4.485  -8.454  -0.426  0.00  0.00    +0.380 N 
ATOM     28  C   UNL     1      -3.270  -9.005   0.187  0.00  0.00    -0.060 C 
ATOM     29  C   UNL     1      -2.592  -7.929   1.033  0.00  0.00    +0.089 C 
ATOM     30  C   UNL     1      -5.192  -9.518  -1.152  0.00  0.00    -0.096 C 
ATOM     31  H   UNL     1      -5.087  -8.085   0.295  0.00  0.00    -0.082 HD
ENDBRANCH  22  24
ENDBRANCH   6  21
BRANCH   3  32
ATOM     32  C   UNL     1      -1.295   0.657  -0.505  0.00  0.00    +0.339 C 
ATOM     33  O   UNL     1      -0.973   1.832  -0.494  0.00  0.00    -0.245 OA
BRANCH  32  34
ATOM     34  O   UNL     1      -2.593   0.314  -0.661  0.00  0.00    -0.459 OA
BRANCH  34  35
ATOM     35  C   UNL     1      -3.518   1.373  -0.916  0.00  0.00    +0.171 C 
ATOM     36  C   UNL     1      -3.671   1.564  -2.426  0.00  0.00    +0.052 C 
ATOM     37  C   UNL     1      -4.876   1.022  -0.306  0.00  0.00    +0.052 C 
ENDBRANCH  34  35
ENDBRANCH  32  34
ENDBRANCH   3  32
TORSDOF 8
