REMARK  Name = ZINC40983432
REMARK  16 active torsions:
REMARK  status: ('A' for Active; 'I' for Inactive)
REMARK    1  A    between atoms: C_1  and  C_2
REMARK    2  A    between atoms: C_2  and  C_3
REMARK    3  A    between atoms: C_3  and  C_4
REMARK    4  A    between atoms: C_4  and  S_5
REMARK    5  A    between atoms: S_5  and  C_6
REMARK    6  A    between atoms: C_11  and  C_23
REMARK    7  A    between atoms: C_17  and  C_21
REMARK    8  A    between atoms: C_17  and  C_22
REMARK    9  A    between atoms: C_26  and  O_31
REMARK   10  A    between atoms: C_27  and  O_29
REMARK   11  A    between atoms: O_29  and  C_30
REMARK   12  A    between atoms: O_31  and  C_32
REMARK   13  A    between atoms: C_32  and  C_33
REMARK   14  A    between atoms: C_33  and  C_34
REMARK   15  A    between atoms: C_34  and  C_35
REMARK   16  A    between atoms: C_34  and  C_36
REMARK                            x       y       z     vdW  Elec       q    Type
REMARK                         _______ _______ _______ _____ _____    ______ ____
ROOT
ATOM      1  C   UNL     1      -2.923  -4.443   0.006  0.00  0.00    +0.210 A 
ATOM      2  N   UNL     1      -1.753  -5.098  -0.003  0.00  0.00    -0.187 NA
ATOM      3  C   UNL     1      -1.973  -6.384  -0.007  0.00  0.00    +0.219 A 
ATOM      4  N   UNL     1      -3.315  -6.582  -0.006  0.00  0.00    -0.220 N 
ATOM      5  N   UNL     1      -3.904  -5.319   0.011  0.00  0.00    -0.141 NA
ATOM      6  C   UNL     1      -3.930  -7.903  -0.019  0.00  0.00    +0.176 C 
ATOM      7  C   UNL     1      -2.898  -8.959   0.310  0.00  0.00    +0.041 C 
ATOM      8  C   UNL     1      -1.573  -8.697   0.292  0.00  0.00    +0.020 C 
ATOM      9  N   UNL     1      -1.086  -7.448  -0.009  0.00  0.00    -0.287 N 
ATOM     10  C   UNL     1      -0.565  -9.778   0.600  0.00  0.00    +0.058 C 
ATOM     11  C   UNL     1      -1.161 -10.766   1.606  0.00  0.00    -0.023 C 
ATOM     12  C   UNL     1      -2.438 -11.359   1.000  0.00  0.00    +0.086 C 
ATOM     13  C   UNL     1      -3.375 -10.239   0.642  0.00  0.00    +0.164 C 
ATOM     14  O   UNL     1      -4.573 -10.446   0.640  0.00  0.00    -0.292 OA
ATOM     15  C   UNL     1      -0.157 -11.884   1.888  0.00  0.00    +0.011 C 
ATOM     16  C   UNL     1      -1.500 -10.035   2.907  0.00  0.00    +0.011 C 
ATOM     17  H   UNL     1      -0.148  -7.315  -0.217  0.00  0.00    +0.155 HD
ENDROOT
BRANCH   6  18
ATOM     18  C   UNL     1      -4.502  -8.175  -1.386  0.00  0.00    -0.015 A 
ATOM     19  C   UNL     1      -3.672  -8.185  -2.492  0.00  0.00    +0.010 A 
ATOM     20  C   UNL     1      -4.192  -8.434  -3.748  0.00  0.00    +0.050 A 
ATOM     21  C   UNL     1      -5.548  -8.674  -3.902  0.00  0.00    +0.162 A 
ATOM     22  C   UNL     1      -6.383  -8.664  -2.789  0.00  0.00    +0.162 A 
ATOM     23  C   UNL     1      -5.855  -8.419  -1.532  0.00  0.00    +0.055 A 
BRANCH  22  24
ATOM     24  O   UNL     1      -7.715  -8.899  -2.935  0.00  0.00    -0.491 OA
ATOM     25  C   UNL     1      -8.512  -8.873  -1.749  0.00  0.00    +0.277 C 
ENDBRANCH  22  24
BRANCH  21  26
ATOM     26  O   UNL     1      -6.061  -8.918  -5.138  0.00  0.00    -0.488 OA
BRANCH  26  27
ATOM     27  C   UNL     1      -5.144  -8.912  -6.234  0.00  0.00    +0.229 C 
BRANCH  27  28
ATOM     28  C   UNL     1      -5.899  -9.204  -7.532  0.00  0.00    +0.044 C 
BRANCH  28  29
ATOM     29  C   UNL     1      -4.917  -9.198  -8.705  0.00  0.00    -0.014 C 
ATOM     30  C   UNL     1      -5.648  -9.612  -9.984  0.00  0.00    +0.007 C 
ATOM     31  C   UNL     1      -4.340  -7.792  -8.880  0.00  0.00    +0.007 C 
ENDBRANCH  28  29
ENDBRANCH  27  28
ENDBRANCH  26  27
ENDBRANCH  21  26
ENDBRANCH   6  18
BRANCH   1  32
ATOM     32  S   UNL     1      -3.114  -2.691   0.017  0.00  0.00    -0.084 S 
BRANCH  32  33
ATOM     33  C   UNL     1      -1.413  -2.063   0.004  0.00  0.00    +0.077 C 
BRANCH  33  34
ATOM     34  C   UNL     1      -1.433  -0.534   0.013  0.00  0.00    +0.011 C 
BRANCH  34  36
ATOM     35  C   UNL     1      -0.019   1.526   0.010  0.00  0.00    +0.004 C 
ATOM     36  C   UNL     1       0.002  -0.004   0.002  0.00  0.00    -0.003 C 
ENDBRANCH  34  36
ENDBRANCH  33  34
ENDBRANCH  32  33
ENDBRANCH   1  32
TORSDOF 10
