REMARK  Name = ZINC01856929
REMARK  11 active torsions:
REMARK  status: ('A' for Active; 'I' for Inactive)
REMARK    1  A    between atoms: C_1  and  O_2
REMARK    2  A    between atoms: O_2  and  C_3
REMARK    3  A    between atoms: C_6  and  C_11
REMARK    4  A    between atoms: C_8  and  O_9
REMARK    5  A    between atoms: O_9  and  C_10
REMARK    6  A    between atoms: C_14  and  S_22
REMARK    7  A    between atoms: N_15  and  C_16
REMARK    8  A    between atoms: S_22  and  C_23
REMARK    9  A    between atoms: C_23  and  C_24
REMARK   10  A    between atoms: N_26  and  N_27
REMARK   11  A    between atoms: C_28  and  C_29
REMARK                            x       y       z     vdW  Elec       q    Type
REMARK                         _______ _______ _______ _____ _____    ______ ____
ROOT
ATOM      1  C   UNL     1       7.886  11.826  -0.049  0.00  0.00    +0.169 A 
ATOM      2  N   UNL     1       8.266  10.578   0.097  0.00  0.00    -0.128 NA
ATOM      3  N   UNL     1       7.241   9.803   0.097  0.00  0.00    -0.122 NA
ATOM      4  C   UNL     1       6.141  10.508  -0.049  0.00  0.00    +0.197 A 
ATOM      5  N   UNL     1       6.512  11.821  -0.153  0.00  0.00    -0.270 N 
ENDROOT
BRANCH   1   9
ATOM      6  C   UNL     1      10.414  15.242  -0.191  0.00  0.00    +0.162 A 
ATOM      7  C   UNL     1       9.059  15.393   0.066  0.00  0.00    +0.050 A 
ATOM      8  C   UNL     1       8.236  14.286   0.113  0.00  0.00    +0.015 A 
ATOM      9  C   UNL     1       8.766  13.012  -0.099  0.00  0.00    +0.023 A 
ATOM     10  C   UNL     1      10.131  12.861  -0.352  0.00  0.00    +0.061 A 
ATOM     11  C   UNL     1      10.949  13.974  -0.404  0.00  0.00    +0.162 A 
BRANCH   6  13
ATOM     12  C   UNL     1      10.606  17.606  -0.009  0.00  0.00    +0.277 C 
ATOM     13  O   UNL     1      11.221  16.336  -0.236  0.00  0.00    -0.491 OA
ENDBRANCH   6  13
BRANCH  11  14
ATOM     14  O   UNL     1      12.278  13.831  -0.656  0.00  0.00    -0.491 OA
ATOM     15  C   UNL     1      12.758  12.501  -0.865  0.00  0.00    +0.277 C 
ENDBRANCH  11  14
ENDBRANCH   1   9
BRANCH   5  16
ATOM     16  C   UNL     1       5.671  12.928  -0.326  0.00  0.00    +0.051 A 
ATOM     17  C   UNL     1       5.697  13.643  -1.516  0.00  0.00    +0.026 A 
ATOM     18  C   UNL     1       4.863  14.731  -1.686  0.00  0.00    +0.002 A 
ATOM     19  C   UNL     1       4.010  15.115  -0.667  0.00  0.00    +0.000 A 
ATOM     20  C   UNL     1       3.985  14.409   0.521  0.00  0.00    +0.002 A 
ATOM     21  C   UNL     1       4.813  13.316   0.695  0.00  0.00    +0.026 A 
ENDBRANCH   5  16
BRANCH   4  22
ATOM     22  S   UNL     1       4.496   9.878  -0.107  0.00  0.00    -0.076 S 
BRANCH  22  23
ATOM     23  C   UNL     1       4.830   8.109   0.086  0.00  0.00    +0.174 C 
BRANCH  23  24
ATOM     24  C   UNL     1       3.530   7.348   0.065  0.00  0.00    +0.242 C 
ATOM     25  O   UNL     1       2.480   7.942  -0.068  0.00  0.00    -0.273 OA
ATOM     26  N   UNL     1       3.532   6.006   0.193  0.00  0.00    -0.206 N 
ATOM     27  H   UNL     1       4.371   5.531   0.299  0.00  0.00    +0.177 HD
BRANCH  26  28
ATOM     28  N   UNL     1       2.323   5.298   0.174  0.00  0.00    -0.188 NA
ATOM     29  C   UNL     1       2.326   4.007   0.297  0.00  0.00    +0.138 C 
BRANCH  29  30
ATOM     30  C   UNL     1       1.053   3.261   0.277  0.00  0.00    -0.004 A 
ATOM     31  C   UNL     1       1.052   1.871   0.409  0.00  0.00    +0.009 A 
ATOM     32  C   UNL     1      -0.141   1.180   0.389  0.00  0.00    +0.002 A 
ATOM     33  C   UNL     1      -1.336   1.859   0.232  0.00  0.00    +0.020 A 
ATOM     34  C   UNL     1      -1.344   3.238   0.105  0.00  0.00    +0.042 A 
ATOM     35  C   UNL     1      -0.156   3.943   0.124  0.00  0.00    +0.029 A 
ATOM     36 CL   UNL     1      -2.849   4.082  -0.085  0.00  0.00    -0.084 Cl
ENDBRANCH  29  30
ENDBRANCH  26  28
ENDBRANCH  23  24
ENDBRANCH  22  23
ENDBRANCH   4  22
TORSDOF 9
