REMARK  Name = ZINC41037164
REMARK  6 active torsions:
REMARK  status: ('A' for Active; 'I' for Inactive)
REMARK    1  A    between atoms: C_1  and  C_2
REMARK    2  A    between atoms: C_8  and  C_9
REMARK    3  A    between atoms: C_8  and  N_12
REMARK    4  A    between atoms: C_13  and  C_15
REMARK    5  A    between atoms: C_18  and  O_22
REMARK    6  A    between atoms: C_20  and  O_21
REMARK                            x       y       z     vdW  Elec       q    Type
REMARK                         _______ _______ _______ _____ _____    ______ ____
ROOT
ATOM      1  N   UNL     1       0.762  -1.976   1.234  0.00  0.00    -0.295 N 
ATOM      2  C   UNL     1       1.364  -2.647   2.235  0.00  0.00    +0.248 C 
ATOM      3  O   UNL     1       1.891  -2.037   3.146  0.00  0.00    -0.270 OA
ATOM      4  H   UNL     1       0.342  -2.462   0.507  0.00  0.00    +0.150 HD
ENDROOT
BRANCH   1  11
ATOM      5  C   UNL     1      -0.019   1.526   0.010  0.00  0.00    +0.010 C 
ATOM      6  C   UNL     1       0.002  -0.004   0.002  0.00  0.00    +0.020 C 
ATOM      7  C   UNL     1      -1.433  -0.534   0.013  0.00  0.00    +0.006 C 
ATOM      8  C   UNL     1      -2.149  -0.040   1.272  0.00  0.00    +0.000 C 
ATOM      9  C   UNL     1      -1.409  -0.547   2.511  0.00  0.00    +0.003 C 
ATOM     10  C   UNL     1       0.026  -0.018   2.500  0.00  0.00    +0.038 C 
ATOM     11  C   UNL     1       0.742  -0.511   1.242  0.00  0.00    +0.139 C 
BRANCH  11  12
ATOM     12  C   UNL     1       2.156   0.011   1.231  0.00  0.00    +0.379 C 
ATOM     13  O   UNL     1       2.362   1.212   1.235  0.00  0.00    -0.244 OA
ATOM     14  O   UNL     1       3.093  -0.769   1.218  0.00  0.00    -0.244 OA
ENDBRANCH  11  12
ENDBRANCH   1  11
BRANCH   2  15
ATOM     15  C   UNL     1       1.384  -4.120   2.227  0.00  0.00    +0.078 A 
ATOM     16  C   UNL     1       0.784  -4.824   1.178  0.00  0.00    +0.020 A 
ATOM     17  C   UNL     1       0.805  -6.200   1.174  0.00  0.00    +0.046 A 
ATOM     18  C   UNL     1       1.422  -6.894   2.211  0.00  0.00    +0.120 A 
ATOM     19  C   UNL     1       2.020  -6.206   3.256  0.00  0.00    +0.091 A 
ATOM     20  C   UNL     1       2.010  -4.822   3.268  0.00  0.00    +0.132 A 
BRANCH  20  21
ATOM     21  O   UNL     1       2.599  -4.146   4.286  0.00  0.00    -0.506 OA
ATOM     22  H   UNL     1       2.009  -3.963   5.030  0.00  0.00    +0.292 HD
ENDBRANCH  20  21
BRANCH  18  23
ATOM     23  O   UNL     1       1.438  -8.252   2.199  0.00  0.00    -0.507 OA
ATOM     24  H   UNL     1       2.205  -8.632   1.750  0.00  0.00    +0.292 HD
ENDBRANCH  18  23
ENDBRANCH   2  15
TORSDOF 5
