REMARK  Name = ZINC05940335
REMARK  3 active torsions:
REMARK  status: ('A' for Active; 'I' for Inactive)
REMARK    1  A    between atoms: N_3  and  C_6
REMARK    2  A    between atoms: C_12  and  N_17
REMARK    3  A    between atoms: C_18  and  C_20
REMARK                            x       y       z     vdW  Elec       q    Type
REMARK                         _______ _______ _______ _____ _____    ______ ____
ROOT
ATOM      1  C   UNL     1       5.632   3.070   0.044  0.00  0.00    +0.080 A 
ATOM      2  C   UNL     1       4.534   2.262   0.420  0.00  0.00    +0.052 A 
ATOM      3  C   UNL     1       3.515   2.071  -0.598  0.00  0.00    +0.007 A 
ATOM      4  C   UNL     1       3.720   2.682  -1.791  0.00  0.00    +0.062 A 
ATOM      5  S   UNL     1       5.272   3.521  -1.583  0.00  0.00    -0.066 S 
ATOM      6 BR   UNL     1       2.611   2.648  -3.322  0.00  0.00    -0.042 Br
ATOM      7  C   UNL     1       2.422   1.183  -0.015  0.00  0.00    +0.113 C 
ATOM      8  C   UNL     1       2.868   0.864   1.415  0.00  0.00    +0.107 C 
ATOM      9  C   UNL     1       4.183   1.566   1.611  0.00  0.00    +0.168 C 
ATOM     10  O   UNL     1       4.844   1.543   2.630  0.00  0.00    -0.292 OA
ENDROOT
BRANCH   1  13
ATOM     11  C   UNL     1       8.812   4.699   0.932  0.00  0.00    -0.063 C 
ATOM     12  C   UNL     1       7.648   4.274   0.035  0.00  0.00    +0.086 C 
ATOM     13  N   UNL     1       6.732   3.416   0.800  0.00  0.00    -0.328 N 
ATOM     14  C   UNL     1       7.427   2.220   1.297  0.00  0.00    +0.086 C 
ATOM     15  C   UNL     1       8.591   2.646   2.194  0.00  0.00    -0.063 C 
ATOM     16  N   UNL     1       9.517   3.502   1.428  0.00  0.00    +0.381 N 
ATOM     17  H   UNL     1      10.292   3.792   2.035  0.00  0.00    -0.086 HD
ATOM     18  H   UNL     1       9.887   2.972   0.630  0.00  0.00    -0.086 HD
ENDBRANCH   1  13
BRANCH   7  19
ATOM     19  N   UNL     1       1.143   1.898   0.001  0.00  0.00    -0.301 N 
ATOM     20  C   UNL     1      -0.014   1.209   0.009  0.00  0.00    +0.318 C 
ATOM     21  O   UNL     1       0.002  -0.004   0.002  0.00  0.00    -0.266 OA
ATOM     22  H   UNL     1       1.130   2.868   0.007  0.00  0.00    +0.150 HD
BRANCH  20  23
ATOM     23  C   UNL     1      -1.330   1.944   0.019  0.00  0.00    +0.469 C 
ATOM     24  F   UNL     1      -2.381   1.021   0.019  0.00  0.00    -0.162 F 
ATOM     25  F   UNL     1      -1.409   2.741   1.166  0.00  0.00    -0.162 F 
ATOM     26  F   UNL     1      -1.420   2.754  -1.119  0.00  0.00    -0.162 F 
ENDBRANCH  20  23
ENDBRANCH   7  19
TORSDOF 3
