REMARK  Name = ZINC05395987
REMARK  8 active torsions:
REMARK  status: ('A' for Active; 'I' for Inactive)
REMARK    1  A    between atoms: C_1  and  C_2
REMARK    2  A    between atoms: C_2  and  C_4
REMARK    3  A    between atoms: C_2  and  O_29
REMARK    4  A    between atoms: C_4  and  O_28
REMARK    5  A    between atoms: C_9  and  O_26
REMARK    6  A    between atoms: C_12  and  O_13
REMARK    7  A    between atoms: C_21  and  O_22
REMARK    8  A    between atoms: O_22  and  C_23
REMARK                            x       y       z     vdW  Elec       q    Type
REMARK                         _______ _______ _______ _____ _____    ______ ____
ROOT
ATOM      1  C   UNL     1       2.402   4.252   0.418  0.00  0.00    +0.096 C 
ATOM      2  C   UNL     1       3.524   3.637  -0.427  0.00  0.00    +0.042 C 
ATOM      3  C   UNL     1       3.707   2.183   0.002  0.00  0.00    +0.042 C 
ATOM      4  C   UNL     1       2.386   1.457  -0.006  0.00  0.00    +0.002 A 
ATOM      5  C   UNL     1       1.182   2.115   0.002  0.00  0.00    +0.004 A 
ATOM      6  C   UNL     1      -0.017   1.388   0.010  0.00  0.00    +0.132 A 
ATOM      7  C   UNL     1       0.002  -0.004   0.002  0.00  0.00    +0.078 A 
ATOM      8  C   UNL     1       1.240  -0.680  -0.012  0.00  0.00    +0.078 A 
ATOM      9  C   UNL     1       2.421   0.056  -0.015  0.00  0.00    +0.132 A 
ATOM     10  C   UNL     1       1.266  -2.155  -0.023  0.00  0.00    +0.202 C 
ATOM     11  O   UNL     1       2.299  -2.753   0.213  0.00  0.00    -0.286 OA
ATOM     12  C   UNL     1       0.027  -2.896  -0.325  0.00  0.00    +0.075 A 
ATOM     13  C   UNL     1      -1.210  -2.222  -0.310  0.00  0.00    +0.037 A 
ATOM     14  C   UNL     1      -2.378  -2.919  -0.595  0.00  0.00    +0.012 A 
ATOM     15  C   UNL     1      -2.323  -4.272  -0.892  0.00  0.00    +0.004 A 
ATOM     16  C   UNL     1      -1.115  -4.938  -0.907  0.00  0.00    +0.046 A 
ATOM     17  C   UNL     1       0.068  -4.260  -0.625  0.00  0.00    +0.132 A 
ATOM     18  C   UNL     1      -1.253  -0.778   0.008  0.00  0.00    +0.198 C 
ATOM     19  O   UNL     1      -2.309  -0.237   0.271  0.00  0.00    -0.286 OA
ATOM     20  C   UNL     1       1.079   3.619  -0.006  0.00  0.00    +0.076 C 
ENDROOT
BRANCH   1  22
ATOM     21  C   UNL     1       3.717   6.375   0.491  0.00  0.00    +0.040 C 
ATOM     22  C   UNL     1       2.349   5.763   0.183  0.00  0.00    +0.143 C 
BRANCH  22  23
ATOM     23  O   UNL     1       2.008   6.021  -1.180  0.00  0.00    -0.389 OA
ATOM     24  H   UNL     1       2.635   5.655  -1.819  0.00  0.00    +0.210 HD
ENDBRANCH  22  23
ENDBRANCH   1  22
BRANCH   9  25
ATOM     25  O   UNL     1       3.615  -0.588  -0.027  0.00  0.00    -0.506 OA
ATOM     26  H   UNL     1       3.956  -0.768  -0.914  0.00  0.00    +0.292 HD
ENDBRANCH   9  25
BRANCH  17  27
ATOM     27  O   UNL     1       1.252  -4.919  -0.642  0.00  0.00    -0.494 OA
ATOM     28  C   UNL     1       1.216  -6.312  -0.957  0.00  0.00    +0.277 C 
ENDBRANCH  17  27
BRANCH   6  29
ATOM     29  O   UNL     1      -1.203   2.046   0.019  0.00  0.00    -0.506 OA
ATOM     30  H   UNL     1      -1.543   2.232   0.905  0.00  0.00    +0.292 HD
ENDBRANCH   6  29
BRANCH   1  31
ATOM     31  O   UNL     1       2.641   3.988   1.802  0.00  0.00    -0.386 OA
ATOM     32  H   UNL     1       3.467   4.362   2.137  0.00  0.00    +0.210 HD
ENDBRANCH   1  31
TORSDOF 6
