REMARK  Name = ZINC42191366
REMARK  4 active torsions:
REMARK  status: ('A' for Active; 'I' for Inactive)
REMARK    1  A    between atoms: C_1  and  S_2
REMARK    2  A    between atoms: S_2  and  N_5
REMARK    3  A    between atoms: N_5  and  C_6
REMARK    4  A    between atoms: C_15  and  O_17
REMARK                            x       y       z     vdW  Elec       q    Type
REMARK                         _______ _______ _______ _____ _____    ______ ____
ROOT
ATOM      1  C   UNL     1       2.071  -0.085  -1.722  0.00  0.00    +0.135 C 
ATOM      2  C   UNL     1       2.198   1.270  -2.385  0.00  0.00    -0.023 A 
ATOM      3  C   UNL     1       2.154   2.542  -1.841  0.00  0.00    +0.005 A 
ATOM      4  C   UNL     1       2.294   3.651  -2.653  0.00  0.00    +0.000 A 
ATOM      5  C   UNL     1       2.480   3.490  -4.014  0.00  0.00    +0.000 A 
ATOM      6  C   UNL     1       2.524   2.221  -4.558  0.00  0.00    +0.004 A 
ATOM      7  C   UNL     1       2.383   1.109  -3.745  0.00  0.00    -0.040 A 
ATOM      8  C   UNL     1       2.393  -0.365  -4.089  0.00  0.00    +0.068 C 
ATOM      9  C   UNL     1       2.634  -1.093  -2.747  0.00  0.00    +0.142 C 
ENDROOT
BRANCH   1  10
ATOM     10  N   UNL     1       0.665  -0.382  -1.437  0.00  0.00    -0.185 NA
ATOM     11  H   UNL     1       0.004  -0.328  -2.145  0.00  0.00    +0.148 HD
BRANCH  10  13
ATOM     12  C   UNL     1       0.520   0.664   1.106  0.00  0.00    +0.214 C 
ATOM     13  S   UNL     1       0.203  -0.809   0.095  0.00  0.00    +0.027 S 
ATOM     14  O   UNL     1       1.092  -1.855   0.463  0.00  0.00    -0.158 OA
ATOM     15  O   UNL     1      -1.194  -1.047  -0.000  0.00  0.00    -0.158 OA
ENDBRANCH  10  13
ENDBRANCH   1  10
BRANCH   9  16
ATOM     16  O   UNL     1       1.910  -2.325  -2.698  0.00  0.00    -0.390 OA
ATOM     17  H   UNL     1       2.226  -2.991  -3.323  0.00  0.00    +0.210 HD
ENDBRANCH   9  16
TORSDOF 3
