REMARK  Name = ZINC37685470
REMARK  9 active torsions:
REMARK  status: ('A' for Active; 'I' for Inactive)
REMARK    1  A    between atoms: C_1  and  C_2
REMARK    2  A    between atoms: C_2  and  C_3
REMARK    3  A    between atoms: C_2  and  S_4
REMARK    4  A    between atoms: S_4  and  C_5
REMARK    5  A    between atoms: C_5  and  C_6
REMARK    6  A    between atoms: C_6  and  C_7
REMARK    7  A    between atoms: C_7  and  C_8
REMARK    8  A    between atoms: N_10  and  C_11
REMARK    9  A    between atoms: C_12  and  N_19
REMARK                            x       y       z     vdW  Elec       q    Type
REMARK                         _______ _______ _______ _____ _____    ______ ____
ROOT
ATOM      1  C   UNL     1      -5.488  -1.054  -4.364  0.00  0.00    +0.217 C 
ATOM      2  O   UNL     1      -5.647  -2.248  -4.511  0.00  0.00    -0.275 OA
ATOM      3  N   UNL     1      -6.557  -0.241  -4.251  0.00  0.00    -0.283 N 
ATOM      4  H   UNL     1      -6.432   0.701  -4.061  0.00  0.00    +0.155 HD
ENDROOT
BRANCH   3   5
ATOM      5  C   UNL     1      -7.851  -0.759  -4.409  0.00  0.00    +0.073 A 
ATOM      6  C   UNL     1      -8.429  -0.822  -5.677  0.00  0.00    +0.049 A 
ATOM      7  C   UNL     1      -9.709  -1.335  -5.827  0.00  0.00    +0.044 A 
ATOM      8  C   UNL     1     -10.409  -1.782  -4.721  0.00  0.00    +0.044 A 
ATOM      9  C   UNL     1      -9.836  -1.719  -3.463  0.00  0.00    +0.042 A 
ATOM     10  C   UNL     1      -8.558  -1.214  -3.306  0.00  0.00    +0.065 A 
ATOM     11 CL   UNL     1      -7.841  -1.144  -1.726  0.00  0.00    -0.082 Cl
ATOM     12 CL   UNL     1     -12.011  -2.423  -4.912  0.00  0.00    -0.083 Cl
BRANCH   6  13
ATOM     13  N   UNL     1      -7.720  -0.368  -6.794  0.00  0.00    -0.356 N 
ATOM     14  H   UNL     1      -6.825  -0.010  -6.688  0.00  0.00    +0.142 HD
ATOM     15  H   UNL     1      -8.122  -0.413  -7.676  0.00  0.00    +0.142 HD
ENDBRANCH   6  13
ENDBRANCH   3   5
BRANCH   1  16
ATOM     16  C   UNL     1      -4.096  -0.481  -4.307  0.00  0.00    +0.097 C 
BRANCH  16  17
ATOM     17  C   UNL     1      -3.073  -1.608  -4.458  0.00  0.00    +0.020 C 
BRANCH  17  18
ATOM     18  C   UNL     1      -1.659  -1.026  -4.400  0.00  0.00    +0.070 C 
BRANCH  18  19
ATOM     19  S   UNL     1      -0.447  -2.363  -4.580  0.00  0.00    -0.158 S 
BRANCH  19  21
ATOM     20  C   UNL     1       1.334  -0.907  -3.099  0.00  0.00    +0.018 C 
ATOM     21  C   UNL     1       1.155  -1.517  -4.491  0.00  0.00    +0.040 C 
ATOM     22  C   UNL     1       2.278  -2.522  -4.755  0.00  0.00    +0.018 C 
ENDBRANCH  19  21
ENDBRANCH  18  19
ENDBRANCH  17  18
ENDBRANCH  16  17
ENDBRANCH   1  16
TORSDOF 7
