REMARK  Name = ZINC03371223
REMARK  13 active torsions:
REMARK  status: ('A' for Active; 'I' for Inactive)
REMARK    1  A    between atoms: C_1  and  C_2
REMARK    2  A    between atoms: C_2  and  N_3
REMARK    3  A    between atoms: N_3  and  C_4
REMARK    4  A    between atoms: N_3  and  S_6
REMARK    5  A    between atoms: C_4  and  C_5
REMARK    6  A    between atoms: S_6  and  C_9
REMARK    7  A    between atoms: C_13  and  C_15
REMARK    8  A    between atoms: C_15  and  O_17
REMARK    9  A    between atoms: O_17  and  C_18
REMARK   10  A    between atoms: C_18  and  C_19
REMARK   11  A    between atoms: N_21  and  C_22
REMARK   12  A    between atoms: C_23  and  C_33
REMARK   13  A    between atoms: C_28  and  C_32
REMARK                            x       y       z     vdW  Elec       q    Type
REMARK                         _______ _______ _______ _____ _____    ______ ____
ROOT
ATOM      1  O   UNL     1       5.532  -3.757  -2.281  0.00  0.00    -0.452 OA
ENDROOT
BRANCH   1   2
ATOM      2  C   UNL     1       4.282  -3.582  -1.810  0.00  0.00    +0.340 C 
ATOM      3  O   UNL     1       3.786  -4.417  -1.081  0.00  0.00    -0.245 OA
BRANCH   2   8
ATOM      4  C   UNL     1       1.510  -1.061  -2.043  0.00  0.00    +0.106 A 
ATOM      5  C   UNL     1       2.076  -0.115  -2.879  0.00  0.00    +0.028 A 
ATOM      6  C   UNL     1       3.362  -0.288  -3.360  0.00  0.00    +0.003 A 
ATOM      7  C   UNL     1       4.083  -1.413  -3.018  0.00  0.00    +0.015 A 
ATOM      8  C   UNL     1       3.516  -2.375  -2.180  0.00  0.00    +0.061 A 
ATOM      9  C   UNL     1       2.220  -2.190  -1.693  0.00  0.00    +0.043 A 
BRANCH   4  10
ATOM     10  S   UNL     1      -0.125  -0.826  -1.430  0.00  0.00    +0.061 S 
ATOM     11  O   UNL     1      -0.630  -2.116  -1.114  0.00  0.00    -0.153 OA
ATOM     12  O   UNL     1      -0.780   0.046  -2.342  0.00  0.00    -0.153 OA
BRANCH  10  13
ATOM     13  N   UNL     1       0.002  -0.004   0.002  0.00  0.00    -0.177 NA
BRANCH  13  15
ATOM     14  C   UNL     1       1.418   1.990  -0.001  0.00  0.00    +0.022 C 
ATOM     15  C   UNL     1      -0.018   1.461   0.010  0.00  0.00    +0.106 C 
ENDBRANCH  13  15
BRANCH  13  16
ATOM     16  C   UNL     1       0.135  -0.742   1.261  0.00  0.00    +0.106 C 
ATOM     17  C   UNL     1      -1.245  -0.910   1.901  0.00  0.00    +0.022 C 
ENDBRANCH  13  16
ENDBRANCH  10  13
ENDBRANCH   4  10
ENDBRANCH   2   8
ENDBRANCH   1   2
BRANCH   1  18
ATOM     18  C   UNL     1       6.226  -4.967  -1.877  0.00  0.00    +0.328 C 
BRANCH  18  19
ATOM     19  C   UNL     1       7.600  -4.989  -2.496  0.00  0.00    +0.255 C 
ATOM     20  O   UNL     1       7.958  -4.076  -3.209  0.00  0.00    -0.272 OA
ATOM     21  N   UNL     1       8.429  -6.024  -2.259  0.00  0.00    -0.276 N 
ATOM     22  H   UNL     1       8.142  -6.755  -1.688  0.00  0.00    +0.155 HD
BRANCH  21  23
ATOM     23  C   UNL     1       9.694  -6.045  -2.829  0.00  0.00    +0.090 A 
ATOM     24  C   UNL     1      10.680  -7.013  -2.704  0.00  0.00    +0.084 A 
ATOM     25  C   UNL     1      11.930  -6.794  -3.412  0.00  0.00    -0.018 A 
ATOM     26  C   UNL     1      11.993  -5.649  -4.127  0.00  0.00    -0.004 A 
ATOM     27  S   UNL     1      10.422  -4.873  -3.877  0.00  0.00    -0.077 S 
ATOM     28  C   UNL     1      13.145  -5.161  -4.950  0.00  0.00    +0.046 C 
ATOM     29  C   UNL     1      14.392  -5.971  -4.564  0.00  0.00    -0.009 C 
ATOM     30  C   UNL     1      14.030  -7.459  -4.555  0.00  0.00    +0.008 C 
ATOM     31  C   UNL     1      13.106  -7.762  -3.375  0.00  0.00    +0.037 C 
ATOM     32  C   UNL     1      15.503  -5.719  -5.586  0.00  0.00    +0.008 C 
BRANCH  24  33
ATOM     33  C   UNL     1      10.474  -8.184  -1.907  0.00  0.00    +0.102 C 
ATOM     34  N   UNL     1      10.310  -9.114  -1.275  0.00  0.00    -0.191 NA
ENDBRANCH  24  33
ENDBRANCH  21  23
ENDBRANCH  18  19
ENDBRANCH   1  18
TORSDOF 10
