REMARK  Name = ZINC65382274
REMARK  8 active torsions:
REMARK  status: ('A' for Active; 'I' for Inactive)
REMARK    1  A    between atoms: C_1  and  C_2
REMARK    2  A    between atoms: C_2  and  C_4
REMARK    3  A    between atoms: C_2  and  N_10
REMARK    4  A    between atoms: N_10  and  C_11
REMARK    5  A    between atoms: C_11  and  C_12
REMARK    6  A    between atoms: C_12  and  C_13
REMARK    7  A    between atoms: N_15  and  C_16
REMARK    8  A    between atoms: C_19  and  C_22
REMARK                            x       y       z     vdW  Elec       q    Type
REMARK                         _______ _______ _______ _____ _____    ______ ____
ROOT
ATOM      1  C   UNL     1       4.263  -0.144  -2.370  0.00  0.00    +0.215 C 
ATOM      2  O   UNL     1       4.678   0.495  -1.426  0.00  0.00    -0.276 OA
ATOM      3  N   UNL     1       5.094  -0.472  -3.379  0.00  0.00    -0.286 N 
ATOM      4  H   UNL     1       4.780  -1.039  -4.101  0.00  0.00    +0.155 HD
ENDROOT
BRANCH   3   5
ATOM      5  C   UNL     1       6.405   0.002  -3.385  0.00  0.00    +0.033 A 
ATOM      6  C   UNL     1       7.098   0.143  -2.187  0.00  0.00    +0.024 A 
ATOM      7  C   UNL     1       8.392   0.611  -2.189  0.00  0.00    +0.015 A 
ATOM      8  C   UNL     1       9.011   0.945  -3.397  0.00  0.00    +0.037 A 
ATOM      9  C   UNL     1       8.312   0.802  -4.599  0.00  0.00    +0.015 A 
ATOM     10  C   UNL     1       7.019   0.329  -4.590  0.00  0.00    +0.024 A 
BRANCH   8  11
ATOM     11  C   UNL     1      10.398   1.448  -3.404  0.00  0.00    +0.242 C 
ATOM     12  O   UNL     1      11.005   1.572  -2.357  0.00  0.00    -0.270 OA
ATOM     13  N   UNL     1      10.993   1.769  -4.570  0.00  0.00    -0.325 N 
ATOM     14  H   UNL     1      10.509   1.670  -5.404  0.00  0.00    +0.145 HD
ATOM     15  H   UNL     1      11.905   2.100  -4.574  0.00  0.00    +0.145 HD
ENDBRANCH   8  11
ENDBRANCH   3   5
BRANCH   1  16
ATOM     16  C   UNL     1       2.818  -0.570  -2.415  0.00  0.00    +0.077 C 
BRANCH  16  17
ATOM     17  C   UNL     1       2.100  -0.072  -1.159  0.00  0.00    -0.073 C 
BRANCH  17  18
ATOM     18  N   UNL     1       0.692  -0.487  -1.202  0.00  0.00    +0.384 N 
ATOM     19  H   UNL     1       0.639  -1.494  -1.243  0.00  0.00    -0.085 HD
ATOM     20  H   UNL     1       0.250  -0.094  -2.020  0.00  0.00    -0.085 HD
BRANCH  18  22
ATOM     21  C   UNL     1      -0.026   1.520   0.003  0.00  0.00    -0.009 C 
ATOM     22  C   UNL     1       0.003  -0.009   0.004  0.00  0.00    -0.048 C 
BRANCH  22  23
ATOM     23  C   UNL     1      -1.408  -0.538   0.019  0.00  0.00    -0.088 C 
ATOM     24  C   UNL     1      -1.798  -1.198   1.063  0.00  0.00    -0.029 C 
ATOM     25  C   UNL     1      -3.166  -1.794   1.218  0.00  0.00    +0.027 C 
ATOM     26  C   UNL     1      -4.132  -1.166   0.211  0.00  0.00    +0.004 C 
ATOM     27  C   UNL     1      -3.480  -1.209  -1.177  0.00  0.00    +0.005 C 
ATOM     28  C   UNL     1      -2.276  -0.262  -1.173  0.00  0.00    +0.029 C 
ENDBRANCH  22  23
ENDBRANCH  18  22
ENDBRANCH  17  18
ENDBRANCH  16  17
ENDBRANCH   1  16
TORSDOF 7
