REMARK  Name = ZINC36643476
REMARK  15 active torsions:
REMARK  status: ('A' for Active; 'I' for Inactive)
REMARK    1  A    between atoms: C_1  and  C_2
REMARK    2  A    between atoms: C_2  and  C_3
REMARK    3  A    between atoms: C_3  and  C_4
REMARK    4  A    between atoms: C_4  and  N_5
REMARK    5  A    between atoms: N_5  and  C_6
REMARK    6  A    between atoms: N_5  and  S_8
REMARK    7  A    between atoms: C_6  and  C_7
REMARK    8  A    between atoms: S_8  and  C_11
REMARK    9  A    between atoms: C_14  and  C_17
REMARK   10  A    between atoms: N_19  and  C_20
REMARK   11  A    between atoms: C_20  and  C_21
REMARK   12  A    between atoms: C_21  and  C_22
REMARK   13  A    between atoms: C_22  and  N_23
REMARK   14  A    between atoms: N_23  and  C_24
REMARK   15  A    between atoms: N_23  and  C_25
REMARK                            x       y       z     vdW  Elec       q    Type
REMARK                         _______ _______ _______ _____ _____    ______ ____
ROOT
ATOM      1  C   UNL     1      -6.198   1.942   3.442  0.00  0.00    +0.252 C 
ATOM      2  O   UNL     1      -5.605   2.638   4.243  0.00  0.00    -0.270 OA
ATOM      3  N   UNL     1      -7.475   2.227   3.118  0.00  0.00    -0.246 N 
ATOM      4  C   UNL     1      -8.069   3.384   3.594  0.00  0.00    +0.168 A 
ATOM      5  N   UNL     1      -9.252   3.877   3.313  0.00  0.00    -0.221 NA
ATOM      6  C   UNL     1      -9.707   5.027   3.857  0.00  0.00    +0.115 A 
ATOM      7  C   UNL     1     -10.953   5.664   3.641  0.00  0.00    +0.150 A 
ATOM      8  C   UNL     1     -11.258   6.840   4.279  0.00  0.00    +0.040 A 
ATOM      9  C   UNL     1     -10.365   7.444   5.153  0.00  0.00    +0.004 A 
ATOM     10  C   UNL     1      -9.139   6.848   5.387  0.00  0.00    +0.017 A 
ATOM     11  C   UNL     1      -8.824   5.671   4.753  0.00  0.00    +0.044 A 
ATOM     12  S   UNL     1      -7.422   4.580   4.753  0.00  0.00    -0.052 S 
ATOM     13  F   UNL     1     -11.850   5.109   2.797  0.00  0.00    -0.203 F 
ENDROOT
BRANCH   1  17
ATOM     14  C   UNL     1      -4.246  -1.385   1.663  0.00  0.00    +0.106 A 
ATOM     15  C   UNL     1      -3.590  -0.170   1.755  0.00  0.00    +0.029 A 
ATOM     16  C   UNL     1      -4.219   0.915   2.331  0.00  0.00    +0.015 A 
ATOM     17  C   UNL     1      -5.519   0.785   2.822  0.00  0.00    +0.037 A 
ATOM     18  C   UNL     1      -6.175  -0.444   2.726  0.00  0.00    +0.015 A 
ATOM     19  C   UNL     1      -5.537  -1.519   2.143  0.00  0.00    +0.029 A 
BRANCH  14  20
ATOM     20  S   UNL     1      -3.436  -2.765   0.926  0.00  0.00    +0.061 S 
ATOM     21  O   UNL     1      -4.062  -3.929   1.447  0.00  0.00    -0.153 OA
ATOM     22  O   UNL     1      -2.040  -2.530   1.049  0.00  0.00    -0.153 OA
BRANCH  20  23
ATOM     23  N   UNL     1      -3.781  -2.727  -0.694  0.00  0.00    -0.177 NA
BRANCH  23  24
ATOM     24  C   UNL     1      -4.963  -3.422  -1.207  0.00  0.00    +0.106 C 
ATOM     25  C   UNL     1      -4.563  -4.815  -1.698  0.00  0.00    +0.022 C 
ENDBRANCH  23  24
BRANCH  23  26
ATOM     26  C   UNL     1      -2.904  -1.997  -1.612  0.00  0.00    +0.109 C 
BRANCH  26  27
ATOM     27  C   UNL     1      -3.456  -0.588  -1.834  0.00  0.00    +0.017 C 
BRANCH  27  29
ATOM     28  C   UNL     1      -3.091   1.584  -3.015  0.00  0.00    +0.004 C 
ATOM     29  C   UNL     1      -2.539   0.174  -2.793  0.00  0.00    -0.002 C 
ENDBRANCH  27  29
ENDBRANCH  26  27
ENDBRANCH  23  26
ENDBRANCH  20  23
ENDBRANCH  14  20
ENDBRANCH   1  17
BRANCH   3  30
ATOM     30  C   UNL     1      -8.235   1.312   2.262  0.00  0.00    +0.114 C 
BRANCH  30  31
ATOM     31  C   UNL     1      -9.123   0.419   3.131  0.00  0.00    +0.001 C 
BRANCH  31  32
ATOM     32  C   UNL     1      -9.799  -0.636   2.254  0.00  0.00    -0.078 C 
BRANCH  32  33
ATOM     33  N   UNL     1     -10.651  -1.494   3.089  0.00  0.00    +0.376 N 
ATOM     34  C   UNL     1     -11.392  -2.430   2.233  0.00  0.00    -0.097 C 
ATOM     35  C   UNL     1      -9.813  -2.249   4.030  0.00  0.00    -0.097 C 
ATOM     36  H   UNL     1     -11.303  -0.921   3.603  0.00  0.00    -0.083 HD
ENDBRANCH  32  33
ENDBRANCH  31  32
ENDBRANCH  30  31
ENDBRANCH   3  30
TORSDOF 11
