REMARK  Name = ZINC35599564
REMARK  7 active torsions:
REMARK  status: ('A' for Active; 'I' for Inactive)
REMARK    1  A    between atoms: C_1  and  C_2
REMARK    2  A    between atoms: C_2  and  C_4
REMARK    3  A    between atoms: C_2  and  O_18
REMARK    4  A    between atoms: C_4  and  N_5
REMARK    5  A    between atoms: N_5  and  S_6
REMARK    6  A    between atoms: S_6  and  C_9
REMARK    7  A    between atoms: C_10  and  N_17
REMARK                            x       y       z     vdW  Elec       q    Type
REMARK                         _______ _______ _______ _____ _____    ______ ____
ROOT
ATOM      1  C   UNL     1       1.661  -2.735   4.021  0.00  0.00    +0.140 A 
ATOM      2  C   UNL     1       1.877  -1.488   4.594  0.00  0.00    +0.053 A 
ATOM      3  C   UNL     1       1.131  -1.097   5.698  0.00  0.00    +0.040 A 
ATOM      4  C   UNL     1       0.178  -1.948   6.224  0.00  0.00    +0.021 A 
ATOM      5  C   UNL     1      -0.034  -3.190   5.651  0.00  0.00    +0.032 A 
ATOM      6  C   UNL     1       0.703  -3.580   4.547  0.00  0.00    +0.047 A 
ATOM      7 BR   UNL     1       0.404  -5.275   3.763  0.00  0.00    -0.048 Br
ATOM      8 BR   UNL     1      -0.838  -1.416   7.728  0.00  0.00    -0.050 Br
ENDROOT
BRANCH   1   9
ATOM      9  S   UNL     1       2.604  -3.236   2.619  0.00  0.00    +0.061 S 
ATOM     10  O   UNL     1       2.649  -4.656   2.646  0.00  0.00    -0.153 OA
ATOM     11  O   UNL     1       3.779  -2.437   2.613  0.00  0.00    -0.153 OA
BRANCH   9  12
ATOM     12  N   UNL     1       1.738  -2.816   1.271  0.00  0.00    -0.187 NA
ATOM     13  H   UNL     1       1.396  -3.505   0.680  0.00  0.00    +0.148 HD
BRANCH  12  14
ATOM     14  C   UNL     1       1.490  -1.404   0.971  0.00  0.00    +0.136 C 
BRANCH  14  16
ATOM     15  C   UNL     1       0.875   0.217  -0.829  0.00  0.00    +0.039 C 
ATOM     16  C   UNL     1       1.015  -1.266  -0.477  0.00  0.00    +0.127 C 
BRANCH  16  17
ATOM     17  O   UNL     1      -0.251  -1.912  -0.626  0.00  0.00    -0.391 OA
ATOM     18  H   UNL     1      -0.613  -1.864  -1.522  0.00  0.00    +0.210 HD
ENDBRANCH  16  17
ENDBRANCH  14  16
ENDBRANCH  12  14
ENDBRANCH   9  12
ENDBRANCH   1   9
BRANCH   2  19
ATOM     19  N   UNL     1       2.841  -0.630   4.061  0.00  0.00    -0.356 N 
ATOM     20  H   UNL     1       3.101  -0.711   3.130  0.00  0.00    +0.142 HD
ATOM     21  H   UNL     1       3.251   0.047   4.621  0.00  0.00    +0.142 HD
ENDBRANCH   2  19
TORSDOF 6
