REMARK  Name = ZINC35523306
REMARK  6 active torsions:
REMARK  status: ('A' for Active; 'I' for Inactive)
REMARK    1  A    between atoms: C_4  and  C_7
REMARK    2  A    between atoms: C_7  and  N_8
REMARK    3  A    between atoms: C_14  and  C_16
REMARK    4  A    between atoms: C_19  and  C_21
REMARK    5  A    between atoms: C_21  and  N_22
REMARK    6  A    between atoms: C_30  and  C_32
REMARK                            x       y       z     vdW  Elec       q    Type
REMARK                         _______ _______ _______ _____ _____    ______ ____
ROOT
ATOM      1  C   UNL     1       6.871  -3.753   4.358  0.00  0.00    +0.190 A 
ATOM      2  C   UNL     1       7.398  -4.832   5.008  0.00  0.00    +0.055 A 
ATOM      3  C   UNL     1       8.773  -4.843   4.722  0.00  0.00    +0.043 A 
ATOM      4  C   UNL     1       9.021  -3.783   3.921  0.00  0.00    +0.090 A 
ATOM      5  O   UNL     1       7.871  -3.132   3.700  0.00  0.00    -0.457 OA
ENDROOT
BRANCH   1  12
ATOM      6  N   UNL     1       4.414   0.521   3.621  0.00  0.00    -0.295 NA
ATOM      7  C   UNL     1       5.806   0.155   3.913  0.00  0.00    +0.104 C 
ATOM      8  C   UNL     1       6.104  -1.225   3.317  0.00  0.00    +0.123 C 
ATOM      9  N   UNL     1       5.096  -2.175   3.810  0.00  0.00    -0.293 N 
ATOM     10  C   UNL     1       3.676  -1.814   3.676  0.00  0.00    +0.123 C 
ATOM     11  C   UNL     1       3.474  -0.411   4.258  0.00  0.00    +0.104 C 
ATOM     12  C   UNL     1       5.462  -3.345   4.369  0.00  0.00    +0.282 C 
ATOM     13  O   UNL     1       4.625  -4.062   4.883  0.00  0.00    -0.267 OA
BRANCH   6  14
ATOM     14  C   UNL     1       4.138   1.906   4.024  0.00  0.00    +0.119 C 
BRANCH  14  18
ATOM     15  C   UNL     1       6.438   4.579   1.613  0.00  0.00    +0.000 A 
ATOM     16  C   UNL     1       5.172   4.198   1.208  0.00  0.00    +0.000 A 
ATOM     17  C   UNL     1       4.428   3.333   1.988  0.00  0.00    +0.005 A 
ATOM     18  C   UNL     1       4.949   2.848   3.173  0.00  0.00    -0.033 A 
ATOM     19  C   UNL     1       6.216   3.228   3.577  0.00  0.00    +0.005 A 
ATOM     20  C   UNL     1       6.959   4.094   2.797  0.00  0.00    +0.000 A 
ENDBRANCH  14  18
ENDBRANCH   6  14
ENDBRANCH   1  12
BRANCH   4  21
ATOM     21  C   UNL     1      10.367  -3.400   3.365  0.00  0.00    -0.002 C 
BRANCH  21  22
ATOM     22  N   UNL     1      10.568  -4.063   2.069  0.00  0.00    +0.394 N 
ATOM     23  C   UNL     1      10.618  -5.517   2.267  0.00  0.00    -0.055 C 
ATOM     24  C   UNL     1      10.509  -6.231   0.914  0.00  0.00    +0.103 C 
ATOM     25  N   UNL     1      11.501  -5.640   0.008  0.00  0.00    -0.353 N 
ATOM     26  C   UNL     1      11.969  -6.136  -1.165  0.00  0.00    +0.086 A 
ATOM     27  C   UNL     1      12.874  -5.265  -1.660  0.00  0.00    +0.019 A 
ATOM     28  C   UNL     1      12.964  -4.187  -0.753  0.00  0.00    +0.021 A 
ATOM     29  C   UNL     1      12.115  -4.439   0.253  0.00  0.00    +0.009 A 
ATOM     30  C   UNL     1      11.830  -3.595   1.471  0.00  0.00    +0.012 C 
ATOM     31  H   UNL     1       9.801  -3.835   1.454  0.00  0.00    -0.080 HD
BRANCH  30  32
ATOM     32  C   UNL     1      11.696  -2.149   1.067  0.00  0.00    -0.037 A 
ATOM     33  C   UNL     1      10.442  -1.593   0.895  0.00  0.00    +0.004 A 
ATOM     34  C   UNL     1      10.319  -0.267   0.524  0.00  0.00    +0.000 A 
ATOM     35  C   UNL     1      11.450   0.504   0.326  0.00  0.00    +0.001 A 
ATOM     36  C   UNL     1      12.704  -0.051   0.498  0.00  0.00    +0.020 A 
ATOM     37  C   UNL     1      12.828  -1.377   0.874  0.00  0.00    +0.043 A 
ATOM     38 CL   UNL     1      14.402  -2.073   1.097  0.00  0.00    -0.083 Cl
ENDBRANCH  30  32
ENDBRANCH  21  22
ENDBRANCH   4  21
TORSDOF 6
