REMARK  Name = ZINC33423734
REMARK  9 active torsions:
REMARK  status: ('A' for Active; 'I' for Inactive)
REMARK    1  A    between atoms: C_1  and  O_2
REMARK    2  A    between atoms: O_2  and  C_3
REMARK    3  A    between atoms: C_8  and  N_9
REMARK    4  A    between atoms: N_12  and  C_13
REMARK    5  A    between atoms: N_12  and  C_30
REMARK    6  A    between atoms: C_13  and  C_14
REMARK    7  A    between atoms: C_14  and  C_15
REMARK    8  A    between atoms: C_21  and  C_23
REMARK    9  A    between atoms: C_30  and  C_31
REMARK                            x       y       z     vdW  Elec       q    Type
REMARK                         _______ _______ _______ _____ _____    ______ ____
ROOT
ATOM      1  N   UNL     1      -2.665  10.382   1.408  0.00  0.00    -0.266 N 
ATOM      2  C   UNL     1      -3.197   9.144   1.399  0.00  0.00    +0.307 C 
ATOM      3  O   UNL     1      -4.402   9.001   1.321  0.00  0.00    -0.252 OA
ATOM      4  N   UNL     1      -2.393   8.065   1.478  0.00  0.00    -0.281 N 
ATOM      5  H   UNL     1      -1.585  10.516   1.573  0.00  0.00    +0.156 HD
ENDROOT
BRANCH   1  11
ATOM      6  C   UNL     1      -3.103  12.745   1.699  0.00  0.00    +0.141 A 
ATOM      7  C   UNL     1      -3.920  13.847   1.498  0.00  0.00    +0.047 A 
ATOM      8  C   UNL     1      -5.111  13.708   0.810  0.00  0.00    +0.004 A 
ATOM      9  C   UNL     1      -5.491  12.472   0.322  0.00  0.00    +0.002 A 
ATOM     10  C   UNL     1      -4.681  11.369   0.514  0.00  0.00    +0.027 A 
ATOM     11  C   UNL     1      -3.486  11.500   1.208  0.00  0.00    +0.077 A 
BRANCH   6  13
ATOM     12  C   UNL     1      -1.603  14.188   2.850  0.00  0.00    +0.277 C 
ATOM     13  O   UNL     1      -1.931  12.880   2.375  0.00  0.00    -0.493 OA
ENDBRANCH   6  13
ENDBRANCH   1  11
BRANCH   4  14
ATOM     14  C   UNL     1      -2.972   6.719   1.468  0.00  0.00    +0.116 C 
BRANCH  14  15
ATOM     15  C   UNL     1      -3.075   6.218   0.026  0.00  0.00    +0.073 C 
BRANCH  15  16
ATOM     16  C   UNL     1      -3.671   4.834   0.016  0.00  0.00    +0.034 A 
ATOM     17  C   UNL     1      -4.994   4.687   0.031  0.00  0.00    +0.070 A 
ATOM     18  S   UNL     1      -5.169   2.909   0.011  0.00  0.00    -0.057 S 
ATOM     19  C   UNL     1      -3.438   2.503  -0.015  0.00  0.00    +0.178 A 
ATOM     20  N   UNL     1      -2.838   3.736  -0.007  0.00  0.00    -0.297 N 
ATOM     21  C   UNL     1      -1.473   3.472  -0.022  0.00  0.00    +0.121 A 
ATOM     22  C   UNL     1      -1.316   2.126  -0.046  0.00  0.00    +0.090 A 
ATOM     23  N   UNL     1      -2.541   1.561  -0.038  0.00  0.00    -0.221 NA
BRANCH  22  24
ATOM     24  C   UNL     1      -0.022   1.401  -0.071  0.00  0.00    +0.002 A 
ATOM     25  C   UNL     1       1.177   2.111  -0.082  0.00  0.00    +0.013 A 
ATOM     26  C   UNL     1       2.378   1.432  -0.111  0.00  0.00    +0.039 A 
ATOM     27  C   UNL     1       2.393   0.047  -0.128  0.00  0.00    +0.123 A 
ATOM     28  C   UNL     1       1.203  -0.663  -0.117  0.00  0.00    +0.039 A 
ATOM     29  C   UNL     1      -0.002   0.007  -0.088  0.00  0.00    +0.013 A 
ATOM     30  F   UNL     1       3.571  -0.614  -0.157  0.00  0.00    -0.205 F 
ENDBRANCH  22  24
ENDBRANCH  15  16
ENDBRANCH  14  15
ENDBRANCH   4  14
BRANCH   4  31
ATOM     31  C   UNL     1      -0.942   8.237   1.573  0.00  0.00    +0.144 C 
BRANCH  31  32
ATOM     32  C   UNL     1      -0.348   8.265   0.189  0.00  0.00    -0.030 A 
ATOM     33  C   UNL     1       0.069   7.090  -0.409  0.00  0.00    +0.005 A 
ATOM     34  C   UNL     1       0.610   7.115  -1.681  0.00  0.00    +0.000 A 
ATOM     35  C   UNL     1       0.743   8.316  -2.352  0.00  0.00    +0.000 A 
ATOM     36  C   UNL     1       0.332   9.492  -1.752  0.00  0.00    +0.000 A 
ATOM     37  C   UNL     1      -0.214   9.466  -0.482  0.00  0.00    +0.005 A 
ENDBRANCH  31  32
ENDBRANCH   4  31
TORSDOF 8
