REMARK  Name = ZINC41792152
REMARK  11 active torsions:
REMARK  status: ('A' for Active; 'I' for Inactive)
REMARK    1  A    between atoms: C_1  and  C_2
REMARK    2  A    between atoms: C_5  and  C_30
REMARK    3  A    between atoms: N_8  and  C_10
REMARK    4  A    between atoms: C_10  and  C_11
REMARK    5  A    between atoms: C_11  and  C_12
REMARK    6  A    between atoms: C_12  and  C_13
REMARK    7  A    between atoms: C_13  and  N_14
REMARK    8  A    between atoms: C_15  and  C_17
REMARK    9  A    between atoms: N_19  and  C_20
REMARK   10  A    between atoms: C_25  and  C_26
REMARK   11  A    between atoms: C_26  and  C_27
REMARK                            x       y       z     vdW  Elec       q    Type
REMARK                         _______ _______ _______ _____ _____    ______ ____
ROOT
ATOM      1  N   UNL     1       2.850  -0.009   7.384  0.00  0.00    -0.308 N 
ATOM      2  C   UNL     1       2.430   0.445   8.582  0.00  0.00    +0.299 C 
ATOM      3  O   UNL     1       1.480   1.198   8.646  0.00  0.00    -0.265 OA
ATOM      4  H   UNL     1       3.609  -0.610   7.332  0.00  0.00    +0.149 HD
ENDROOT
BRANCH   2   5
ATOM      5  C   UNL     1       3.134   0.022   9.829  0.00  0.00    +0.303 C 
ATOM      6  O   UNL     1       4.084  -0.731   9.764  0.00  0.00    -0.265 OA
ATOM      7  N   UNL     1       2.715   0.475  11.027  0.00  0.00    -0.277 N 
ATOM      8  H   UNL     1       2.008   1.138  11.074  0.00  0.00    +0.155 HD
BRANCH   7   9
ATOM      9  C   UNL     1       3.298  -0.009  12.200  0.00  0.00    +0.037 A 
ATOM     10  C   UNL     1       3.898  -1.262  12.214  0.00  0.00    +0.023 A 
ATOM     11  C   UNL     1       4.473  -1.738  13.376  0.00  0.00    +0.002 A 
ATOM     12  C   UNL     1       4.452  -0.969  14.525  0.00  0.00    +0.000 A 
ATOM     13  C   UNL     1       3.855   0.279  14.515  0.00  0.00    +0.006 A 
ATOM     14  C   UNL     1       3.283   0.763  13.355  0.00  0.00    -0.017 A 
BRANCH  14  15
ATOM     15  C   UNL     1       2.639   2.125  13.343  0.00  0.00    +0.132 C 
BRANCH  15  16
ATOM     16  C   UNL     1       1.159   1.984  13.593  0.00  0.00    +0.215 C 
ATOM     17  O   UNL     1       0.676   0.884  13.764  0.00  0.00    -0.276 OA
ATOM     18  N   UNL     1       0.374   3.078  13.627  0.00  0.00    -0.329 N 
ATOM     19  H   UNL     1       0.760   3.957  13.490  0.00  0.00    +0.145 HD
ATOM     20  H   UNL     1      -0.578   2.987  13.788  0.00  0.00    +0.145 HD
ENDBRANCH  15  16
ENDBRANCH  14  15
ENDBRANCH   7   9
ENDBRANCH   2   5
BRANCH   1  21
ATOM     21  C   UNL     1       2.159   0.407   6.160  0.00  0.00    +0.104 C 
BRANCH  21  22
ATOM     22  C   UNL     1       2.829  -0.246   4.950  0.00  0.00    +0.017 C 
BRANCH  22  23
ATOM     23  C   UNL     1       2.108   0.188   3.672  0.00  0.00    -0.017 C 
BRANCH  23  24
ATOM     24  C   UNL     1       2.779  -0.464   2.461  0.00  0.00    -0.079 C 
BRANCH  24  30
ATOM     25  C   UNL     1      -0.069   1.466   0.017  0.00  0.00    +0.005 C 
ATOM     26  C   UNL     1      -0.039  -0.064   0.015  0.00  0.00    -0.031 C 
ATOM     27  C   UNL     1       0.677  -0.559  -1.244  0.00  0.00    +0.003 C 
ATOM     28  C   UNL     1       2.131  -0.079  -1.215  0.00  0.00    -0.031 C 
ATOM     29  C   UNL     1       2.801  -0.577   0.067  0.00  0.00    -0.076 C 
ATOM     30  N   UNL     1       2.086  -0.048   1.234  0.00  0.00    +0.380 N 
ATOM     31  C   UNL     1       0.711  -0.562   1.252  0.00  0.00    -0.076 C 
ATOM     32  C   UNL     1       2.877  -0.633  -2.431  0.00  0.00    +0.005 C 
ATOM     33  H   UNL     1       2.067   0.960   1.187  0.00  0.00    -0.082 HD
ENDBRANCH  24  30
ENDBRANCH  23  24
ENDBRANCH  22  23
ENDBRANCH  21  22
ENDBRANCH   1  21
TORSDOF 9
