REMARK  Name = ZINC65872687
REMARK  6 active torsions:
REMARK  status: ('A' for Active; 'I' for Inactive)
REMARK    1  A    between atoms: C_1  and  C_2
REMARK    2  A    between atoms: C_2  and  C_24
REMARK    3  A    between atoms: C_10  and  C_12
REMARK    4  A    between atoms: C_12  and  N_13
REMARK    5  A    between atoms: N_13  and  C_14
REMARK    6  A    between atoms: N_13  and  C_15
REMARK                            x       y       z     vdW  Elec       q    Type
REMARK                         _______ _______ _______ _____ _____    ______ ____
ROOT
ATOM      1  C   UNL     1      -0.019   1.526   0.010  0.00  0.00    +0.011 C 
ATOM      2  C   UNL     1       0.002  -0.004   0.002  0.00  0.00    -0.022 C 
ATOM      3  C   UNL     1       0.685  -0.490  -1.279  0.00  0.00    +0.063 C 
ATOM      4  C   UNL     1       2.128  -0.008  -1.259  0.00  0.00    +0.062 A 
ATOM      5  C   UNL     1       2.754   0.211  -0.025  0.00  0.00    +0.079 A 
ATOM      6  S   UNL     1       4.364   0.752  -0.510  0.00  0.00    -0.049 S 
ATOM      7  C   UNL     1       4.135   0.660  -2.178  0.00  0.00    +0.165 A 
ATOM      8  N   UNL     1       2.886   0.238  -2.300  0.00  0.00    -0.229 NA
ATOM      9  N   UNL     1       5.038   0.956  -3.183  0.00  0.00    -0.263 N 
ATOM     10  C   UNL     1       6.279   1.377  -2.870  0.00  0.00    +0.236 C 
ATOM     11  O   UNL     1       6.604   1.496  -1.708  0.00  0.00    -0.274 OA
ATOM     12  C   UNL     1       2.169   0.016   1.222  0.00  0.00    +0.172 C 
ATOM     13  O   UNL     1       2.773   0.252   2.249  0.00  0.00    -0.291 OA
ATOM     14  C   UNL     1       0.743  -0.503   1.243  0.00  0.00    +0.087 C 
ATOM     15  C   UNL     1      -1.436  -0.526   0.032  0.00  0.00    +0.011 C 
ATOM     16  H   UNL     1       4.778   0.861  -4.112  0.00  0.00    +0.157 HD
ENDROOT
BRANCH  10  17
ATOM     17  C   UNL     1       7.263   1.700  -3.964  0.00  0.00    +0.200 C 
BRANCH  17  18
ATOM     18  N   UNL     1       8.531   2.131  -3.370  0.00  0.00    -0.324 N 
ATOM     19  C   UNL     1       9.569   1.145  -3.062  0.00  0.00    +0.130 C 
BRANCH  18  20
ATOM     20  C   UNL     1       8.749   3.484  -3.096  0.00  0.00    +0.030 A 
ATOM     21  C   UNL     1       7.763   4.420  -3.381  0.00  0.00    +0.023 A 
ATOM     22  C   UNL     1       7.981   5.756  -3.109  0.00  0.00    +0.002 A 
ATOM     23  C   UNL     1       9.180   6.162  -2.553  0.00  0.00    +0.000 A 
ATOM     24  C   UNL     1      10.164   5.234  -2.268  0.00  0.00    +0.002 A 
ATOM     25  C   UNL     1       9.950   3.895  -2.532  0.00  0.00    +0.023 A 
ENDBRANCH  18  20
ENDBRANCH  17  18
ENDBRANCH  10  17
TORSDOF 3
