REMARK  Name = ZINC01375567
REMARK  16 active torsions:
REMARK  status: ('A' for Active; 'I' for Inactive)
REMARK    1  A    between atoms: C_1  and  C_2
REMARK    2  A    between atoms: C_2  and  C_3
REMARK    3  A    between atoms: C_3  and  C_5
REMARK    4  A    between atoms: C_3  and  N_14
REMARK    5  A    between atoms: N_9  and  C_10
REMARK    6  A    between atoms: C_10  and  C_11
REMARK    7  A    between atoms: C_10  and  C_12
REMARK    8  A    between atoms: C_10  and  C_13
REMARK    9  A    between atoms: N_14  and  C_15
REMARK   10  A    between atoms: N_14  and  C_24
REMARK   11  A    between atoms: C_15  and  C_16
REMARK   12  A    between atoms: C_21  and  O_22
REMARK   13  A    between atoms: O_22  and  C_23
REMARK   14  A    between atoms: C_24  and  C_25
REMARK   15  A    between atoms: C_28  and  C_38
REMARK   16  A    between atoms: C_31  and  C_37
REMARK                            x       y       z     vdW  Elec       q    Type
REMARK                         _______ _______ _______ _____ _____    ______ ____
ROOT
ATOM      1  N   UNL     1      -2.002   4.528   2.634  0.00  0.00    -0.284 NA
ENDROOT
BRANCH   1   2
ATOM      2  C   UNL     1      -1.131   4.683   1.462  0.00  0.00    +0.127 C 
BRANCH   2   3
ATOM      3  C   UNL     1      -1.692   3.888   0.311  0.00  0.00    +0.169 A 
ATOM      4  N   UNL     1      -1.232   2.751  -0.153  0.00  0.00    -0.112 NA
ATOM      5  N   UNL     1      -1.982   2.390  -1.136  0.00  0.00    -0.023 NA
ATOM      6  N   UNL     1      -2.904   3.270  -1.316  0.00  0.00    -0.043 NA
ATOM      7  N   UNL     1      -2.759   4.209  -0.444  0.00  0.00    -0.222 N 
BRANCH   7   8
ATOM      8  C   UNL     1      -3.598   5.402  -0.301  0.00  0.00    +0.059 C 
ATOM      9  C   UNL     1      -2.740   6.654  -0.487  0.00  0.00    +0.036 C 
ATOM     10  C   UNL     1      -4.703   5.378  -1.359  0.00  0.00    +0.036 C 
ATOM     11  C   UNL     1      -4.228   5.418   1.094  0.00  0.00    +0.036 C 
ENDBRANCH   7   8
ENDBRANCH   2   3
BRANCH   2  13
ATOM     12  C   UNL     1       0.825   4.953   2.992  0.00  0.00    +0.006 C 
ATOM     13  C   UNL     1       0.272   4.173   1.798  0.00  0.00    +0.023 C 
ENDBRANCH   2  13
ENDBRANCH   1   2
BRANCH   1  14
ATOM     14  C   UNL     1      -1.805   3.218   3.268  0.00  0.00    +0.124 C 
BRANCH  14  15
ATOM     15  C   UNL     1      -2.647   2.186   2.562  0.00  0.00    +0.008 A 
ATOM     16  C   UNL     1      -4.010   2.139   2.779  0.00  0.00    +0.008 A 
ATOM     17  C   UNL     1      -4.782   1.193   2.132  0.00  0.00    +0.001 A 
ATOM     18  C   UNL     1      -4.193   0.292   1.265  0.00  0.00    +0.004 A 
ATOM     19  C   UNL     1      -2.831   0.338   1.040  0.00  0.00    +0.046 A 
ATOM     20  C   UNL     1      -2.053   1.283   1.693  0.00  0.00    +0.124 A 
BRANCH  20  21
ATOM     21  O   UNL     1      -0.712   1.327   1.477  0.00  0.00    -0.495 OA
ATOM     22  C   UNL     1      -0.187   0.456   0.473  0.00  0.00    +0.277 C 
ENDBRANCH  20  21
ENDBRANCH  14  15
ENDBRANCH   1  14
BRANCH   1  23
ATOM     23  C   UNL     1      -1.787   5.617   3.597  0.00  0.00    +0.126 C 
BRANCH  23  24
ATOM     24  C   UNL     1      -2.851   5.563   4.663  0.00  0.00    +0.032 A 
ATOM     25  C   UNL     1      -2.609   4.912   5.827  0.00  0.00    +0.020 A 
ATOM     26  C   UNL     1      -3.662   4.882   6.844  0.00  0.00    +0.002 A 
ATOM     27  C   UNL     1      -3.469   4.231   8.067  0.00  0.00    -0.041 A 
ATOM     28  C   UNL     1      -4.473   4.218   8.993  0.00  0.00    +0.004 A 
ATOM     29  C   UNL     1      -5.684   4.844   8.732  0.00  0.00    +0.005 A 
ATOM     30  C   UNL     1      -5.897   5.491   7.533  0.00  0.00    -0.026 A 
ATOM     31  C   UNL     1      -4.888   5.518   6.575  0.00  0.00    +0.052 A 
ATOM     32  N   UNL     1      -5.074   6.159   5.369  0.00  0.00    -0.322 N 
ATOM     33  H   UNL     1      -6.029   6.658   5.152  0.00  0.00    +0.169 HD
ATOM     34  C   UNL     1      -4.099   6.185   4.443  0.00  0.00    +0.254 A 
ATOM     35  O   UNL     1      -4.298   6.760   3.387  0.00  0.00    -0.268 OA
ATOM     36  C   UNL     1      -7.216   6.167   7.263  0.00  0.00    +0.046 C 
ATOM     37  C   UNL     1      -2.158   3.548   8.362  0.00  0.00    +0.044 C 
ENDBRANCH  23  24
ENDBRANCH   1  23
TORSDOF 9
