REMARK  Name = ZINC61887391
REMARK  4 active torsions:
REMARK  status: ('A' for Active; 'I' for Inactive)
REMARK    1  A    between atoms: C_2  and  C_8
REMARK    2  A    between atoms: N_10  and  C_11
REMARK    3  A    between atoms: C_16  and  C_18
REMARK    4  A    between atoms: N_19  and  O_20
REMARK                            x       y       z     vdW  Elec       q    Type
REMARK                         _______ _______ _______ _____ _____    ______ ____
ROOT
ATOM      1  C   UNL     1       2.431   5.654   0.314  0.00  0.00    +0.083 C 
ATOM      2  C   UNL     1       2.230   6.250  -1.095  0.00  0.00    +0.023 C 
ATOM      3  C   UNL     1       3.188   7.466  -1.133  0.00  0.00    +0.003 C 
ATOM      4  C   UNL     1       4.424   6.953  -0.353  0.00  0.00    +0.013 C 
ATOM      5  C   UNL     1       3.825   6.101   0.787  0.00  0.00    +0.076 C 
ENDROOT
BRANCH   5   6
ATOM      6  C   UNL     1       4.694   4.897   1.044  0.00  0.00    +0.136 C 
ATOM      7  N   UNL     1       4.810   4.428   2.241  0.00  0.00    -0.076 NA
ATOM      8  N   UNL     1       5.364   4.297   0.001  0.00  0.00    -0.344 N 
ATOM      9  H   UNL     1       5.277   4.650  -0.899  0.00  0.00    +0.144 HD
ATOM     10  H   UNL     1       5.924   3.522   0.166  0.00  0.00    +0.144 HD
BRANCH   7  11
ATOM     11  O   UNL     1       4.032   4.970   3.293  0.00  0.00    -0.408 OA
ATOM     12  H   UNL     1       4.242   4.608   4.165  0.00  0.00    +0.328 HD
ENDBRANCH   7  11
ENDBRANCH   5   6
BRANCH   1  15
ATOM     13  C   UNL     1       1.194   3.560   0.462  0.00  0.00    +0.246 C 
ATOM     14  O   UNL     1       0.173   4.205   0.605  0.00  0.00    -0.270 OA
ATOM     15  N   UNL     1       2.366   4.192   0.254  0.00  0.00    -0.308 N 
ATOM     16  H   UNL     1       3.167   3.678   0.066  0.00  0.00    +0.149 HD
BRANCH  13  18
ATOM     17  C   UNL     1      -0.039   1.419   0.843  0.00  0.00    +0.031 A 
ATOM     18  C   UNL     1       1.149   2.083   0.514  0.00  0.00    +0.056 A 
ATOM     19  C   UNL     1       2.289   1.329   0.237  0.00  0.00    +0.123 A 
ATOM     20  N   UNL     1       2.250   0.013   0.283  0.00  0.00    -0.261 NA
ATOM     21  C   UNL     1       1.146  -0.641   0.589  0.00  0.00    +0.126 A 
ATOM     22  C   UNL     1      -0.028   0.035   0.877  0.00  0.00    +0.037 A 
ATOM     23 BR   UNL     1      -1.599  -0.923   1.315  0.00  0.00    -0.049 Br
ENDBRANCH  13  18
ENDBRANCH   1  15
TORSDOF 4
