REMARK  Name = ZINC33596976
REMARK  7 active torsions:
REMARK  status: ('A' for Active; 'I' for Inactive)
REMARK    1  A    between atoms: C_1  and  C_2
REMARK    2  A    between atoms: C_7  and  N_8
REMARK    3  A    between atoms: C_13  and  C_32
REMARK    4  A    between atoms: C_16  and  C_21
REMARK    5  A    between atoms: C_16  and  C_29
REMARK    6  A    between atoms: C_21  and  C_22
REMARK    7  A    between atoms: C_25  and  O_28
REMARK                            x       y       z     vdW  Elec       q    Type
REMARK                         _______ _______ _______ _____ _____    ______ ____
ROOT
ATOM      1  N   UNL     1       4.279   4.842  -1.066  0.00  0.00    -0.210 N 
ATOM      2  C   UNL     1       3.280   5.378  -1.837  0.00  0.00    +0.229 C 
ATOM      3  O   UNL     1       3.404   6.025  -2.854  0.00  0.00    -0.275 OA
ATOM      4  C   UNL     1       2.019   4.998  -1.162  0.00  0.00    +0.078 C 
ATOM      5  C   UNL     1       0.731   4.585  -1.832  0.00  0.00    -0.020 C 
ATOM      6  N   UNL     1       0.118   3.665  -0.815  0.00  0.00    +0.396 N 
ATOM      7  C   UNL     1       1.235   3.094   0.007  0.00  0.00    +0.052 C 
ATOM      8  C   UNL     1       2.472   3.568  -0.664  0.00  0.00    +0.087 C 
ATOM      9  C   UNL     1       3.815   3.893  -0.190  0.00  0.00    +0.229 C 
ATOM     10  O   UNL     1       4.394   3.425   0.768  0.00  0.00    -0.275 OA
ATOM     11  H   UNL     1      -0.576   4.233  -0.178  0.00  0.00    -0.083 HD
ATOM     12  H   UNL     1      -0.430   2.862  -1.329  0.00  0.00    -0.083 HD
ENDROOT
BRANCH   1  19
ATOM     13  C   UNL     1       5.951   3.420  -2.877  0.00  0.00    +0.045 C 
ATOM     14  C   UNL     1       6.474   4.554  -2.034  0.00  0.00    -0.029 A 
ATOM     15  C   UNL     1       7.799   4.933  -2.131  0.00  0.00    +0.005 A 
ATOM     16  C   UNL     1       8.281   5.970  -1.353  0.00  0.00    +0.000 A 
ATOM     17  C   UNL     1       7.439   6.633  -0.480  0.00  0.00    +0.002 A 
ATOM     18  C   UNL     1       6.112   6.261  -0.383  0.00  0.00    +0.024 A 
ATOM     19  C   UNL     1       5.625   5.221  -1.163  0.00  0.00    +0.047 A 
ENDBRANCH   1  19
BRANCH   5  20
ATOM     20  C   UNL     1      -0.156   5.778  -2.079  0.00  0.00    -0.023 A 
ATOM     21  C   UNL     1      -0.421   6.419  -3.244  0.00  0.00    +0.009 A 
ATOM     22  C   UNL     1      -1.277   7.504  -3.232  0.00  0.00    +0.008 A 
ATOM     23  C   UNL     1      -1.826   7.896  -2.057  0.00  0.00    +0.045 A 
ATOM     24  S   UNL     1      -1.137   6.710  -0.914  0.00  0.00    -0.103 S 
ENDBRANCH   5  20
BRANCH   7  25
ATOM     25  C   UNL     1       1.177   1.588  -0.001  0.00  0.00    +0.347 C 
ATOM     26  O   UNL     1       2.199   0.944  -0.014  0.00  0.00    -0.248 OA
ATOM     27  O   UNL     1      -0.011   0.963   0.007  0.00  0.00    -0.248 OA
ENDBRANCH   7  25
BRANCH   7  28
ATOM     28  C   UNL     1       1.167   3.623   1.441  0.00  0.00    +0.035 C 
BRANCH  28  29
ATOM     29  C   UNL     1      -0.116   3.164   2.085  0.00  0.00    -0.048 A 
ATOM     30  C   UNL     1      -1.252   3.946   1.994  0.00  0.00    +0.007 A 
ATOM     31  C   UNL     1      -2.431   3.525   2.579  0.00  0.00    +0.045 A 
ATOM     32  C   UNL     1      -2.471   2.321   3.267  0.00  0.00    +0.117 A 
ATOM     33  C   UNL     1      -1.328   1.540   3.362  0.00  0.00    +0.045 A 
ATOM     34  C   UNL     1      -0.153   1.964   2.771  0.00  0.00    +0.007 A 
BRANCH  32  35
ATOM     35  O   UNL     1      -3.627   1.907   3.848  0.00  0.00    -0.507 OA
ATOM     36  H   UNL     1      -3.658   0.952   4.394  0.00  0.00    +0.292 HD
ENDBRANCH  32  35
ENDBRANCH  28  29
ENDBRANCH   7  28
TORSDOF 6
