REMARK  Name = ZINC21603956
REMARK  13 active torsions:
REMARK  status: ('A' for Active; 'I' for Inactive)
REMARK    1  A    between atoms: C_1  and  C_2
REMARK    2  A    between atoms: C_2  and  C_4
REMARK    3  A    between atoms: C_2  and  S_15
REMARK    4  A    between atoms: N_6  and  C_7
REMARK    5  A    between atoms: C_7  and  C_8
REMARK    6  A    between atoms: C_8  and  C_9
REMARK    7  A    between atoms: S_15  and  C_16
REMARK    8  A    between atoms: N_29  and  C_30
REMARK    9  A    between atoms: C_30  and  C_31
REMARK   10  A    between atoms: C_31  and  C_32
REMARK   11  A    between atoms: C_32  and  N_33
REMARK   12  A    between atoms: N_33  and  C_34
REMARK   13  A    between atoms: N_33  and  C_35
REMARK                            x       y       z     vdW  Elec       q    Type
REMARK                         _______ _______ _______ _____ _____    ______ ____
ROOT
ATOM      1  C   UNL     1       1.137   3.278   0.009  0.00  0.00    +0.173 A 
ATOM      2  N   UNL     1       0.006   3.954   0.022  0.00  0.00    -0.216 NA
ATOM      3  C   UNL     1      -1.163   3.325   0.030  0.00  0.00    +0.117 A 
ATOM      4  C   UNL     1      -1.258   1.923   0.018  0.00  0.00    +0.076 A 
ATOM      5  C   UNL     1      -2.615   1.374   0.033  0.00  0.00    -0.023 A 
ATOM      6  C   UNL     1      -3.633   2.258   0.046  0.00  0.00    -0.004 A 
ATOM      7  S   UNL     1      -2.858   3.852   0.047  0.00  0.00    -0.073 S 
ATOM      8  C   UNL     1      -5.100   1.953   0.058  0.00  0.00    +0.043 C 
ATOM      9  C   UNL     1      -5.291   0.477  -0.320  0.00  0.00    +0.005 C 
ATOM     10  C   UNL     1      -4.319  -0.372   0.505  0.00  0.00    +0.005 C 
ATOM     11  C   UNL     1      -2.885  -0.128   0.030  0.00  0.00    +0.037 C 
ATOM     12  C   UNL     1      -0.015   1.215   0.009  0.00  0.00    +0.263 A 
ATOM     13  O   UNL     1       0.002  -0.004   0.002  0.00  0.00    -0.267 OA
ATOM     14  N   UNL     1       1.136   1.913   0.002  0.00  0.00    -0.287 N 
ENDROOT
BRANCH   1  15
ATOM     15  S   UNL     1       2.669   4.146  -0.001  0.00  0.00    -0.075 S 
BRANCH  15  17
ATOM     16  C   UNL     1       1.331   6.122   1.329  0.00  0.00    +0.029 C 
ATOM     17  C   UNL     1       2.064   5.852   0.013  0.00  0.00    +0.137 C 
BRANCH  17  18
ATOM     18  C   UNL     1       3.229   6.800  -0.117  0.00  0.00    +0.226 C 
ATOM     19  O   UNL     1       4.350   6.422   0.150  0.00  0.00    -0.275 OA
ATOM     20  N   UNL     1       3.024   8.066  -0.529  0.00  0.00    -0.314 N 
ATOM     21  H   UNL     1       2.007   8.409  -0.771  0.00  0.00    +0.149 HD
BRANCH  20  22
ATOM     22  C   UNL     1       4.157   8.987  -0.655  0.00  0.00    +0.109 C 
BRANCH  22  23
ATOM     23  C   UNL     1       3.654  10.350  -1.138  0.00  0.00    +0.054 C 
BRANCH  23  24
ATOM     24  C   UNL     1       4.819  11.297  -1.267  0.00  0.00    -0.046 A 
ATOM     25  C   UNL     1       5.195  12.081  -0.193  0.00  0.00    +0.004 A 
ATOM     26  C   UNL     1       6.267  12.947  -0.310  0.00  0.00    +0.000 A 
ATOM     27  C   UNL     1       6.955  13.036  -1.506  0.00  0.00    +0.000 A 
ATOM     28  C   UNL     1       6.575  12.256  -2.582  0.00  0.00    +0.000 A 
ATOM     29  C   UNL     1       5.507  11.387  -2.463  0.00  0.00    +0.004 A 
ENDBRANCH  23  24
ENDBRANCH  22  23
ENDBRANCH  20  22
ENDBRANCH  17  18
ENDBRANCH  15  17
ENDBRANCH   1  15
BRANCH  14  30
ATOM     30  C   UNL     1       2.413   1.194  -0.014  0.00  0.00    +0.125 C 
BRANCH  30  31
ATOM     31  C   UNL     1       2.844   0.951  -1.462  0.00  0.00    +0.003 C 
BRANCH  31  32
ATOM     32  C   UNL     1       4.177   0.200  -1.478  0.00  0.00    -0.078 C 
BRANCH  32  33
ATOM     33  N   UNL     1       4.590  -0.033  -2.868  0.00  0.00    +0.376 N 
ATOM     34  C   UNL     1       4.895   1.234  -3.546  0.00  0.00    -0.097 C 
ATOM     35  C   UNL     1       5.736  -0.952  -2.929  0.00  0.00    -0.097 C 
ATOM     36  H   UNL     1       3.749  -0.506  -3.396  0.00  0.00    -0.083 HD
ENDBRANCH  32  33
ENDBRANCH  31  32
ENDBRANCH  30  31
ENDBRANCH  14  30
TORSDOF 10
