REMARK  Name = ZINC00673932
REMARK  5 active torsions:
REMARK  status: ('A' for Active; 'I' for Inactive)
REMARK    1  A    between atoms: C_3  and  C_6
REMARK    2  A    between atoms: C_6  and  N_7
REMARK    3  A    between atoms: C_8  and  C_10
REMARK    4  A    between atoms: C_15  and  C_26
REMARK    5  A    between atoms: C_18  and  C_21
REMARK                            x       y       z     vdW  Elec       q    Type
REMARK                         _______ _______ _______ _____ _____    ______ ____
ROOT
ATOM      1  C   UNL     1       5.934   0.556   2.967  0.00  0.00    +0.167 A 
ATOM      2  C   UNL     1       7.293   0.528   3.354  0.00  0.00    +0.112 A 
ATOM      3  C   UNL     1       7.332   0.518   4.702  0.00  0.00    +0.137 A 
ATOM      4  N   UNL     1       6.047   0.540   5.165  0.00  0.00    -0.237 N 
ATOM      5  N   UNL     1       5.194   0.568   4.063  0.00  0.00    -0.163 NA
ATOM      6  C   UNL     1       5.696   0.542   6.588  0.00  0.00    +0.215 C 
ATOM      7  C   UNL     1       6.915   0.996   7.399  0.00  0.00    +0.063 C 
ATOM      8  C   UNL     1       8.151   0.196   6.977  0.00  0.00    +0.111 C 
ATOM      9  N   UNL     1       8.438   0.488   5.558  0.00  0.00    -0.321 N 
ATOM     10 CL   UNL     1       8.663   0.510   2.288  0.00  0.00    -0.078 Cl
ATOM     11  H   UNL     1       9.339   0.651   5.239  0.00  0.00    +0.148 HD
ENDROOT
BRANCH   8  12
ATOM     12  C   UNL     1       7.884  -1.277   7.150  0.00  0.00    +0.010 A 
ATOM     13  C   UNL     1       8.259  -2.100   8.159  0.00  0.00    +0.013 A 
ATOM     14  C   UNL     1       7.897  -3.433   8.108  0.00  0.00    +0.008 A 
ATOM     15  C   UNL     1       7.178  -3.878   7.049  0.00  0.00    +0.045 A 
ATOM     16  S   UNL     1       6.985  -2.390   6.082  0.00  0.00    -0.100 S 
ENDBRANCH   8  12
BRANCH   1  18
ATOM     17  N   UNL     1       4.101   0.607   1.347  0.00  0.00    -0.303 N 
ATOM     18  C   UNL     1       5.428   0.575   1.580  0.00  0.00    +0.266 C 
ATOM     19  O   UNL     1       6.208   0.561   0.648  0.00  0.00    -0.268 OA
ATOM     20  H   UNL     1       3.478   0.617   2.090  0.00  0.00    +0.150 HD
BRANCH  17  21
ATOM     21  C   UNL     1       3.599   0.625  -0.029  0.00  0.00    +0.179 C 
BRANCH  21  24
ATOM     22  C   UNL     1      -0.016   1.341   0.009  0.00  0.00    +0.041 A 
ATOM     23  C   UNL     1       1.331   1.769  -0.001  0.00  0.00    +0.046 A 
ATOM     24  C   UNL     1       2.092   0.660  -0.014  0.00  0.00    +0.122 A 
ATOM     25  O   UNL     1       1.282  -0.411  -0.012  0.00  0.00    -0.466 OA
ATOM     26  C   UNL     1       0.002  -0.004   0.002  0.00  0.00    +0.195 A 
ENDBRANCH  21  24
ENDBRANCH  17  21
ENDBRANCH   1  18
BRANCH   6  27
ATOM     27  C   UNL     1       4.531   1.504   6.828  0.00  0.00    +0.412 C 
ATOM     28  F   UNL     1       3.425   1.093   6.076  0.00  0.00    -0.168 F 
ATOM     29  F   UNL     1       4.197   1.504   8.186  0.00  0.00    -0.168 F 
ATOM     30  F   UNL     1       4.904   2.795   6.439  0.00  0.00    -0.168 F 
ENDBRANCH   6  27
TORSDOF 5
