REMARK  Name = ZINC14167944
REMARK  9 active torsions:
REMARK  status: ('A' for Active; 'I' for Inactive)
REMARK    1  A    between atoms: C_1  and  C_2
REMARK    2  A    between atoms: C_2  and  C_4
REMARK    3  A    between atoms: C_2  and  N_14
REMARK    4  A    between atoms: C_7  and  S_10
REMARK    5  A    between atoms: S_10  and  N_13
REMARK    6  A    between atoms: C_15  and  C_17
REMARK    7  A    between atoms: C_17  and  S_18
REMARK    8  A    between atoms: S_18  and  C_19
REMARK    9  A    between atoms: C_22  and  C_24
REMARK                            x       y       z     vdW  Elec       q    Type
REMARK                         _______ _______ _______ _____ _____    ______ ____
ROOT
ATOM      1  N   UNL     1       0.688  -0.476  -1.203  0.00  0.00    -0.308 N 
ATOM      2  C   UNL     1       0.006  -0.608  -2.358  0.00  0.00    +0.224 C 
ATOM      3  O   UNL     1      -1.175  -0.336  -2.400  0.00  0.00    -0.275 OA
ATOM      4  H   UNL     1       1.632  -0.695  -1.170  0.00  0.00    +0.149 HD
ENDROOT
BRANCH   1   6
ATOM      5  C   UNL     1      -0.019   1.526   0.010  0.00  0.00    +0.033 C 
ATOM      6  C   UNL     1       0.002  -0.004   0.002  0.00  0.00    +0.100 C 
BRANCH   6   7
ATOM      7  C   UNL     1       0.731  -0.503   1.223  0.00  0.00    -0.027 A 
ATOM      8  C   UNL     1       2.113  -0.514   1.247  0.00  0.00    +0.007 A 
ATOM      9  C   UNL     1       2.782  -0.972   2.366  0.00  0.00    +0.029 A 
ATOM     10  C   UNL     1       2.068  -1.419   3.463  0.00  0.00    +0.105 A 
ATOM     11  C   UNL     1       0.686  -1.407   3.439  0.00  0.00    +0.029 A 
ATOM     12  C   UNL     1       0.017  -0.945   2.321  0.00  0.00    +0.007 A 
BRANCH  10  13
ATOM     13  S   UNL     1       2.920  -2.003   4.890  0.00  0.00    +0.056 S 
ATOM     14  O   UNL     1       2.026  -2.874   5.569  0.00  0.00    -0.153 OA
ATOM     15  O   UNL     1       4.206  -2.422   4.452  0.00  0.00    -0.153 OA
BRANCH  13  16
ATOM     16  N   UNL     1       3.159  -0.702   5.885  0.00  0.00    -0.204 NA
ATOM     17  H   UNL     1       2.842   0.176   5.621  0.00  0.00    +0.144 HD
ATOM     18  H   UNL     1       3.617  -0.817   6.732  0.00  0.00    +0.144 HD
ENDBRANCH  13  16
ENDBRANCH  10  13
ENDBRANCH   6   7
ENDBRANCH   1   6
BRANCH   2  19
ATOM     19  C   UNL     1       0.712  -1.094  -3.598  0.00  0.00    +0.174 C 
BRANCH  19  20
ATOM     20  S   UNL     1      -0.466  -1.164  -4.976  0.00  0.00    -0.056 S 
BRANCH  20  21
ATOM     21  C   UNL     1       0.498  -1.742  -6.333  0.00  0.00    +0.278 A 
ATOM     22  N   UNL     1       1.773  -2.046  -6.304  0.00  0.00    -0.101 NA
ATOM     23  N   UNL     1       2.148  -2.433  -7.472  0.00  0.00    -0.106 NA
ATOM     24  C   UNL     1       1.127  -2.391  -8.294  0.00  0.00    +0.251 A 
ATOM     25  O   UNL     1       0.059  -1.957  -7.589  0.00  0.00    -0.411 OA
BRANCH  24  26
ATOM     26  C   UNL     1       1.141  -2.756  -9.724  0.00  0.00    +0.063 A 
ATOM     27  C   UNL     1       0.089  -2.709 -10.584  0.00  0.00    +0.097 A 
ATOM     28  N   UNL     1       0.488  -3.122 -11.821  0.00  0.00    -0.360 N 
ATOM     29  H   UNL     1      -0.087  -3.174 -12.601  0.00  0.00    +0.165 HD
ATOM     30  C   UNL     1       1.826  -3.453 -11.805  0.00  0.00    +0.047 A 
ATOM     31  C   UNL     1       2.298  -3.235 -10.499  0.00  0.00    +0.012 A 
ATOM     32  C   UNL     1       3.633  -3.483 -10.189  0.00  0.00    +0.011 A 
ATOM     33  C   UNL     1       4.487  -3.940 -11.169  0.00  0.00    +0.001 A 
ATOM     34  C   UNL     1       4.024  -4.152 -12.459  0.00  0.00    +0.002 A 
ATOM     35  C   UNL     1       2.704  -3.919 -12.778  0.00  0.00    +0.026 A 
ENDBRANCH  24  26
ENDBRANCH  20  21
ENDBRANCH  19  20
ENDBRANCH   2  19
TORSDOF 8
