REMARK  Name = ZINC05164040
REMARK  4 active torsions:
REMARK  status: ('A' for Active; 'I' for Inactive)
REMARK    1  A    between atoms: C_1  and  C_2
REMARK    2  A    between atoms: C_5  and  C_8
REMARK    3  A    between atoms: C_15  and  N_29
REMARK    4  A    between atoms: C_16  and  C_27
REMARK                            x       y       z     vdW  Elec       q    Type
REMARK                         _______ _______ _______ _____ _____    ______ ____
ROOT
ATOM      1  C   UNL     1       0.058  -4.252  -0.021  0.00  0.00    +0.074 A 
ATOM      2  C   UNL     1      -0.632  -5.069   0.810  0.00  0.00    +0.066 A 
ATOM      3  C   UNL     1      -0.331  -6.402   0.462  0.00  0.00    +0.246 A 
ATOM      4  N   UNL     1       0.506  -6.386  -0.536  0.00  0.00    -0.135 NA
ATOM      5  N   UNL     1       0.771  -5.049  -0.872  0.00  0.00    -0.273 N 
ATOM      6  H   UNL     1       1.357  -4.745  -1.583  0.00  0.00    +0.189 HD
ATOM      7  O   UNL     1      -0.878  -7.458   1.122  0.00  0.00    -0.421 OA
ATOM      8  C   UNL     1      -1.917  -7.215   1.946  0.00  0.00    +0.201 C 
ATOM      9  C   UNL     1      -2.293  -5.983   2.357  0.00  0.00    +0.110 C 
ATOM     10  C   UNL     1      -1.574  -4.733   1.932  0.00  0.00    +0.145 C 
ATOM     11  C   UNL     1      -0.851  -4.104   3.079  0.00  0.00    -0.002 A 
ATOM     12  C   UNL     1       0.160  -4.571   3.891  0.00  0.00    +0.007 A 
ATOM     13  C   UNL     1       0.618  -3.713   4.885  0.00  0.00    +0.000 A 
ATOM     14  C   UNL     1       0.083  -2.451   5.048  0.00  0.00    +0.002 A 
ATOM     15  C   UNL     1      -0.933  -1.974   4.235  0.00  0.00    +0.023 A 
ATOM     16  C   UNL     1      -1.403  -2.826   3.234  0.00  0.00    +0.038 A 
ATOM     17  N   UNL     1      -2.397  -2.613   2.295  0.00  0.00    -0.284 N 
ATOM     18  C   UNL     1      -2.567  -3.682   1.487  0.00  0.00    +0.238 C 
ATOM     19  O   UNL     1      -3.364  -3.780   0.579  0.00  0.00    -0.274 OA
ATOM     20  H   UNL     1      -2.910  -1.793   2.224  0.00  0.00    +0.155 HD
ENDROOT
BRANCH   1  25
ATOM     21  C   UNL     1      -0.018   1.503   0.011  0.00  0.00    +0.044 C 
ATOM     22  C   UNL     1       0.002  -0.004   0.002  0.00  0.00    -0.050 A 
ATOM     23  C   UNL     1      -0.276  -0.690  -1.166  0.00  0.00    +0.004 A 
ATOM     24  C   UNL     1      -0.260  -2.070  -1.181  0.00  0.00    +0.010 A 
ATOM     25  C   UNL     1       0.039  -2.773  -0.013  0.00  0.00    +0.000 A 
ATOM     26  C   UNL     1       0.320  -2.075   1.162  0.00  0.00    +0.010 A 
ATOM     27  C   UNL     1       0.305  -0.695   1.162  0.00  0.00    +0.004 A 
ENDBRANCH   1  25
BRANCH   8  28
ATOM     28  N   UNL     1      -2.642  -8.290   2.396  0.00  0.00    -0.328 N 
ATOM     29  H   UNL     1      -2.400  -9.188   2.121  0.00  0.00    +0.145 HD
ATOM     30  H   UNL     1      -3.397  -8.151   2.990  0.00  0.00    +0.145 HD
ENDBRANCH   8  28
BRANCH   9  31
ATOM     31  C   UNL     1      -3.420  -5.865   3.232  0.00  0.00    +0.102 C 
ATOM     32  N   UNL     1      -4.314  -5.771   3.926  0.00  0.00    -0.191 NA
ENDBRANCH   9  31
TORSDOF 3
