REMARK  Name = ZINC40794705
REMARK  7 active torsions:
REMARK  status: ('A' for Active; 'I' for Inactive)
REMARK    1  A    between atoms: C_1  and  C_2
REMARK    2  A    between atoms: C_5  and  S_8
REMARK    3  A    between atoms: S_8  and  N_11
REMARK    4  A    between atoms: N_11  and  N_12
REMARK    5  A    between atoms: C_14  and  N_27
REMARK    6  A    between atoms: C_15  and  N_19
REMARK    7  A    between atoms: C_23  and  C_26
REMARK                            x       y       z     vdW  Elec       q    Type
REMARK                         _______ _______ _______ _____ _____    ______ ____
ROOT
ATOM      1  N   UNL     1       2.487  -4.622   1.026  0.00  0.00    -0.244 N 
ATOM      2  C   UNL     1       3.196  -5.589   1.728  0.00  0.00    +0.159 A 
ATOM      3  C   UNL     1       4.044  -5.226   2.776  0.00  0.00    +0.107 A 
ATOM      4  C   UNL     1       4.732  -6.237   3.448  0.00  0.00    +0.150 A 
ATOM      5  N   UNL     1       4.555  -7.500   3.068  0.00  0.00    -0.219 NA
ATOM      6  C   UNL     1       3.745  -7.800   2.073  0.00  0.00    +0.225 A 
ATOM      7  N   UNL     1       3.073  -6.877   1.416  0.00  0.00    -0.218 NA
ATOM      8  H   UNL     1       2.582  -3.686   1.260  0.00  0.00    +0.169 HD
ENDROOT
BRANCH   4   9
ATOM      9  N   UNL     1       5.590  -5.929   4.500  0.00  0.00    -0.283 N 
ATOM     10  C   UNL     1       6.186  -6.950   5.233  0.00  0.00    +0.124 A 
ATOM     11  C   UNL     1       6.956  -6.639   6.349  0.00  0.00    +0.044 A 
ATOM     12  C   UNL     1       7.542  -7.664   7.069  0.00  0.00    +0.008 A 
ATOM     13  C   UNL     1       7.338  -8.971   6.647  0.00  0.00    -0.032 A 
ATOM     14  C   UNL     1       6.562  -9.208   5.530  0.00  0.00    +0.116 A 
ATOM     15  N   UNL     1       6.011  -8.210   4.865  0.00  0.00    -0.240 NA
ATOM     16  C   UNL     1       7.958 -10.120   7.400  0.00  0.00    +0.045 C 
ATOM     17  H   UNL     1       5.772  -5.003   4.721  0.00  0.00    +0.155 HD
ENDBRANCH   4   9
BRANCH   3  18
ATOM     18  N   UNL     1       4.200  -3.879   3.143  0.00  0.00    -0.353 N 
ATOM     19  H   UNL     1       3.716  -3.187   2.667  0.00  0.00    +0.143 HD
ATOM     20  H   UNL     1       4.793  -3.642   3.874  0.00  0.00    +0.143 HD
ENDBRANCH   3  18
BRANCH   1  21
ATOM     21  N   UNL     1       1.635  -5.000  -0.020  0.00  0.00    -0.109 NA
ATOM     22  H   UNL     1       1.975  -5.535  -0.754  0.00  0.00    +0.172 HD
BRANCH  21  23
ATOM     23  S   UNL     1       0.046  -4.533  -0.003  0.00  0.00    +0.074 S 
ATOM     24  O   UNL     1      -0.488  -4.956   1.244  0.00  0.00    -0.152 OA
ATOM     25  O   UNL     1      -0.510  -4.939  -1.246  0.00  0.00    -0.152 OA
BRANCH  23  30
ATOM     26  C   UNL     1      -0.045   1.500   0.038  0.00  0.00    +0.044 C 
ATOM     27  C   UNL     1      -0.022  -0.007   0.028  0.00  0.00    -0.050 A 
ATOM     28  C   UNL     1      -0.021  -0.690  -1.174  0.00  0.00    +0.005 A 
ATOM     29  C   UNL     1      -0.000  -2.072  -1.183  0.00  0.00    +0.029 A 
ATOM     30  C   UNL     1       0.020  -2.772   0.009  0.00  0.00    +0.107 A 
ATOM     31  C   UNL     1       0.020  -2.089   1.211  0.00  0.00    +0.029 A 
ATOM     32  C   UNL     1       0.004  -0.706   1.220  0.00  0.00    +0.005 A 
ENDBRANCH  23  30
ENDBRANCH  21  23
ENDBRANCH   1  21
TORSDOF 5
