REMARK  Name = ZINC63362323
REMARK  10 active torsions:
REMARK  status: ('A' for Active; 'I' for Inactive)
REMARK    1  A    between atoms: C_1  and  C_2
REMARK    2  A    between atoms: C_2  and  C_3
REMARK    3  A    between atoms: C_3  and  C_4
REMARK    4  A    between atoms: C_4  and  C_5
REMARK    5  A    between atoms: C_5  and  N_6
REMARK    6  A    between atoms: C_7  and  C_9
REMARK    7  A    between atoms: C_12  and  N_15
REMARK    8  A    between atoms: C_18  and  C_36
REMARK    9  A    between atoms: C_24  and  O_29
REMARK   10  A    between atoms: O_29  and  C_30
REMARK                            x       y       z     vdW  Elec       q    Type
REMARK                         _______ _______ _______ _____ _____    ______ ____
ROOT
ATOM      1  N   UNL     1       2.203 -10.328   3.434  0.00  0.00    -0.192 N 
ATOM      2  C   UNL     1       2.854 -11.082   4.344  0.00  0.00    +0.253 C 
ATOM      3  O   UNL     1       3.535 -10.691   5.268  0.00  0.00    -0.272 OA
ATOM      4  C   UNL     1       2.555 -12.518   3.972  0.00  0.00    +0.137 C 
ATOM      5  C   UNL     1       3.848 -13.277   3.676  0.00  0.00    +0.139 C 
ATOM      6  C   UNL     1       3.870 -13.570   2.183  0.00  0.00    -0.034 C 
ATOM      7  C   UNL     1       5.005 -13.055   1.720  0.00  0.00    +0.003 A 
ATOM      8  C   UNL     1       5.615 -13.072   0.381  0.00  0.00    +0.055 A 
ATOM      9  C   UNL     1       6.804 -12.425   0.244  0.00  0.00    +0.121 A 
ATOM     10  C   UNL     1       7.459 -11.758   1.290  0.00  0.00    +0.047 A 
ATOM     11  C   UNL     1       6.990 -11.684   2.561  0.00  0.00    +0.029 A 
ATOM     12  C   UNL     1       5.710 -12.352   2.835  0.00  0.00    +0.043 A 
ATOM     13  N   UNL     1       5.034 -12.463   3.956  0.00  0.00    -0.375 N 
ATOM     14  C   UNL     1       2.742 -14.252   1.449  0.00  0.00    +0.052 C 
ATOM     15  C   UNL     1       1.446 -13.503   1.819  0.00  0.00    +0.115 C 
ATOM     16  N   UNL     1       1.806 -12.392   2.705  0.00  0.00    -0.268 N 
ATOM     17  C   UNL     1       1.573 -11.085   2.525  0.00  0.00    +0.316 C 
ATOM     18  O   UNL     1       0.873 -10.636   1.639  0.00  0.00    -0.252 OA
ATOM     19  C   UNL     1       1.719 -13.211   5.050  0.00  0.00    +0.044 C 
ATOM     20  H   UNL     1       5.267 -12.077   4.815  0.00  0.00    +0.160 HD
ENDROOT
BRANCH   1  24
ATOM     21  C   UNL     1       2.145  -6.160   3.458  0.00  0.00    +0.037 A 
ATOM     22  C   UNL     1       1.567  -6.862   2.398  0.00  0.00    +0.015 A 
ATOM     23  C   UNL     1       1.587  -8.239   2.393  0.00  0.00    +0.025 A 
ATOM     24  C   UNL     1       2.183  -8.931   3.442  0.00  0.00    +0.045 A 
ATOM     25  C   UNL     1       2.760  -8.235   4.500  0.00  0.00    +0.025 A 
ATOM     26  C   UNL     1       2.748  -6.858   4.508  0.00  0.00    +0.015 A 
BRANCH  21  28
ATOM     27  N   UNL     1       1.543  -4.012   2.453  0.00  0.00    -0.311 N 
ATOM     28  C   UNL     1       2.125  -4.684   3.466  0.00  0.00    +0.244 C 
ATOM     29  O   UNL     1       2.633  -4.074   4.387  0.00  0.00    -0.270 OA
ATOM     30  H   UNL     1       1.138  -4.499   1.718  0.00  0.00    +0.149 HD
BRANCH  27  31
ATOM     31  C   UNL     1       1.524  -2.547   2.461  0.00  0.00    +0.104 C 
BRANCH  31  32
ATOM     32  C   UNL     1       0.809  -2.040   1.206  0.00  0.00    +0.019 C 
BRANCH  32  33
ATOM     33  C   UNL     1       0.788  -0.510   1.215  0.00  0.00    +0.001 C 
BRANCH  33  35
ATOM     34  C   UNL     1       0.053   1.527  -0.031  0.00  0.00    +0.004 C 
ATOM     35  C   UNL     1       0.074  -0.003  -0.039  0.00  0.00    -0.003 C 
ENDBRANCH  33  35
ENDBRANCH  32  33
ENDBRANCH  31  32
ENDBRANCH  27  31
ENDBRANCH  21  28
ENDBRANCH   1  24
BRANCH   9  36
ATOM     36  O   UNL     1       7.393 -12.424  -0.981  0.00  0.00    -0.495 OA
ATOM     37  C   UNL     1       8.641 -11.739  -1.101  0.00  0.00    +0.277 C 
ENDBRANCH   9  36
TORSDOF 7
