REMARK  Name = ZINC00519851
REMARK  7 active torsions:
REMARK  status: ('A' for Active; 'I' for Inactive)
REMARK    1  A    between atoms: C_1  and  C_2
REMARK    2  A    between atoms: C_14  and  O_31
REMARK    3  A    between atoms: C_18  and  C_30
REMARK    4  A    between atoms: C_23  and  C_29
REMARK    5  A    between atoms: C_24  and  C_25
REMARK    6  A    between atoms: C_24  and  O_28
REMARK    7  A    between atoms: C_25  and  C_27
REMARK                            x       y       z     vdW  Elec       q    Type
REMARK                         _______ _______ _______ _____ _____    ______ ____
ROOT
ATOM      1  C   UNL     1       1.934   3.389  -2.001  0.00  0.00    +0.011 C 
ATOM      2  C   UNL     1       1.948   1.908  -1.617  0.00  0.00    +0.026 C 
ATOM      3  C   UNL     1       3.406   1.407  -1.485  0.00  0.00    +0.011 C 
ATOM      4  C   UNL     1       3.344   0.440  -0.289  0.00  0.00    +0.002 C 
ATOM      5  C   UNL     1       4.719   0.180   0.292  0.00  0.00    -0.004 C 
ATOM      6  C   UNL     1       4.622  -0.888   1.380  0.00  0.00    +0.004 C 
ATOM      7  C   UNL     1       5.858  -0.867   2.281  0.00  0.00    +0.004 C 
ATOM      8  C   UNL     1       7.010  -0.242   1.505  0.00  0.00    -0.002 C 
ATOM      9  C   UNL     1       8.350  -0.419   2.210  0.00  0.00    +0.035 C 
ATOM     10  C   UNL     1       9.448   0.193   1.332  0.00  0.00    +0.115 C 
ATOM     11  C   UNL     1       9.165   1.672   1.077  0.00  0.00    +0.032 C 
ATOM     12  C   UNL     1       7.795   1.839   0.403  0.00  0.00    +0.010 C 
ATOM     13  C   UNL     1       6.737   1.256   1.337  0.00  0.00    -0.026 C 
ATOM     14  C   UNL     1       5.325   1.471   0.831  0.00  0.00    -0.001 C 
ATOM     15  C   UNL     1       4.417   2.002   1.944  0.00  0.00    +0.005 C 
ATOM     16  C   UNL     1       3.062   2.356   1.363  0.00  0.00    +0.010 C 
ATOM     17  C   UNL     1       2.397   1.150   0.696  0.00  0.00    +0.007 C 
ATOM     18  C   UNL     1       1.292   1.715  -0.237  0.00  0.00    +0.131 C 
ATOM     19  C   UNL     1       1.826   0.178   1.730  0.00  0.00    +0.015 C 
ATOM     20  C   UNL     1       6.880   1.938   2.700  0.00  0.00    +0.012 C 
ENDROOT
BRANCH  18  21
ATOM     21  C   UNL     1       0.150   0.737  -0.339  0.00  0.00    +0.162 C 
ATOM     22  O   UNL     1       0.364  -0.450  -0.275  0.00  0.00    -0.295 OA
ATOM     23  C   UNL     1      -1.258   1.240  -0.527  0.00  0.00    +0.089 C 
ENDBRANCH  18  21
BRANCH  18  24
ATOM     24  O   UNL     1       0.821   2.968   0.263  0.00  0.00    -0.380 OA
ATOM     25  H   UNL     1       0.138   3.378  -0.285  0.00  0.00    +0.211 HD
ENDBRANCH  18  24
BRANCH  10  26
ATOM     26  O   UNL     1       9.494  -0.499   0.082  0.00  0.00    -0.392 OA
ATOM     27  H   UNL     1      10.167  -0.166  -0.527  0.00  0.00    +0.210 HD
ENDBRANCH  10  26
TORSDOF 3
