REMARK  Name = ZINC09137498
REMARK  7 active torsions:
REMARK  status: ('A' for Active; 'I' for Inactive)
REMARK    1  A    between atoms: C_1  and  N_2
REMARK    2  A    between atoms: C_10  and  C_12
REMARK    3  A    between atoms: C_12  and  C_14
REMARK    4  A    between atoms: C_12  and  N_61
REMARK    5  A    between atoms: C_14  and  N_15
REMARK    6  A    between atoms: C_16  and  C_18
REMARK    7  A    between atoms: C_20  and  N_25
REMARK                            x       y       z     vdW  Elec       q    Type
REMARK                         _______ _______ _______ _____ _____    ______ ____
ROOT
ATOM      1  C   UNL     1       2.878  -2.272   4.218  0.00  0.00    -0.020 C 
ENDROOT
BRANCH   1  11
ATOM      2  C   UNL     1      -1.110   1.220   0.782  0.00  0.00    +0.129 C 
ATOM      3  N   UNL     1       0.319   1.124   0.458  0.00  0.00    -0.333 N 
ATOM      4  C   UNL     1       0.915   2.453   0.312  0.00  0.00    +0.105 C 
ATOM      5  C   UNL     1       2.409   2.291   0.004  0.00  0.00    +0.024 C 
ATOM      6  C   UNL     1       3.089   1.727   1.253  0.00  0.00    +0.038 C 
ATOM      7  C   UNL     1       2.291   0.562   1.783  0.00  0.00    -0.026 A 
ATOM      8  C   UNL     1       0.988   0.322   1.382  0.00  0.00    +0.033 A 
ATOM      9  C   UNL     1       0.297  -0.767   1.915  0.00  0.00    +0.023 A 
ATOM     10  C   UNL     1       0.906  -1.601   2.829  0.00  0.00    +0.004 A 
ATOM     11  C   UNL     1       2.209  -1.360   3.222  0.00  0.00    -0.059 A 
ATOM     12  C   UNL     1       2.897  -0.282   2.700  0.00  0.00    +0.007 A 
ENDBRANCH   1  11
BRANCH   1  18
ATOM     13  C   UNL     1       3.506  -3.468   2.209  0.00  0.00    -0.078 C 
ATOM     14  C   UNL     1       3.851  -4.852   1.653  0.00  0.00    -0.019 C 
ATOM     15  C   UNL     1       2.622  -5.759   1.757  0.00  0.00    -0.004 C 
ATOM     16  C   UNL     1       2.174  -5.833   3.219  0.00  0.00    -0.019 C 
ATOM     17  C   UNL     1       1.878  -4.421   3.730  0.00  0.00    -0.078 C 
ATOM     18  N   UNL     1       3.107  -3.606   3.626  0.00  0.00    +0.385 N 
ATOM     19  H   UNL     1       3.861  -4.075   4.141  0.00  0.00    -0.081 HD
ENDBRANCH   1  18
BRANCH   1  20
ATOM     20  C   UNL     1       1.991  -2.413   5.456  0.00  0.00    +0.094 C 
BRANCH  20  21
ATOM     21  N   UNL     1       2.680  -3.227   6.460  0.00  0.00    -0.313 N 
ATOM     22  C   UNL     1       2.049  -3.565   7.602  0.00  0.00    +0.246 C 
ATOM     23  O   UNL     1       0.908  -3.195   7.799  0.00  0.00    -0.270 OA
ATOM     24  H   UNL     1       3.591  -3.522   6.304  0.00  0.00    +0.149 HD
BRANCH  22  25
ATOM     25  C   UNL     1       2.744  -4.386   8.615  0.00  0.00    +0.057 A 
ATOM     26  C   UNL     1       4.053  -4.819   8.390  0.00  0.00    +0.047 A 
ATOM     27  C   UNL     1       4.697  -5.581   9.341  0.00  0.00    +0.127 A 
ATOM     28  C   UNL     1       4.047  -5.927  10.514  0.00  0.00    +0.034 A 
ATOM     29  C   UNL     1       2.750  -5.507  10.742  0.00  0.00    +0.023 A 
ATOM     30  C   UNL     1       2.094  -4.739   9.800  0.00  0.00    +0.053 A 
ATOM     31 CL   UNL     1       0.465  -4.212  10.088  0.00  0.00    -0.083 Cl
BRANCH  27  32
ATOM     32  N   UNL     1       6.086  -6.036   9.106  0.00  0.00    +0.056 N 
ATOM     33  O   UNL     1       6.655  -6.714   9.943  0.00  0.00    -0.126 OA
ATOM     34  O   UNL     1       6.660  -5.732   8.075  0.00  0.00    -0.126 OA
ENDBRANCH  27  32
ENDBRANCH  22  25
ENDBRANCH  20  21
ENDBRANCH   1  20
TORSDOF 6
