REMARK  Name = ZINC38671081
REMARK  12 active torsions:
REMARK  status: ('A' for Active; 'I' for Inactive)
REMARK    1  A    between atoms: C_1  and  C_2
REMARK    2  A    between atoms: C_2  and  N_3
REMARK    3  A    between atoms: N_3  and  C_4
REMARK    4  A    between atoms: N_3  and  S_6
REMARK    5  A    between atoms: C_4  and  C_5
REMARK    6  A    between atoms: S_6  and  C_9
REMARK    7  A    between atoms: C_12  and  C_15
REMARK    8  A    between atoms: N_17  and  C_18
REMARK    9  A    between atoms: C_18  and  C_19
REMARK   10  A    between atoms: C_19  and  C_21
REMARK   11  A    between atoms: C_19  and  N_32
REMARK   12  A    between atoms: N_30  and  C_31
REMARK                            x       y       z     vdW  Elec       q    Type
REMARK                         _______ _______ _______ _____ _____    ______ ____
ROOT
ATOM      1  C   UNL     1      -6.719   5.273   3.800  0.00  0.00    +0.094 C 
ENDROOT
BRANCH   1   4
ATOM      2  C   UNL     1      -5.610   5.419   5.965  0.00  0.00    +0.244 C 
ATOM      3  O   UNL     1      -4.548   5.241   5.401  0.00  0.00    -0.270 OA
ATOM      4  N   UNL     1      -6.754   5.452   5.254  0.00  0.00    -0.313 N 
ATOM      5  H   UNL     1      -7.602   5.593   5.705  0.00  0.00    +0.149 HD
BRANCH   2   9
ATOM      6  C   UNL     1      -5.713   5.937  10.180  0.00  0.00    +0.106 A 
ATOM      7  C   UNL     1      -4.503   5.735   9.540  0.00  0.00    +0.029 A 
ATOM      8  C   UNL     1      -4.463   5.566   8.172  0.00  0.00    +0.015 A 
ATOM      9  C   UNL     1      -5.646   5.599   7.432  0.00  0.00    +0.037 A 
ATOM     10  C   UNL     1      -6.863   5.803   8.084  0.00  0.00    +0.015 A 
ATOM     11  C   UNL     1      -6.890   5.966   9.453  0.00  0.00    +0.029 A 
BRANCH   6  12
ATOM     12  S   UNL     1      -5.756   6.153  11.928  0.00  0.00    +0.061 S 
ATOM     13  O   UNL     1      -6.951   6.863  12.221  0.00  0.00    -0.153 OA
ATOM     14  O   UNL     1      -4.473   6.630  12.310  0.00  0.00    -0.153 OA
BRANCH  12  15
ATOM     15  N   UNL     1      -5.922   4.649  12.603  0.00  0.00    -0.177 NA
BRANCH  15  17
ATOM     16  C   UNL     1      -4.401   2.912  11.797  0.00  0.00    +0.022 C 
ATOM     17  C   UNL     1      -4.733   3.865  12.947  0.00  0.00    +0.106 C 
ENDBRANCH  15  17
BRANCH  15  18
ATOM     18  C   UNL     1      -7.258   4.104  12.855  0.00  0.00    +0.106 C 
ATOM     19  C   UNL     1      -7.663   4.396  14.301  0.00  0.00    +0.022 C 
ENDBRANCH  15  18
ENDBRANCH  12  15
ENDBRANCH   6  12
ENDBRANCH   2   9
ENDBRANCH   1   4
BRANCH   1  20
ATOM     20  C   UNL     1      -8.148   5.239   3.256  0.00  0.00    -0.020 C 
BRANCH  20  21
ATOM     21  C   UNL     1      -8.811   6.570   3.499  0.00  0.00    -0.059 A 
ATOM     22  C   UNL     1      -8.555   7.633   2.652  0.00  0.00    +0.004 A 
ATOM     23  C   UNL     1      -9.161   8.853   2.877  0.00  0.00    +0.023 A 
ATOM     24  C   UNL     1     -10.028   9.012   3.952  0.00  0.00    +0.033 A 
ATOM     25  C   UNL     1     -10.286   7.945   4.799  0.00  0.00    -0.026 A 
ATOM     26  C   UNL     1      -9.676   6.724   4.565  0.00  0.00    +0.007 A 
ATOM     27  C   UNL     1     -11.227   8.078   5.967  0.00  0.00    +0.038 C 
ATOM     28  C   UNL     1     -11.396   9.546   6.355  0.00  0.00    +0.024 C 
ATOM     29  C   UNL     1     -11.757  10.352   5.100  0.00  0.00    +0.105 C 
ATOM     30  N   UNL     1     -10.628  10.258   4.165  0.00  0.00    -0.333 N 
ATOM     31  C   UNL     1     -10.138  11.449   3.467  0.00  0.00    +0.129 C 
ENDBRANCH  20  21
BRANCH  20  32
ATOM     32  N   UNL     1      -8.116   4.965   1.813  0.00  0.00    +0.385 N 
ATOM     33  C   UNL     1      -9.484   4.984   1.282  0.00  0.00    -0.078 C 
ATOM     34  C   UNL     1      -9.450   4.779  -0.234  0.00  0.00    -0.019 C 
ATOM     35  C   UNL     1      -8.797   3.429  -0.547  0.00  0.00    -0.004 C 
ATOM     36  C   UNL     1      -7.399   3.393   0.075  0.00  0.00    -0.019 C 
ATOM     37  C   UNL     1      -7.509   3.649   1.579  0.00  0.00    -0.078 C 
ATOM     38  H   UNL     1      -7.567   5.674   1.349  0.00  0.00    -0.081 HD
ENDBRANCH  20  32
ENDBRANCH   1  20
TORSDOF 9
