REMARK  Name = ZINC40363212
REMARK  11 active torsions:
REMARK  status: ('A' for Active; 'I' for Inactive)
REMARK    1  A    between atoms: C_1  and  C_2
REMARK    2  A    between atoms: C_2  and  C_3
REMARK    3  A    between atoms: C_2  and  N_4
REMARK    4  A    between atoms: N_4  and  C_5
REMARK    5  A    between atoms: N_4  and  C_13
REMARK    6  A    between atoms: C_5  and  C_6
REMARK    7  A    between atoms: C_13  and  C_14
REMARK    8  A    between atoms: C_17  and  C_19
REMARK    9  A    between atoms: N_24  and  C_27
REMARK   10  A    between atoms: C_30  and  O_33
REMARK   11  A    between atoms: O_33  and  C_34
REMARK                            x       y       z     vdW  Elec       q    Type
REMARK                         _______ _______ _______ _____ _____    ______ ____
ROOT
ATOM      1  C   UNL     1      -2.881   1.584  -1.861  0.00  0.00    +0.090 A 
ATOM      2  C   UNL     1      -2.107   2.386  -2.625  0.00  0.00    +0.043 A 
ATOM      3  C   UNL     1      -2.670   3.671  -2.576  0.00  0.00    +0.055 A 
ATOM      4  C   UNL     1      -3.772   3.587  -1.775  0.00  0.00    +0.190 A 
ATOM      5  O   UNL     1      -3.886   2.310  -1.355  0.00  0.00    -0.457 OA
ENDROOT
BRANCH   4   6
ATOM      6  C   UNL     1      -4.677   4.690  -1.435  0.00  0.00    +0.282 C 
ATOM      7  O   UNL     1      -4.560   5.766  -1.991  0.00  0.00    -0.267 OA
ATOM      8  N   UNL     1      -5.637   4.512  -0.506  0.00  0.00    -0.292 N 
ATOM      9  C   UNL     1      -5.695   3.273   0.282  0.00  0.00    +0.127 C 
ATOM     10  C   UNL     1      -5.674   3.638   1.771  0.00  0.00    +0.124 C 
ATOM     11  N   UNL     1      -6.682   4.680   2.014  0.00  0.00    -0.327 N 
ATOM     12  C   UNL     1      -6.624   5.918   1.225  0.00  0.00    +0.124 C 
ATOM     13  C   UNL     1      -6.642   5.556  -0.260  0.00  0.00    +0.127 C 
BRANCH  11  14
ATOM     14  C   UNL     1      -7.679   4.495   2.978  0.00  0.00    +0.030 A 
ATOM     15  C   UNL     1      -8.693   5.434   3.118  0.00  0.00    +0.027 A 
ATOM     16  C   UNL     1      -9.677   5.250   4.069  0.00  0.00    +0.047 A 
ATOM     17  C   UNL     1      -9.653   4.128   4.885  0.00  0.00    +0.120 A 
ATOM     18  C   UNL     1      -8.641   3.190   4.746  0.00  0.00    +0.047 A 
ATOM     19  C   UNL     1      -7.659   3.369   3.791  0.00  0.00    +0.027 A 
BRANCH  17  20
ATOM     20  O   UNL     1     -10.623   3.948   5.821  0.00  0.00    -0.495 OA
ATOM     21  C   UNL     1     -10.537   2.771   6.626  0.00  0.00    +0.277 C 
ENDBRANCH  17  20
ENDBRANCH  11  14
ENDBRANCH   4   6
BRANCH   1  22
ATOM     22  C   UNL     1      -2.654   0.113  -1.623  0.00  0.00    -0.002 C 
BRANCH  22  23
ATOM     23  N   UNL     1      -1.978  -0.075  -0.332  0.00  0.00    +0.389 N 
ATOM     24  H   UNL     1      -2.486   0.415   0.388  0.00  0.00    -0.080 HD
BRANCH  23  26
ATOM     25  C   UNL     1      -0.038   0.177  -1.806  0.00  0.00    -0.013 C 
ATOM     26  C   UNL     1      -0.610   0.454  -0.414  0.00  0.00    -0.074 C 
ATOM     27  C   UNL     1      -0.631   1.963  -0.162  0.00  0.00    -0.013 C 
ENDBRANCH  23  26
BRANCH  23  28
ATOM     28  C   UNL     1      -1.930  -1.508  -0.009  0.00  0.00    -0.042 C 
BRANCH  28  29
ATOM     29  C   UNL     1      -1.393  -1.690   1.387  0.00  0.00    -0.064 A 
ATOM     30  C   UNL     1      -0.045  -1.926   1.583  0.00  0.00    +0.003 A 
ATOM     31  C   UNL     1       0.449  -2.093   2.863  0.00  0.00    +0.015 A 
ATOM     32  C   UNL     1      -0.406  -2.024   3.948  0.00  0.00    +0.018 A 
ATOM     33  C   UNL     1      -1.755  -1.788   3.752  0.00  0.00    +0.015 A 
ATOM     34  C   UNL     1      -2.247  -1.616   2.471  0.00  0.00    +0.003 A 
ATOM     35 BR   UNL     1       0.268  -2.253   5.700  0.00  0.00    -0.050 Br
ENDBRANCH  28  29
ENDBRANCH  23  28
ENDBRANCH  22  23
ENDBRANCH   1  22
TORSDOF 8
