REMARK  Name = ZINC50118313
REMARK  10 active torsions:
REMARK  status: ('A' for Active; 'I' for Inactive)
REMARK    1  A    between atoms: C_1  and  C_2
REMARK    2  A    between atoms: C_2  and  C_3
REMARK    3  A    between atoms: C_2  and  C_4
REMARK    4  A    between atoms: C_4  and  N_5
REMARK    5  A    between atoms: C_6  and  C_8
REMARK    6  A    between atoms: C_8  and  N_9
REMARK    7  A    between atoms: N_12  and  C_13
REMARK    8  A    between atoms: C_13  and  C_14
REMARK    9  A    between atoms: C_14  and  C_15
REMARK   10  A    between atoms: C_14  and  C_20
REMARK                            x       y       z     vdW  Elec       q    Type
REMARK                         _______ _______ _______ _____ _____    ______ ____
ROOT
ATOM      1  C   UNL     1      -5.678  -7.919  -0.464  0.00  0.00    +0.119 C 
ENDROOT
BRANCH   1   5
ATOM      2  N   UNL     1      -3.932  -4.690  -0.251  0.00  0.00    -0.291 N 
ATOM      3  C   UNL     1      -4.163  -6.013  -0.358  0.00  0.00    +0.300 C 
ATOM      4  O   UNL     1      -3.230  -6.787  -0.463  0.00  0.00    -0.253 OA
ATOM      5  N   UNL     1      -5.427  -6.480  -0.348  0.00  0.00    -0.298 N 
ATOM      6  H   UNL     1      -4.676  -4.073  -0.168  0.00  0.00    +0.151 HD
ATOM      7  H   UNL     1      -6.171  -5.863  -0.265  0.00  0.00    +0.150 HD
BRANCH   2   8
ATOM      8  C   UNL     1      -2.558  -4.183  -0.262  0.00  0.00    +0.201 C 
BRANCH   8  10
ATOM      9  N   UNL     1      -1.416  -1.993  -0.116  0.00  0.00    -0.314 N 
ATOM     10  C   UNL     1      -2.575  -2.682  -0.130  0.00  0.00    +0.230 C 
ATOM     11  O   UNL     1      -3.631  -2.093  -0.036  0.00  0.00    -0.274 OA
ATOM     12  H   UNL     1      -0.572  -2.463  -0.190  0.00  0.00    +0.149 HD
BRANCH   9  13
ATOM     13  C   UNL     1      -1.433  -0.534   0.013  0.00  0.00    +0.107 C 
BRANCH  13  15
ATOM     14  C   UNL     1      -0.019   1.526   0.010  0.00  0.00    +0.009 C 
ATOM     15  C   UNL     1       0.002  -0.004   0.002  0.00  0.00    -0.000 C 
ATOM     16  C   UNL     1       0.742  -0.511   1.242  0.00  0.00    +0.009 C 
ENDBRANCH  13  15
ENDBRANCH   9  13
ENDBRANCH   8  10
ENDBRANCH   2   8
ENDBRANCH   1   5
BRANCH   1  17
ATOM     17  C   UNL     1      -7.185  -8.178  -0.427  0.00  0.00    +0.075 C 
BRANCH  17  18
ATOM     18  C   UNL     1      -7.449  -9.642  -0.669  0.00  0.00    -0.013 A 
ATOM     19  C   UNL     1      -7.013 -10.666   0.081  0.00  0.00    +0.088 A 
ATOM     20  N   UNL     1      -7.451 -11.851  -0.447  0.00  0.00    -0.360 N 
ATOM     21  H   UNL     1      -7.262 -12.728  -0.080  0.00  0.00    +0.165 HD
ATOM     22  C   UNL     1      -8.198 -11.611  -1.578  0.00  0.00    +0.047 A 
ATOM     23  C   UNL     1      -8.236 -10.216  -1.763  0.00  0.00    +0.003 A 
ATOM     24  C   UNL     1      -8.936  -9.675  -2.842  0.00  0.00    +0.010 A 
ATOM     25  C   UNL     1      -9.587 -10.504  -3.713  0.00  0.00    +0.001 A 
ATOM     26  C   UNL     1      -9.557 -11.880  -3.533  0.00  0.00    +0.002 A 
ATOM     27  C   UNL     1      -8.863 -12.435  -2.479  0.00  0.00    +0.026 A 
ENDBRANCH  17  18
BRANCH  17  28
ATOM     28  C   UNL     1      -7.729  -7.786   0.923  0.00  0.00    -0.001 A 
ATOM     29  C   UNL     1      -8.677  -6.866   1.227  0.00  0.00    +0.012 A 
ATOM     30  C   UNL     1      -9.023  -6.672   2.551  0.00  0.00    +0.008 A 
ATOM     31  C   UNL     1      -8.403  -7.407   3.506  0.00  0.00    +0.045 A 
ATOM     32  S   UNL     1      -7.298  -8.418   2.536  0.00  0.00    -0.101 S 
ENDBRANCH  17  28
ENDBRANCH   1  17
TORSDOF 8
