REMARK  Name = ZINC05567001
REMARK  5 active torsions:
REMARK  status: ('A' for Active; 'I' for Inactive)
REMARK    1  A    between atoms: N_12  and  C1*_13
REMARK    2  A    between atoms: C2*_15  and  O2*_25
REMARK    3  A    between atoms: C3*_17  and  O3*_24
REMARK    4  A    between atoms: C4*_19  and  C5*_22
REMARK    5  A    between atoms: C5*_22  and  O5*_23
REMARK                            x       y       z     vdW  Elec       q    Type
REMARK                         _______ _______ _______ _____ _____    ______ ____
ROOT
ATOM      1  C   UNL     1      -2.282   1.018   1.084  0.00  0.00    +0.005 C 
ATOM      2  C   UNL     1      -0.795   1.348   1.252  0.00  0.00    +0.006 C 
ATOM      3  C   UNL     1      -0.065   0.938  -0.025  0.00  0.00    +0.054 C 
ATOM      4  C   UNL     1      -0.755   1.507  -1.237  0.00  0.00    +0.034 A 
ATOM      5  C   UNL     1      -2.020   1.957  -1.211  0.00  0.00    +0.037 A 
ATOM      6  C   UNL     1      -2.594   2.465  -2.409  0.00  0.00    +0.257 A 
ATOM      7  O   UNL     1      -3.743   2.871  -2.411  0.00  0.00    -0.267 OA
ATOM      8  N   UNL     1      -1.866   2.496  -3.540  0.00  0.00    -0.275 N 
ATOM      9  H   UNL     1      -2.267   2.853  -4.383  0.00  0.00    +0.173 HD
ATOM     10  C   UNL     1      -0.597   2.047  -3.536  0.00  0.00    +0.332 A 
ATOM     11  O   UNL     1       0.057   2.083  -4.561  0.00  0.00    -0.246 OA
ATOM     12  N   UNL     1      -0.045   1.560  -2.413  0.00  0.00    -0.268 N 
ATOM     13  C   UNL     1      -2.866   1.961   0.033  0.00  0.00    +0.042 C 
ENDROOT
BRANCH  12  14
ATOM     14  C1* UNL     1       1.338   1.078  -2.442  0.00  0.00    +0.255 C 
ATOM     15  C2* UNL     1       1.620   0.331  -3.764  0.00  0.00    +0.195 C 
ATOM     16  C3* UNL     1       2.242   1.410  -4.679  0.00  0.00    +0.178 C 
ATOM     17  C4* UNL     1       2.262   2.681  -3.801  0.00  0.00    +0.177 C 
ATOM     18  O4* UNL     1       2.259   2.191  -2.442  0.00  0.00    -0.346 OA
BRANCH  16  19
ATOM     19  O3* UNL     1       3.569   1.040  -5.059  0.00  0.00    -0.386 OA
ATOM     20  H3* UNL     1       4.007   1.682  -5.635  0.00  0.00    +0.210 HD
ENDBRANCH  16  19
BRANCH  15  21
ATOM     21  O2* UNL     1       0.404  -0.164  -4.329  0.00  0.00    -0.385 OA
ATOM     22  H2* UNL     1       0.523  -0.641  -5.161  0.00  0.00    +0.210 HD
ENDBRANCH  15  21
BRANCH  17  23
ATOM     23  C5* UNL     1       3.528   3.496  -4.073  0.00  0.00    +0.190 C 
BRANCH  23  24
ATOM     24  O5* UNL     1       3.472   4.721  -3.339  0.00  0.00    -0.392 OA
ATOM     25  H5* UNL     1       4.244   5.290  -3.464  0.00  0.00    +0.210 HD
ENDBRANCH  23  24
ENDBRANCH  17  23
ENDBRANCH  12  14
TORSDOF 5
