REMARK  Name = ZINC08584105
REMARK  16 active torsions:
REMARK  status: ('A' for Active; 'I' for Inactive)
REMARK    1  A    between atoms: C_1  and  C_2
REMARK    2  A    between atoms: C_2  and  O_3
REMARK    3  A    between atoms: O_3  and  C_4
REMARK    4  A    between atoms: C_4  and  C_6
REMARK    5  A    between atoms: C_6  and  N_7
REMARK    6  A    between atoms: C_8  and  C_12
REMARK    7  A    between atoms: C_12  and  C_14
REMARK    8  A    between atoms: C_12  and  N_71
REMARK    9  A    between atoms: C_14  and  C_15
REMARK   10  A    between atoms: C_14  and  C_16
REMARK   11  A    between atoms: C_17  and  C_18
REMARK   12  A    between atoms: C_17  and  N_71
REMARK   13  A    between atoms: C_21  and  C_30
REMARK   14  A    between atoms: C_23  and  C_29
REMARK   15  A    between atoms: C_27  and  O_28
REMARK   16  A    between atoms: C_31  and  N_71
REMARK                            x       y       z     vdW  Elec       q    Type
REMARK                         _______ _______ _______ _____ _____    ______ ____
ROOT
ATOM      1  N   UNL     1       0.761   2.066   2.031  0.00  0.00    +0.391 N 
ATOM      2  H   UNL     1       0.894   3.057   1.797  0.00  0.00    -0.080 HD
ENDROOT
BRANCH   1   3
ATOM      3  C   UNL     1       0.662   1.929   3.499  0.00  0.00    -0.067 C 
ATOM      4  C   UNL     1       1.859   2.642   4.162  0.00  0.00    -0.015 C 
ATOM      5  C   UNL     1       2.206   1.748   5.379  0.00  0.00    -0.002 C 
ATOM      6  C   UNL     1       1.981   0.318   4.829  0.00  0.00    -0.002 C 
ATOM      7  C   UNL     1       0.740   0.452   3.923  0.00  0.00    -0.015 C 
ENDBRANCH   1   3
BRANCH   1   8
ATOM      8  C   UNL     1      -0.482   1.585   1.393  0.00  0.00    +0.006 C 
BRANCH   8  10
ATOM      9  N   UNL     1      -2.688   1.092   2.574  0.00  0.00    -0.220 N 
ATOM     10  C   UNL     1      -1.656   1.905   2.282  0.00  0.00    +0.139 A 
ATOM     11  N   UNL     1      -1.874   3.032   2.915  0.00  0.00    -0.115 NA
ATOM     12  N   UNL     1      -2.979   2.915   3.567  0.00  0.00    -0.023 NA
ATOM     13  N   UNL     1      -3.472   1.743   3.365  0.00  0.00    -0.043 NA
BRANCH   9  14
ATOM     14  C   UNL     1      -2.883  -0.276   2.087  0.00  0.00    +0.267 C 
BRANCH  14  15
ATOM     15  C   UNL     1      -2.385  -1.253   3.121  0.00  0.00    +0.329 C 
ATOM     16  O   UNL     1      -2.022  -0.855   4.203  0.00  0.00    -0.249 OA
BRANCH  15  17
ATOM     17  O   UNL     1      -2.343  -2.564   2.840  0.00  0.00    -0.464 OA
BRANCH  17  19
ATOM     18  C   UNL     1      -1.877  -4.892   3.382  0.00  0.00    +0.048 C 
ATOM     19  C   UNL     1      -1.851  -3.447   3.883  0.00  0.00    +0.229 C 
ENDBRANCH  17  19
ENDBRANCH  15  17
ENDBRANCH  14  15
ENDBRANCH   9  14
ENDBRANCH   8  10
BRANCH   8  20
ATOM     20  C   UNL     1      -0.649   2.298   0.050  0.00  0.00    -0.024 C 
ATOM     21  C   UNL     1       0.596   2.066  -0.809  0.00  0.00    +0.006 C 
ATOM     22  C   UNL     1      -0.832   3.798   0.288  0.00  0.00    +0.006 C 
ENDBRANCH   8  20
ENDBRANCH   1   8
BRANCH   1  23
ATOM     23  C   UNL     1       1.918   1.295   1.529  0.00  0.00    -0.036 C 
BRANCH  23  24
ATOM     24  C   UNL     1       3.166   2.118   1.722  0.00  0.00    -0.002 A 
ATOM     25  C   UNL     1       4.322   1.520   2.127  0.00  0.00    +0.017 A 
ATOM     26  C   UNL     1       5.467   2.324   2.291  0.00  0.00    +0.004 A 
ATOM     27  C   UNL     1       6.692   1.774   2.701  0.00  0.00    -0.041 A 
ATOM     28  C   UNL     1       7.776   2.584   2.854  0.00  0.00    +0.007 A 
ATOM     29  C   UNL     1       7.686   3.953   2.610  0.00  0.00    -0.048 A 
ATOM     30  C   UNL     1       6.514   4.519   2.211  0.00  0.00    +0.031 A 
ATOM     31  C   UNL     1       5.373   3.716   2.042  0.00  0.00    +0.075 A 
ATOM     32  N   UNL     1       4.209   4.246   1.651  0.00  0.00    -0.213 NA
ATOM     33  C   UNL     1       3.138   3.498   1.492  0.00  0.00    +0.214 A 
ATOM     34  C   UNL     1       8.905   4.820   2.789  0.00  0.00    +0.044 C 
ATOM     35  C   UNL     1       6.806   0.296   2.971  0.00  0.00    +0.044 C 
BRANCH  33  36
ATOM     36  O   UNL     1       1.979   4.080   1.094  0.00  0.00    -0.492 OA
ATOM     37  H   UNL     1       1.422   4.385   1.823  0.00  0.00    +0.294 HD
ENDBRANCH  33  36
ENDBRANCH  23  24
ENDBRANCH   1  23
TORSDOF 11
