REMARK  Name = ZINC51089245
REMARK  5 active torsions:
REMARK  status: ('A' for Active; 'I' for Inactive)
REMARK    1  A    between atoms: C_1  and  C_2
REMARK    2  A    between atoms: C_5  and  N_9
REMARK    3  A    between atoms: C_10  and  C_12
REMARK    4  A    between atoms: C_14  and  N_19
REMARK    5  A    between atoms: N_19  and  N_20
REMARK                            x       y       z     vdW  Elec       q    Type
REMARK                         _______ _______ _______ _____ _____    ______ ____
ROOT
ATOM      1  N   UNL     1       0.057  -4.170  -0.023  0.00  0.00    -0.281 N 
ATOM      2  C   UNL     1      -0.042  -4.838  -1.189  0.00  0.00    +0.248 C 
ATOM      3  O   UNL     1      -0.055  -4.228  -2.240  0.00  0.00    -0.270 OA
ATOM      4  H   UNL     1       0.149  -4.659   0.810  0.00  0.00    +0.155 HD
ENDROOT
BRANCH   1   9
ATOM      5  C   UNL     1      -0.064   1.502   0.016  0.00  0.00    +0.044 C 
ATOM      6  C   UNL     1      -0.031  -0.005   0.006  0.00  0.00    -0.049 A 
ATOM      7  C   UNL     1      -0.622  -0.701  -1.033  0.00  0.00    +0.005 A 
ATOM      8  C   UNL     1      -0.595  -2.081  -1.045  0.00  0.00    +0.025 A 
ATOM      9  C   UNL     1       0.028  -2.772  -0.013  0.00  0.00    +0.048 A 
ATOM     10  C   UNL     1       0.622  -2.070   1.029  0.00  0.00    +0.039 A 
ATOM     11  C   UNL     1       0.595  -0.688   1.032  0.00  0.00    +0.020 A 
ATOM     12 BR   UNL     1       1.471  -3.004   2.437  0.00  0.00    -0.048 Br
ENDBRANCH   1   9
BRANCH   2  13
ATOM     13  C   UNL     1      -0.134  -6.316  -1.190  0.00  0.00    +0.043 A 
ATOM     14  C   UNL     1      -0.232  -7.027  -2.387  0.00  0.00    +0.057 A 
ATOM     15  C   UNL     1      -0.316  -8.415  -2.342  0.00  0.00    +0.134 A 
ATOM     16  N   UNL     1      -0.304  -9.055  -1.183  0.00  0.00    -0.220 NA
ATOM     17  C   UNL     1      -0.214  -8.416  -0.033  0.00  0.00    +0.132 A 
ATOM     18  C   UNL     1      -0.121  -7.038   0.009  0.00  0.00    +0.053 A 
ATOM     19 CL   UNL     1      -0.204  -9.319   1.450  0.00  0.00    -0.062 Cl
BRANCH  15  20
ATOM     20  N   UNL     1      -0.414  -9.136  -3.526  0.00  0.00    -0.267 N 
ATOM     21  H   UNL     1      -0.423  -8.672  -4.378  0.00  0.00    +0.167 HD
BRANCH  20  22
ATOM     22  N   UNL     1      -0.497 -10.499  -3.490  0.00  0.00    -0.255 NA
ATOM     23  H   UNL     1      -1.274 -10.799  -2.920  0.00  0.00    +0.140 HD
ATOM     24  H   UNL     1      -0.562 -10.882  -4.421  0.00  0.00    +0.140 HD
ENDBRANCH  20  22
ENDBRANCH  15  20
ENDBRANCH   2  13
TORSDOF 4
