REMARK  Name = ZINC40781382
REMARK  6 active torsions:
REMARK  status: ('A' for Active; 'I' for Inactive)
REMARK    1  A    between atoms: C_5  and  N_7
REMARK    2  A    between atoms: C_9  and  N_22
REMARK    3  A    between atoms: C_10  and  N_14
REMARK    4  A    between atoms: N_14  and  C_15
REMARK    5  A    between atoms: C_15  and  C_16
REMARK    6  A    between atoms: C_16  and  C_17
REMARK                            x       y       z     vdW  Elec       q    Type
REMARK                         _______ _______ _______ _____ _____    ______ ____
ROOT
ATOM      1  N   UNL     1       1.237  -2.079  -0.022  0.00  0.00    -0.297 N 
ATOM      2  C   UNL     1       0.050  -2.794   0.091  0.00  0.00    +0.149 A 
ATOM      3  C   UNL     1       0.068  -4.186   0.194  0.00  0.00    +0.105 A 
ATOM      4  C   UNL     1      -1.152  -4.854   0.305  0.00  0.00    +0.145 A 
ATOM      5  N   UNL     1      -2.278  -4.145   0.309  0.00  0.00    -0.219 NA
ATOM      6  C   UNL     1      -2.251  -2.831   0.210  0.00  0.00    +0.225 A 
ATOM      7  N   UNL     1      -1.121  -2.161   0.108  0.00  0.00    -0.219 NA
ATOM      8  H   UNL     1       2.080  -2.550  -0.117  0.00  0.00    +0.154 HD
ENDROOT
BRANCH   1  13
ATOM      9  C   UNL     1       0.154   1.370   0.646  0.00  0.00    +0.002 A 
ATOM     10  C   UNL     1       1.174   2.086   0.047  0.00  0.00    +0.002 A 
ATOM     11  C   UNL     1       2.216   1.423  -0.575  0.00  0.00    +0.022 A 
ATOM     12  C   UNL     1       2.240   0.041  -0.601  0.00  0.00    +0.062 A 
ATOM     13  C   UNL     1       1.216  -0.681   0.001  0.00  0.00    +0.051 A 
ATOM     14  C   UNL     1       0.172  -0.011   0.625  0.00  0.00    +0.025 A 
ATOM     15 CL   UNL     1       3.547  -0.791  -1.383  0.00  0.00    -0.082 Cl
ENDBRANCH   1  13
BRANCH   3  16
ATOM     16  N   UNL     1       1.281  -4.894   0.185  0.00  0.00    -0.353 N 
ATOM     17  H   UNL     1       2.121  -4.416   0.106  0.00  0.00    +0.143 HD
ATOM     18  H   UNL     1       1.278  -5.862   0.257  0.00  0.00    +0.143 HD
ENDBRANCH   3  16
BRANCH   4  19
ATOM     19  N   UNL     1      -1.191  -6.240   0.410  0.00  0.00    -0.327 N 
ATOM     20  H   UNL     1      -0.366  -6.750   0.406  0.00  0.00    +0.148 HD
BRANCH  19  21
ATOM     21  C   UNL     1      -2.478  -6.930   0.527  0.00  0.00    +0.108 C 
BRANCH  21  22
ATOM     22  C   UNL     1      -2.241  -8.438   0.627  0.00  0.00    +0.061 C 
BRANCH  22  23
ATOM     23  C   UNL     1      -3.565  -9.148   0.747  0.00  0.00    -0.009 A 
ATOM     24  C   UNL     1      -4.365  -9.633  -0.234  0.00  0.00    +0.011 A 
ATOM     25  C   UNL     1      -5.549 -10.255   0.114  0.00  0.00    +0.008 A 
ATOM     26  C   UNL     1      -5.875 -10.363   1.426  0.00  0.00    +0.045 A 
ATOM     27  S   UNL     1      -4.482  -9.575   2.218  0.00  0.00    -0.102 S 
ENDBRANCH  22  23
ENDBRANCH  21  22
ENDBRANCH  19  21
ENDBRANCH   4  19
TORSDOF 6
