REMARK  Name = ZINC19950224
REMARK  12 active torsions:
REMARK  status: ('A' for Active; 'I' for Inactive)
REMARK    1  A    between atoms: C_1  and  C_2
REMARK    2  A    between atoms: C_2  and  N_3
REMARK    3  A    between atoms: N_3  and  C_4
REMARK    4  A    between atoms: N_3  and  C_6
REMARK    5  A    between atoms: C_4  and  C_5
REMARK    6  A    between atoms: C_9  and  C_12
REMARK    7  A    between atoms: N_13  and  N_14
REMARK    8  A    between atoms: C_15  and  C_17
REMARK    9  A    between atoms: C_17  and  N_18
REMARK   10  A    between atoms: N_18  and  C_19
REMARK   11  A    between atoms: N_18  and  S_26
REMARK   12  A    between atoms: S_26  and  C_29
REMARK                            x       y       z     vdW  Elec       q    Type
REMARK                         _______ _______ _______ _____ _____    ______ ____
ROOT
ATOM      1  C   UNL     1       9.628  -2.406   3.986  0.00  0.00    +0.228 C 
ENDROOT
BRANCH   1   3
ATOM      2  N   UNL     1       7.640  -1.519   5.160  0.00  0.00    -0.206 N 
ATOM      3  C   UNL     1       8.815  -2.174   5.234  0.00  0.00    +0.251 C 
ATOM      4  O   UNL     1       9.219  -2.578   6.304  0.00  0.00    -0.272 OA
ATOM      5  H   UNL     1       7.317  -1.196   4.304  0.00  0.00    +0.177 HD
BRANCH   2   7
ATOM      6  C   UNL     1       5.752  -0.672   6.248  0.00  0.00    +0.138 C 
ATOM      7  N   UNL     1       6.884  -1.303   6.319  0.00  0.00    -0.188 NA
BRANCH   6  11
ATOM      8  C   UNL     1       3.461  -0.019   9.763  0.00  0.00    +0.030 A 
ATOM      9  C   UNL     1       2.997   0.444   8.536  0.00  0.00    +0.024 A 
ATOM     10  C   UNL     1       3.738   0.234   7.394  0.00  0.00    +0.011 A 
ATOM     11  C   UNL     1       4.957  -0.445   7.468  0.00  0.00    -0.005 A 
ATOM     12  C   UNL     1       5.420  -0.909   8.703  0.00  0.00    +0.011 A 
ATOM     13  C   UNL     1       4.676  -0.691   9.842  0.00  0.00    +0.024 A 
BRANCH   8  14
ATOM     14  N   UNL     1       2.708   0.195  10.917  0.00  0.00    -0.330 N 
BRANCH  14  16
ATOM     15  C   UNL     1       1.662   2.403  11.018  0.00  0.00    +0.024 C 
ATOM     16  C   UNL     1       1.428   0.902  10.836  0.00  0.00    +0.102 C 
ENDBRANCH  14  16
BRANCH  14  17
ATOM     17  C   UNL     1       3.198  -0.288  12.211  0.00  0.00    +0.102 C 
ATOM     18  C   UNL     1       2.689  -1.710  12.451  0.00  0.00    +0.024 C 
ENDBRANCH  14  17
ENDBRANCH   8  14
ENDBRANCH   6  11
ENDBRANCH   2   7
ENDBRANCH   1   3
BRANCH   1  19
ATOM     19  N   UNL     1      10.852  -3.134   4.329  0.00  0.00    -0.194 N 
BRANCH  19  20
ATOM     20  C   UNL     1      10.835  -4.528   4.416  0.00  0.00    +0.053 A 
ATOM     21  C   UNL     1      11.011  -5.152   5.645  0.00  0.00    +0.025 A 
ATOM     22  C   UNL     1      10.992  -6.530   5.728  0.00  0.00    +0.003 A 
ATOM     23  C   UNL     1      10.800  -7.290   4.589  0.00  0.00    +0.020 A 
ATOM     24  C   UNL     1      10.624  -6.673   3.363  0.00  0.00    +0.043 A 
ATOM     25  C   UNL     1      10.636  -5.294   3.274  0.00  0.00    +0.044 A 
ATOM     26 CL   UNL     1      10.383  -7.632   1.936  0.00  0.00    -0.083 Cl
ENDBRANCH  19  20
BRANCH  19  27
ATOM     27  S   UNL     1      12.257  -2.305   4.615  0.00  0.00    +0.075 S 
ATOM     28  O   UNL     1      13.315  -3.247   4.503  0.00  0.00    -0.150 OA
ATOM     29  O   UNL     1      12.200  -1.126   3.824  0.00  0.00    -0.150 OA
BRANCH  27  30
ATOM     30  C   UNL     1      12.222  -1.784   6.298  0.00  0.00    +0.109 A 
ATOM     31  C   UNL     1      11.548  -0.630   6.650  0.00  0.00    +0.029 A 
ATOM     32  C   UNL     1      11.520  -0.221   7.970  0.00  0.00    +0.002 A 
ATOM     33  C   UNL     1      12.165  -0.967   8.938  0.00  0.00    +0.000 A 
ATOM     34  C   UNL     1      12.839  -2.122   8.586  0.00  0.00    +0.002 A 
ATOM     35  C   UNL     1      12.863  -2.533   7.267  0.00  0.00    +0.029 A 
ENDBRANCH  27  30
ENDBRANCH  19  27
ENDBRANCH   1  19
TORSDOF 10
