REMARK  Name = ZINC40709271
REMARK  9 active torsions:
REMARK  status: ('A' for Active; 'I' for Inactive)
REMARK    1  A    between atoms: C_1  and  C_2
REMARK    2  A    between atoms: C_2  and  C_26
REMARK    3  A    between atoms: C_4  and  N_10
REMARK    4  A    between atoms: C_6  and  C_8
REMARK    5  A    between atoms: C_6  and  C_9
REMARK    6  A    between atoms: C_12  and  N_25
REMARK    7  A    between atoms: C_13  and  N_17
REMARK    8  A    between atoms: N_17  and  C_18
REMARK    9  A    between atoms: C_18  and  C_19
REMARK                            x       y       z     vdW  Elec       q    Type
REMARK                         _______ _______ _______ _____ _____    ______ ____
ROOT
ATOM      1  N   UNL     1       2.615  -0.819  -2.626  0.00  0.00    -0.325 N 
ATOM      2  C   UNL     1       3.806  -0.319  -3.139  0.00  0.00    +0.145 A 
ATOM      3  C   UNL     1       4.315  -0.799  -4.347  0.00  0.00    +0.105 A 
ATOM      4  C   UNL     1       5.514  -0.263  -4.818  0.00  0.00    +0.145 A 
ATOM      5  N   UNL     1       6.123   0.680  -4.102  0.00  0.00    -0.219 NA
ATOM      6  C   UNL     1       5.609   1.105  -2.966  0.00  0.00    +0.225 A 
ATOM      7  N   UNL     1       4.477   0.629  -2.489  0.00  0.00    -0.219 NA
ATOM      8  H   UNL     1       2.133  -1.510  -3.106  0.00  0.00    +0.148 HD
ENDROOT
BRANCH   1  12
ATOM      9  C   UNL     1      -0.019   1.528   0.010  0.00  0.00    -0.010 C 
ATOM     10  C   UNL     1       0.002  -0.004   0.002  0.00  0.00    -0.072 C 
ATOM     11  C   UNL     1       0.573  -0.505  -1.321  0.00  0.00    +0.009 C 
ATOM     12  C   UNL     1       2.088  -0.301  -1.357  0.00  0.00    +0.069 C 
ATOM     13  C   UNL     1       2.703  -1.086  -0.198  0.00  0.00    +0.009 C 
ATOM     14  C   UNL     1       2.147  -0.590   1.133  0.00  0.00    -0.072 C 
ATOM     15  N   UNL     1       0.697  -0.529   1.164  0.00  0.00    +0.386 N 
ATOM     16  C   UNL     1       2.769   0.766   1.481  0.00  0.00    -0.010 C 
ATOM     17  C   UNL     1       2.600  -1.589   2.223  0.00  0.00    -0.010 C 
ATOM     18  C   UNL     1      -1.468  -0.478   0.079  0.00  0.00    -0.010 C 
ATOM     19  H   UNL     1       0.416   0.021   1.982  0.00  0.00    -0.084 HD
ATOM     20  H   UNL     1       0.341  -1.472   1.351  0.00  0.00    -0.084 HD
ENDBRANCH   1  12
BRANCH   3  21
ATOM     21  N   UNL     1       3.638  -1.796  -5.069  0.00  0.00    -0.353 N 
ATOM     22  H   UNL     1       2.805  -2.160  -4.730  0.00  0.00    +0.143 HD
ATOM     23  H   UNL     1       4.003  -2.120  -5.908  0.00  0.00    +0.143 HD
ENDBRANCH   3  21
BRANCH   4  24
ATOM     24  N   UNL     1       6.064  -0.706  -6.015  0.00  0.00    -0.323 N 
ATOM     25  H   UNL     1       5.614  -1.393  -6.530  0.00  0.00    +0.148 HD
BRANCH  24  26
ATOM     26  C   UNL     1       7.324  -0.135  -6.498  0.00  0.00    +0.138 C 
BRANCH  26  27
ATOM     27  C   UNL     1       7.699  -0.782  -7.806  0.00  0.00    -0.030 A 
ATOM     28  C   UNL     1       8.477  -1.925  -7.814  0.00  0.00    +0.005 A 
ATOM     29  C   UNL     1       8.821  -2.518  -9.014  0.00  0.00    +0.000 A 
ATOM     30  C   UNL     1       8.389  -1.969 -10.206  0.00  0.00    +0.000 A 
ATOM     31  C   UNL     1       7.611  -0.826 -10.198  0.00  0.00    +0.000 A 
ATOM     32  C   UNL     1       7.262  -0.235  -8.998  0.00  0.00    +0.005 A 
ENDBRANCH  26  27
ENDBRANCH  24  26
ENDBRANCH   4  24
TORSDOF 5
