REMARK  Name = ZINC33812502
REMARK  16 active torsions:
REMARK  status: ('A' for Active; 'I' for Inactive)
REMARK    1  A    between atoms: C_1  and  C_2
REMARK    2  A    between atoms: C_2  and  C_3
REMARK    3  A    between atoms: C_3  and  C_4
REMARK    4  A    between atoms: C_4  and  C_5
REMARK    5  A    between atoms: C_5  and  C_7
REMARK    6  A    between atoms: C_5  and  C_9
REMARK    7  A    between atoms: C_7  and  C_8
REMARK    8  A    between atoms: C_9  and  N_10
REMARK    9  A    between atoms: C_14  and  C_15
REMARK   10  A    between atoms: C_16  and  C_34
REMARK   11  A    between atoms: C_17  and  C_32
REMARK   12  A    between atoms: N_20  and  C_30
REMARK   13  A    between atoms: C_21  and  N_22
REMARK   14  A    between atoms: N_25  and  C_28
REMARK   15  A    between atoms: C_28  and  C_29
REMARK   16  A    between atoms: C_30  and  C_31
REMARK                            x       y       z     vdW  Elec       q    Type
REMARK                         _______ _______ _______ _____ _____    ______ ____
ROOT
ATOM      1  C   UNL     1       5.796  -5.550   6.318  0.00  0.00    +0.019 A 
ATOM      2  C   UNL     1       4.962  -5.963   7.370  0.00  0.00    -0.017 A 
ATOM      3  C   UNL     1       5.541  -6.360   8.572  0.00  0.00    +0.120 A 
ATOM      4  C   UNL     1       6.953  -6.340   8.705  0.00  0.00    +0.270 A 
ATOM      5  O   UNL     1       7.466  -6.687   9.755  0.00  0.00    -0.266 OA
ATOM      6  N   UNL     1       7.730  -5.941   7.682  0.00  0.00    -0.295 N 
ATOM      7  C   UNL     1       7.189  -5.554   6.499  0.00  0.00    +0.112 A 
ATOM      8  C   UNL     1       3.464  -5.973   7.201  0.00  0.00    +0.046 C 
ENDROOT
BRANCH   1  13
ATOM      9  N   UNL     1       3.376  -6.889   2.413  0.00  0.00    -0.255 N 
ATOM     10  C   UNL     1       3.942  -5.841   2.986  0.00  0.00    +0.258 C 
ATOM     11  O   UNL     1       3.925  -4.748   2.449  0.00  0.00    -0.269 OA
ATOM     12  C   UNL     1       4.574  -6.029   4.253  0.00  0.00    +0.077 C 
ATOM     13  C   UNL     1       5.219  -5.126   5.041  0.00  0.00    +0.032 C 
ATOM     14  S   UNL     1       4.286  -7.773   4.521  0.00  0.00    -0.061 S 
ATOM     15  C   UNL     1       3.390  -8.101   3.011  0.00  0.00    +0.121 C 
ATOM     16  S   UNL     1       2.721  -9.578   2.460  0.00  0.00    -0.027 S 
BRANCH   9  17
ATOM     17  C   UNL     1       2.718  -6.734   1.113  0.00  0.00    +0.118 C 
BRANCH  17  18
ATOM     18  C   UNL     1       1.248  -6.367   1.326  0.00  0.00    +0.007 C 
BRANCH  18  19
ATOM     19  C   UNL     1       1.158  -4.992   1.992  0.00  0.00    +0.002 C 
ATOM     20  C   UNL     1      -0.308  -4.659   2.275  0.00  0.00    +0.004 C 
ENDBRANCH  18  19
BRANCH  18  21
ATOM     21  C   UNL     1       0.532  -6.327  -0.025  0.00  0.00    +0.005 C 
BRANCH  21  22
ATOM     22  C   UNL     1       0.546  -7.723  -0.651  0.00  0.00    +0.000 C 
BRANCH  22  24
ATOM     23  C   UNL     1      -0.268  -9.108  -2.565  0.00  0.00    +0.004 C 
ATOM     24  C   UNL     1      -0.282  -7.712  -1.938  0.00  0.00    -0.003 C 
ENDBRANCH  22  24
ENDBRANCH  21  22
ENDBRANCH  18  21
ENDBRANCH  17  18
ENDBRANCH   9  17
ENDBRANCH   1  13
BRANCH   7  25
ATOM     25  N   UNL     1       8.005  -5.160   5.479  0.00  0.00    -0.320 N 
ATOM     26  C   UNL     1       8.411  -6.105   4.427  0.00  0.00    +0.088 C 
ATOM     27  C   UNL     1       8.140  -5.460   3.063  0.00  0.00    -0.060 C 
ATOM     28  N   UNL     1       8.811  -4.156   2.998  0.00  0.00    +0.382 N 
ATOM     29  C   UNL     1       8.228  -3.243   3.990  0.00  0.00    -0.060 C 
ATOM     30  C   UNL     1       8.499  -3.777   5.396  0.00  0.00    +0.088 C 
ATOM     31  H   UNL     1       9.795  -4.275   3.190  0.00  0.00    -0.082 HD
BRANCH  28  32
ATOM     32  C   UNL     1       8.643  -3.587   1.654  0.00  0.00    -0.082 C 
ATOM     33  C   UNL     1       9.446  -2.289   1.546  0.00  0.00    -0.017 C 
ENDBRANCH  28  32
ENDBRANCH   7  25
BRANCH   6  34
ATOM     34  C   UNL     1       9.185  -5.929   7.847  0.00  0.00    +0.123 C 
ATOM     35  C   UNL     1       9.765  -7.258   7.357  0.00  0.00    +0.027 C 
ENDBRANCH   6  34
BRANCH   3  36
ATOM     36  C   UNL     1       4.718  -6.785   9.664  0.00  0.00    +0.105 C 
ATOM     37  N   UNL     1       4.066  -7.123  10.531  0.00  0.00    -0.191 NA
ENDBRANCH   3  36
TORSDOF 11
