REMARK  Name = ZINC40737126
REMARK  6 active torsions:
REMARK  status: ('A' for Active; 'I' for Inactive)
REMARK    1  A    between atoms: C_3  and  C_17
REMARK    2  A    between atoms: N_7  and  C_8
REMARK    3  A    between atoms: C_8  and  C_9
REMARK    4  A    between atoms: C_9  and  C_10
REMARK    5  A    between atoms: C_13  and  O_16
REMARK    6  A    between atoms: C_17  and  N_19
REMARK                            x       y       z     vdW  Elec       q    Type
REMARK                         _______ _______ _______ _____ _____    ______ ____
ROOT
ATOM      1  C   UNL     1      -0.015   1.382   0.008  0.00  0.00    +0.020 A 
ATOM      2  C   UNL     1       1.182   2.077  -0.002  0.00  0.00    +0.015 A 
ATOM      3  C   UNL     1       2.375   1.346  -0.016  0.00  0.00    +0.043 A 
ATOM      4  C   UNL     1       2.308  -0.059  -0.019  0.00  0.00    +0.128 A 
ATOM      5  N   UNL     1       1.136  -0.672  -0.009  0.00  0.00    -0.240 NA
ATOM      6  C   UNL     1       0.000  -0.001   0.005  0.00  0.00    +0.113 A 
ATOM      7  N   UNL     1       3.474  -0.803  -0.033  0.00  0.00    -0.328 N 
ATOM      8  H   UNL     1       4.334  -0.359   0.035  0.00  0.00    +0.147 HD
ENDROOT
BRANCH   3   9
ATOM      9  C   UNL     1       3.676   2.035  -0.029  0.00  0.00    +0.080 C 
ATOM     10  S   UNL     1       4.389   2.545   1.442  0.00  0.00    -0.035 S 
BRANCH   9  11
ATOM     11  N   UNL     1       4.307   2.264  -1.198  0.00  0.00    -0.352 N 
ATOM     12  H   UNL     1       3.903   1.974  -2.031  0.00  0.00    +0.143 HD
ATOM     13  H   UNL     1       5.164   2.717  -1.206  0.00  0.00    +0.143 HD
ENDBRANCH   9  11
ENDBRANCH   3   9
BRANCH   7  14
ATOM     14  C   UNL     1       3.411  -2.262  -0.149  0.00  0.00    +0.107 C 
BRANCH  14  15
ATOM     15  C   UNL     1       4.829  -2.837  -0.140  0.00  0.00    +0.054 C 
BRANCH  15  16
ATOM     16  C   UNL     1       4.763  -4.337  -0.260  0.00  0.00    -0.046 A 
ATOM     17  C   UNL     1       4.683  -5.118   0.879  0.00  0.00    +0.007 A 
ATOM     18  C   UNL     1       4.623  -6.494   0.772  0.00  0.00    +0.045 A 
ATOM     19  C   UNL     1       4.644  -7.093  -0.479  0.00  0.00    +0.117 A 
ATOM     20  C   UNL     1       4.725  -6.307  -1.620  0.00  0.00    +0.045 A 
ATOM     21  C   UNL     1       4.779  -4.931  -1.508  0.00  0.00    +0.007 A 
BRANCH  19  22
ATOM     22  O   UNL     1       4.586  -8.446  -0.587  0.00  0.00    -0.507 OA
ATOM     23  H   UNL     1       3.687  -8.797  -0.653  0.00  0.00    +0.292 HD
ENDBRANCH  19  22
ENDBRANCH  15  16
ENDBRANCH  14  15
ENDBRANCH   7  14
TORSDOF 6
