REMARK  Name = ZINC39452531
REMARK  6 active torsions:
REMARK  status: ('A' for Active; 'I' for Inactive)
REMARK    1  A    between atoms: C_1  and  C_2
REMARK    2  A    between atoms: C_2  and  C_3
REMARK    3  A    between atoms: C_2  and  S_4
REMARK    4  A    between atoms: S_4  and  C_7
REMARK    5  A    between atoms: C_26  and  C_29
REMARK    6  A    between atoms: C_29  and  C_30
REMARK                            x       y       z     vdW  Elec       q    Type
REMARK                         _______ _______ _______ _____ _____    ______ ____
ROOT
ATOM      1  C   UNL     1       2.363  -0.017  -1.239  0.00  0.00    +0.098 A 
ATOM      2  C   UNL     1       3.462  -0.820  -1.211  0.00  0.00    +0.028 A 
ATOM      3  C   UNL     1       4.738  -0.300  -1.009  0.00  0.00    +0.004 A 
ATOM      4  C   UNL     1       4.950   1.032  -0.830  0.00  0.00    +0.028 A 
ATOM      5  C   UNL     1       3.856   1.917  -0.847  0.00  0.00    +0.074 A 
ATOM      6  C   UNL     1       2.516   1.368  -1.067  0.00  0.00    +0.026 A 
ATOM      7  C   UNL     1       1.419   2.244  -1.092  0.00  0.00    +0.027 A 
ATOM      8  C   UNL     1       1.668   3.596  -0.908  0.00  0.00    +0.070 A 
ATOM      9  C   UNL     1       2.994   4.060  -0.703  0.00  0.00    +0.100 A 
ATOM     10  N   UNL     1       4.019   3.228  -0.673  0.00  0.00    -0.245 NA
ATOM     11  C   UNL     1       3.198   5.506  -0.508  0.00  0.00    +0.084 A 
ATOM     12  C   UNL     1       2.115   6.363  -0.535  0.00  0.00    +0.144 A 
ATOM     13  N   UNL     1       0.827   5.882  -0.739  0.00  0.00    -0.136 N 
ATOM     14  C   UNL     1       0.569   4.575  -0.921  0.00  0.00    +0.289 A 
ATOM     15  O   UNL     1      -0.576   4.201  -1.098  0.00  0.00    -0.265 OA
ATOM     16  F   UNL     1      -0.163   6.725  -0.753  0.00  0.00    -0.090 F 
ATOM     17  C   UNL     1       2.314   7.751  -0.357  0.00  0.00    +0.186 C 
ATOM     18  O   UNL     1       1.356   8.497  -0.332  0.00  0.00    -0.290 OA
ATOM     19  C   UNL     1       3.702   8.314  -0.198  0.00  0.00    +0.103 C 
ATOM     20  C   UNL     1       4.605   7.263   0.457  0.00  0.00    +0.082 C 
ATOM     21  N   UNL     1       4.468   6.006  -0.295  0.00  0.00    -0.337 N 
ATOM     22  H   UNL     1       5.249   5.540  -0.633  0.00  0.00    +0.146 HD
ENDROOT
BRANCH   1  23
ATOM     23  S   UNL     1       0.763  -0.710  -1.498  0.00  0.00    -0.000 S 
ATOM     24  O   UNL     1      -0.035  -0.180  -0.449  0.00  0.00    -0.169 OA
ATOM     25  O   UNL     1       0.987  -2.109  -1.604  0.00  0.00    -0.169 OA
BRANCH  23  27
ATOM     26  C   UNL     1       1.199  -0.473  -4.188  0.00  0.00    +0.032 C 
ATOM     27  C   UNL     1       0.219  -0.042  -3.095  0.00  0.00    +0.130 C 
ATOM     28  C   UNL     1      -1.177  -0.575  -3.421  0.00  0.00    +0.032 C 
ENDBRANCH  23  27
ENDBRANCH   1  23
BRANCH  20  29
ATOM     29  C   UNL     1       4.175   7.045   1.909  0.00  0.00    +0.057 C 
BRANCH  29  30
ATOM     30  C   UNL     1       5.140   6.104   2.583  0.00  0.00    -0.046 A 
ATOM     31  C   UNL     1       4.913   4.741   2.549  0.00  0.00    +0.004 A 
ATOM     32  C   UNL     1       5.797   3.877   3.167  0.00  0.00    +0.000 A 
ATOM     33  C   UNL     1       6.910   4.377   3.819  0.00  0.00    +0.000 A 
ATOM     34  C   UNL     1       7.137   5.740   3.852  0.00  0.00    +0.000 A 
ATOM     35  C   UNL     1       6.255   6.603   3.230  0.00  0.00    +0.004 A 
ENDBRANCH  29  30
ENDBRANCH  20  29
TORSDOF 4
