REMARK  Name = ZINC19973239
REMARK  14 active torsions:
REMARK  status: ('A' for Active; 'I' for Inactive)
REMARK    1  A    between atoms: C_1  and  C_2
REMARK    2  A    between atoms: C_6  and  C_15
REMARK    3  A    between atoms: C_13  and  C_14
REMARK    4  A    between atoms: C_15  and  C_17
REMARK    5  A    between atoms: C_15  and  N_26
REMARK    6  A    between atoms: N_21  and  C_22
REMARK    7  A    between atoms: C_22  and  C_23
REMARK    8  A    between atoms: C_22  and  C_24
REMARK    9  A    between atoms: C_22  and  C_25
REMARK   10  A    between atoms: N_26  and  C_27
REMARK   11  A    between atoms: N_26  and  C_35
REMARK   12  A    between atoms: C_27  and  C_28
REMARK   13  A    between atoms: C_28  and  C_29
REMARK   14  A    between atoms: C_35  and  C_36
REMARK                            x       y       z     vdW  Elec       q    Type
REMARK                         _______ _______ _______ _____ _____    ______ ____
ROOT
ATOM      1  C   UNL     1       0.995   2.924   0.896  0.00  0.00    +0.163 C 
ENDROOT
BRANCH   1   7
ATOM      2  C   UNL     1       4.878  -2.132   4.766  0.00  0.00    +0.044 C 
ATOM      3  C   UNL     1       3.625  -1.708   4.045  0.00  0.00    -0.047 A 
ATOM      4  C   UNL     1       3.557  -0.468   3.475  0.00  0.00    +0.013 A 
ATOM      5  C   UNL     1       2.395  -0.075   2.805  0.00  0.00    -0.001 A 
ATOM      6  C   UNL     1       2.288   1.247   2.184  0.00  0.00    +0.021 A 
ATOM      7  C   UNL     1       1.137   1.572   1.547  0.00  0.00    +0.042 A 
ATOM      8  C   UNL     1       0.070   0.650   1.491  0.00  0.00    +0.254 A 
ATOM      9  O   UNL     1      -0.955   0.961   0.909  0.00  0.00    -0.268 OA
ATOM     10  N   UNL     1       0.158  -0.566   2.059  0.00  0.00    -0.322 N 
ATOM     11  H   UNL     1      -0.691  -1.264   1.999  0.00  0.00    +0.169 HD
ATOM     12  C   UNL     1       1.302  -0.958   2.721  0.00  0.00    +0.049 A 
ATOM     13  C   UNL     1       1.393  -2.216   3.308  0.00  0.00    +0.030 A 
ATOM     14  C   UNL     1       2.549  -2.582   3.964  0.00  0.00    -0.046 A 
ATOM     15  C   UNL     1       2.646  -3.945   4.599  0.00  0.00    +0.044 C 
ENDBRANCH   1   7
BRANCH   1  16
ATOM     16  C   UNL     1       0.826   2.750  -0.592  0.00  0.00    +0.174 A 
ATOM     17  N   UNL     1      -0.265   2.379  -1.217  0.00  0.00    -0.111 NA
ATOM     18  N   UNL     1      -0.009   2.349  -2.479  0.00  0.00    -0.023 NA
ATOM     19  N   UNL     1       1.216   2.691  -2.675  0.00  0.00    -0.043 NA
ATOM     20  N   UNL     1       1.763   2.952  -1.536  0.00  0.00    -0.222 N 
BRANCH  20  21
ATOM     21  C   UNL     1       3.145   3.383  -1.312  0.00  0.00    +0.059 C 
ATOM     22  C   UNL     1       3.834   2.408  -0.355  0.00  0.00    +0.036 C 
ATOM     23  C   UNL     1       3.895   3.404  -2.646  0.00  0.00    +0.036 C 
ATOM     24  C   UNL     1       3.150   4.786  -0.703  0.00  0.00    +0.036 C 
ENDBRANCH  20  21
ENDBRANCH   1  16
BRANCH   1  25
ATOM     25  N   UNL     1      -0.181   3.611   1.446  0.00  0.00    -0.284 NA
BRANCH  25  26
ATOM     26  C   UNL     1      -0.186   3.554   2.913  0.00  0.00    +0.090 C 
BRANCH  26  27
ATOM     27  C   UNL     1      -1.534   4.053   3.439  0.00  0.00    +0.050 C 
BRANCH  27  28
ATOM     28  C   UNL     1      -1.538   3.994   4.945  0.00  0.00    -0.046 A 
ATOM     29  C   UNL     1      -1.977   2.853   5.590  0.00  0.00    +0.003 A 
ATOM     30  C   UNL     1      -1.977   2.797   6.972  0.00  0.00    +0.000 A 
ATOM     31  C   UNL     1      -1.548   3.886   7.707  0.00  0.00    +0.000 A 
ATOM     32  C   UNL     1      -1.115   5.029   7.062  0.00  0.00    +0.000 A 
ATOM     33  C   UNL     1      -1.110   5.083   5.681  0.00  0.00    +0.003 A 
ENDBRANCH  27  28
ENDBRANCH  26  27
ENDBRANCH  25  26
BRANCH  25  34
ATOM     34  C   UNL     1      -0.248   5.001   0.973  0.00  0.00    +0.127 C 
BRANCH  34  35
ATOM     35  C   UNL     1      -0.925   5.042  -0.372  0.00  0.00    +0.004 A 
ATOM     36  C   UNL     1      -2.250   5.046  -0.661  0.00  0.00    +0.012 A 
ATOM     37  C   UNL     1      -2.647   5.088  -1.984  0.00  0.00    +0.008 A 
ATOM     38  C   UNL     1      -1.701   5.124  -2.954  0.00  0.00    +0.045 A 
ATOM     39  S   UNL     1      -0.192   5.105  -1.999  0.00  0.00    -0.100 S 
ENDBRANCH  34  35
ENDBRANCH  25  34
ENDBRANCH   1  25
TORSDOF 9
