REMARK  Name = ZINC35034509
REMARK  10 active torsions:
REMARK  status: ('A' for Active; 'I' for Inactive)
REMARK    1  A    between atoms: C_1  and  C_2
REMARK    2  A    between atoms: C_2  and  C_3
REMARK    3  A    between atoms: C_3  and  C_5
REMARK    4  A    between atoms: C_3  and  N_18
REMARK    5  A    between atoms: N_15  and  C_16
REMARK    6  A    between atoms: C_16  and  C_17
REMARK    7  A    between atoms: N_26  and  C_27
REMARK    8  A    between atoms: C_30  and  C_33
REMARK    9  A    between atoms: C_33  and  C_34
REMARK   10  A    between atoms: C_33  and  C_35
REMARK                            x       y       z     vdW  Elec       q    Type
REMARK                         _______ _______ _______ _____ _____    ______ ____
ROOT
ATOM      1  N   UNL     1      -2.019   0.248   2.063  0.00  0.00    +0.388 N 
ATOM      2  C   UNL     1      -2.066   1.547   2.745  0.00  0.00    -0.058 C 
ATOM      3  C   UNL     1      -3.167   1.525   3.811  0.00  0.00    +0.091 C 
ATOM      4  N   UNL     1      -4.430   1.131   3.168  0.00  0.00    -0.289 N 
ATOM      5  C   UNL     1      -4.432  -0.077   2.328  0.00  0.00    +0.091 C 
ATOM      6  C   UNL     1      -3.272   0.021   1.332  0.00  0.00    -0.058 C 
ATOM      7  C   UNL     1      -5.553   1.855   3.344  0.00  0.00    +0.306 C 
ATOM      8  O   UNL     1      -5.511   2.899   3.966  0.00  0.00    -0.252 OA
ATOM      9  N   UNL     1      -6.721   1.422   2.830  0.00  0.00    -0.269 N 
ATOM     10  H   UNL     1      -6.770   0.554   2.399  0.00  0.00    +0.156 HD
ATOM     11  H   UNL     1      -1.893  -0.484   2.747  0.00  0.00    -0.081 HD
ENDROOT
BRANCH   9  12
ATOM     12  C   UNL     1      -7.864   2.224   2.919  0.00  0.00    +0.035 A 
ATOM     13  C   UNL     1      -7.751   3.607   2.851  0.00  0.00    +0.023 A 
ATOM     14  C   UNL     1      -8.881   4.396   2.938  0.00  0.00    +0.006 A 
ATOM     15  C   UNL     1     -10.124   3.811   3.092  0.00  0.00    -0.045 A 
ATOM     16  C   UNL     1     -10.241   2.435   3.160  0.00  0.00    +0.006 A 
ATOM     17  C   UNL     1      -9.115   1.640   3.068  0.00  0.00    +0.023 A 
BRANCH  15  18
ATOM     18  C   UNL     1     -11.355   4.675   3.187  0.00  0.00    +0.013 C 
ATOM     19  C   UNL     1     -12.311   4.328   2.044  0.00  0.00    +0.012 C 
ATOM     20  C   UNL     1     -12.051   4.427   4.527  0.00  0.00    +0.012 C 
ENDBRANCH  15  18
ENDBRANCH   9  12
BRANCH   1  21
ATOM     21  C   UNL     1      -0.893   0.232   1.120  0.00  0.00    -0.001 C 
BRANCH  21  22
ATOM     22  C   UNL     1      -0.850  -1.097   0.411  0.00  0.00    +0.099 A 
ATOM     23  N   UNL     1      -0.566  -2.157   1.105  0.00  0.00    -0.235 NA
ATOM     24  C   UNL     1      -0.509  -3.387   0.536  0.00  0.00    +0.078 A 
ATOM     25  C   UNL     1      -0.204  -4.527   1.282  0.00  0.00    +0.028 A 
ATOM     26  C   UNL     1      -0.158  -5.755   0.663  0.00  0.00    +0.002 A 
ATOM     27  C   UNL     1      -0.411  -5.876  -0.697  0.00  0.00    +0.001 A 
ATOM     28  C   UNL     1      -0.715  -4.766  -1.455  0.00  0.00    +0.015 A 
ATOM     29  C   UNL     1      -0.766  -3.514  -0.847  0.00  0.00    +0.065 A 
ATOM     30  C   UNL     1      -1.085  -2.294  -1.605  0.00  0.00    +0.262 A 
ATOM     31  O   UNL     1      -1.317  -2.334  -2.799  0.00  0.00    -0.267 OA
ATOM     32  N   UNL     1      -1.117  -1.126  -0.921  0.00  0.00    -0.298 N 
BRANCH  32  33
ATOM     33  C   UNL     1      -1.435   0.118  -1.625  0.00  0.00    +0.123 C 
ATOM     34  C   UNL     1      -0.147   0.740  -2.169  0.00  0.00    +0.027 C 
ENDBRANCH  32  33
ENDBRANCH  21  22
BRANCH  21  36
ATOM     35  C   UNL     1       1.582   0.488   0.893  0.00  0.00    +0.002 C 
ATOM     36  C   UNL     1       0.415   0.445   1.883  0.00  0.00    -0.011 C 
ENDBRANCH  21  36
ENDBRANCH   1  21
TORSDOF 6
