REMARK  Name = ZINC01582808
REMARK  0 active torsions:
REMARK  status: ('A' for Active; 'I' for Inactive)
REMARK                            x       y       z     vdW  Elec       q    Type
REMARK                         _______ _______ _______ _____ _____    ______ ____
ROOT
ATOM      1  C   UNL     1      -0.730   1.581   1.264  0.00  0.00    +0.000 C 
ATOM      2  C   UNL     1      -0.013   1.085   0.008  0.00  0.00    +0.001 C 
ATOM      3  C   UNL     1      -0.752   1.595  -1.234  0.00  0.00    +0.009 C 
ATOM      4  C   UNL     1      -2.193   1.104  -1.200  0.00  0.00    -0.004 C 
ATOM      5  C   UNL     1      -2.925   1.545   0.072  0.00  0.00    +0.009 C 
ATOM      6  C   UNL     1      -2.158   1.032   1.294  0.00  0.00    +0.001 C 
ATOM      7  C   UNL     1      -2.325  -0.432  -1.430  0.00  0.00    +0.061 C 
ATOM      8  C   UNL     1      -2.249  -0.103  -2.894  0.00  0.00    +0.206 C 
ATOM      9  C   UNL     1      -2.990   1.208  -2.458  0.00  0.00    +0.127 C 
ATOM     10  N   UNL     1      -2.823   2.126  -3.566  0.00  0.00    -0.292 N 
ATOM     11  C   UNL     1      -3.115   1.567  -4.780  0.00  0.00    +0.306 C 
ATOM     12  O   UNL     1      -3.049   2.263  -5.775  0.00  0.00    -0.252 OA
ATOM     13  N   UNL     1      -3.467   0.272  -4.914  0.00  0.00    -0.238 N 
ATOM     14  C   UNL     1      -3.130  -0.663  -3.972  0.00  0.00    +0.259 C 
ATOM     15  O   UNL     1      -3.498  -1.813  -4.002  0.00  0.00    -0.272 OA
ATOM     16  F   UNL     1      -0.947   0.096  -3.365  0.00  0.00    -0.230 F 
ATOM     17  H   UNL     1      -2.533   3.041  -3.459  0.00  0.00    +0.151 HD
ATOM     18  H   UNL     1      -3.940  -0.013  -5.709  0.00  0.00    +0.159 HD
ENDROOT
TORSDOF 0
