REMARK  Name = ZINC66123436
REMARK  11 active torsions:
REMARK  status: ('A' for Active; 'I' for Inactive)
REMARK    1  A    between atoms: C_1  and  C_2
REMARK    2  A    between atoms: C_2  and  C_3
REMARK    3  A    between atoms: C_2  and  C_4
REMARK    4  A    between atoms: C_9  and  N_10
REMARK    5  A    between atoms: N_10  and  C_11
REMARK    6  A    between atoms: C_11  and  N_13
REMARK    7  A    between atoms: N_13  and  N_14
REMARK    8  A    between atoms: C_15  and  C_17
REMARK    9  A    between atoms: C_17  and  C_18
REMARK   10  A    between atoms: C_18  and  N_19
REMARK   11  A    between atoms: C_20  and  C_22
REMARK                            x       y       z     vdW  Elec       q    Type
REMARK                         _______ _______ _______ _____ _____    ______ ____
ROOT
ATOM      1  N   UNL     1       0.769  -2.030  -4.115  0.00  0.00    -0.235 N 
ATOM      2  C   UNL     1       1.623  -2.332  -5.113  0.00  0.00    +0.231 C 
ATOM      3  O   UNL     1       1.215  -2.874  -6.118  0.00  0.00    -0.274 OA
ATOM      4  H   UNL     1       1.096  -1.596  -3.312  0.00  0.00    +0.173 HD
ENDROOT
BRANCH   1   5
ATOM      5  N   UNL     1      -0.591  -2.344  -4.239  0.00  0.00    -0.246 N 
ATOM      6  H   UNL     1      -0.917  -2.778  -5.042  0.00  0.00    +0.172 HD
BRANCH   5   7
ATOM      7  C   UNL     1      -1.445  -2.043  -3.240  0.00  0.00    +0.151 C 
ATOM      8  S   UNL     1      -3.106  -2.426  -3.391  0.00  0.00    -0.017 S 
BRANCH   7   9
ATOM      9  N   UNL     1      -0.991  -1.440  -2.124  0.00  0.00    -0.296 N 
ATOM     10  H   UNL     1      -0.062  -1.166  -2.064  0.00  0.00    +0.154 HD
BRANCH   9  16
ATOM     11  C   UNL     1      -1.474  -1.546   0.240  0.00  0.00    -0.024 A 
ATOM     12  C   UNL     1      -2.331  -1.312   1.298  0.00  0.00    +0.006 A 
ATOM     13  C   UNL     1      -3.573  -0.749   1.071  0.00  0.00    +0.000 A 
ATOM     14  C   UNL     1      -3.962  -0.418  -0.214  0.00  0.00    +0.002 A 
ATOM     15  C   UNL     1      -3.110  -0.650  -1.276  0.00  0.00    +0.023 A 
ATOM     16  C   UNL     1      -1.859  -1.209  -1.051  0.00  0.00    +0.036 A 
BRANCH  11  18
ATOM     17  C   UNL     1       0.698  -1.242   1.399  0.00  0.00    +0.012 C 
ATOM     18  C   UNL     1      -0.120  -2.160   0.488  0.00  0.00    +0.015 C 
ATOM     19  C   UNL     1      -0.294  -3.523   1.160  0.00  0.00    +0.012 C 
ENDBRANCH  11  18
ENDBRANCH   9  16
ENDBRANCH   7   9
ENDBRANCH   5   7
ENDBRANCH   1   5
BRANCH   2  20
ATOM     20  C   UNL     1       3.086  -1.994  -4.981  0.00  0.00    +0.116 C 
BRANCH  20  21
ATOM     21  C   UNL     1       3.829  -2.438  -6.243  0.00  0.00    +0.113 C 
BRANCH  21  22
ATOM     22  N   UNL     1       5.250  -2.110  -6.114  0.00  0.00    -0.315 N 
ATOM     23  C   UNL     1       6.105  -2.411  -7.112  0.00  0.00    +0.216 C 
ATOM     24  O   UNL     1       5.696  -2.954  -8.117  0.00  0.00    -0.276 OA
ATOM     25  H   UNL     1       5.577  -1.676  -5.310  0.00  0.00    +0.149 HD
BRANCH  23  26
ATOM     26  C   UNL     1       7.567  -2.074  -6.979  0.00  0.00    +0.075 C 
ATOM     27  C   UNL     1       7.728  -0.563  -6.799  0.00  0.00    +0.013 C 
ATOM     28  C   UNL     1       9.213  -0.220  -6.665  0.00  0.00    +0.001 C 
ATOM     29  C   UNL     1       9.955  -0.665  -7.926  0.00  0.00    +0.000 C 
ATOM     30  C   UNL     1       9.795  -2.176  -8.107  0.00  0.00    +0.001 C 
ATOM     31  C   UNL     1       8.310  -2.518  -8.241  0.00  0.00    +0.013 C 
ENDBRANCH  23  26
ENDBRANCH  21  22
ENDBRANCH  20  21
ENDBRANCH   2  20
TORSDOF 9
