REMARK  Name = ZINC39195629
REMARK  8 active torsions:
REMARK  status: ('A' for Active; 'I' for Inactive)
REMARK    1  A    between atoms: C_1  and  C_2
REMARK    2  A    between atoms: C_2  and  C_3
REMARK    3  A    between atoms: C_2  and  N_4
REMARK    4  A    between atoms: N_7  and  C_8
REMARK    5  A    between atoms: C_11  and  C_14
REMARK    6  A    between atoms: C_14  and  N_15
REMARK    7  A    between atoms: C_16  and  C_18
REMARK    8  A    between atoms: C_18  and  C_19
REMARK                            x       y       z     vdW  Elec       q    Type
REMARK                         _______ _______ _______ _____ _____    ______ ____
ROOT
ATOM      1  C   UNL     1      -3.772  -7.509  -2.280  0.00  0.00    +0.139 C 
ENDROOT
BRANCH   1   5
ATOM      2  C   UNL     1      -3.121  -3.510  -0.921  0.00  0.00    +0.035 A 
ATOM      3  C   UNL     1      -2.048  -4.287  -1.338  0.00  0.00    +0.023 A 
ATOM      4  C   UNL     1      -2.262  -5.579  -1.776  0.00  0.00    +0.007 A 
ATOM      5  C   UNL     1      -3.543  -6.099  -1.801  0.00  0.00    -0.030 A 
ATOM      6  C   UNL     1      -4.613  -5.328  -1.386  0.00  0.00    +0.007 A 
ATOM      7  C   UNL     1      -4.405  -4.037  -0.941  0.00  0.00    +0.023 A 
BRANCH   2  11
ATOM      8  N   UNL     1      -3.392  -0.472   1.017  0.00  0.00    -0.297 N 
ATOM      9  C   UNL     1      -3.658  -1.698   0.525  0.00  0.00    +0.304 C 
ATOM     10  O   UNL     1      -4.576  -2.352   0.984  0.00  0.00    -0.253 OA
ATOM     11  N   UNL     1      -2.908  -2.201  -0.475  0.00  0.00    -0.269 N 
ATOM     12  H   UNL     1      -2.660   0.049   0.651  0.00  0.00    +0.151 HD
ATOM     13  H   UNL     1      -2.219  -1.655  -0.886  0.00  0.00    +0.156 HD
BRANCH   8  15
ATOM     14  C   UNL     1      -3.394   1.110   2.882  0.00  0.00    +0.027 C 
ATOM     15  C   UNL     1      -4.208   0.074   2.104  0.00  0.00    +0.068 C 
ATOM     16  C   UNL     1      -5.456   0.739   1.521  0.00  0.00    +0.027 C 
ENDBRANCH   8  15
ENDBRANCH   2  11
ENDBRANCH   1   5
BRANCH   1  17
ATOM     17  N   UNL     1      -3.682  -8.431  -1.145  0.00  0.00    -0.311 N 
ATOM     18  C   UNL     1      -3.855  -9.754  -1.337  0.00  0.00    +0.218 C 
ATOM     19  O   UNL     1      -4.085 -10.181  -2.448  0.00  0.00    -0.275 OA
ATOM     20  H   UNL     1      -3.498  -8.090  -0.256  0.00  0.00    +0.149 HD
BRANCH  18  21
ATOM     21  C   UNL     1      -3.762 -10.703  -0.169  0.00  0.00    +0.133 C 
BRANCH  21  22
ATOM     22  C   UNL     1      -3.992 -12.113  -0.648  0.00  0.00    -0.014 A 
ATOM     23  C   UNL     1      -2.986 -13.017  -1.212  0.00  0.00    +0.003 A 
ATOM     24  C   UNL     1      -1.619 -12.905  -1.475  0.00  0.00    +0.010 A 
ATOM     25  C   UNL     1      -0.945 -13.960  -2.022  0.00  0.00    +0.001 A 
ATOM     26  C   UNL     1      -1.608 -15.143  -2.319  0.00  0.00    +0.002 A 
ATOM     27  C   UNL     1      -2.957 -15.274  -2.068  0.00  0.00    +0.026 A 
ATOM     28  C   UNL     1      -3.663 -14.213  -1.512  0.00  0.00    +0.047 A 
ATOM     29  N   UNL     1      -4.980 -14.036  -1.151  0.00  0.00    -0.360 N 
ATOM     30  C   UNL     1      -5.156 -12.782  -0.634  0.00  0.00    +0.087 A 
ATOM     31  H   UNL     1      -5.678 -14.703  -1.247  0.00  0.00    +0.165 HD
ENDBRANCH  21  22
ENDBRANCH  18  21
ENDBRANCH   1  17
TORSDOF 6
