REMARK  Name = ZINC09452769
REMARK  11 active torsions:
REMARK  status: ('A' for Active; 'I' for Inactive)
REMARK    1  A    between atoms: C_1  and  C_2
REMARK    2  A    between atoms: C_2  and  N_54
REMARK    3  A    between atoms: C_3  and  C_4
REMARK    4  A    between atoms: C_3  and  N_54
REMARK    5  A    between atoms: C_5  and  C_6
REMARK    6  A    between atoms: C_5  and  N_54
REMARK    7  A    between atoms: C_6  and  N_7
REMARK    8  A    between atoms: C_11  and  O_18
REMARK    9  A    between atoms: O_18  and  C_19
REMARK   10  A    between atoms: C_20  and  C_22
REMARK   11  A    between atoms: C_27  and  N_28
REMARK                            x       y       z     vdW  Elec       q    Type
REMARK                         _______ _______ _______ _____ _____    ______ ____
ROOT
ATOM      1  N   UNL     1      -2.031   4.650   5.119  0.00  0.00    -0.248 N 
ATOM      2  C   UNL     1      -2.163   4.032   3.886  0.00  0.00    +0.168 A 
ATOM      3  N   UNL     1      -1.261   3.871   2.946  0.00  0.00    -0.221 NA
ATOM      4  C   UNL     1      -1.532   3.241   1.781  0.00  0.00    +0.123 A 
ATOM      5  C   UNL     1      -0.656   3.002   0.691  0.00  0.00    +0.147 A 
ATOM      6  C   UNL     1      -1.099   2.345  -0.432  0.00  0.00    +0.049 A 
ATOM      7  C   UNL     1      -2.404   1.884  -0.535  0.00  0.00    +0.025 A 
ATOM      8  C   UNL     1      -3.283   2.101   0.510  0.00  0.00    +0.057 A 
ATOM      9  C   UNL     1      -2.852   2.763   1.636  0.00  0.00    +0.063 A 
ATOM     10  S   UNL     1      -3.602   3.250   3.171  0.00  0.00    -0.050 S 
ATOM     11 CL   UNL     1      -4.923   1.541   0.402  0.00  0.00    -0.082 Cl
ATOM     12  C   UNL     1      -0.885   5.285   5.436  0.00  0.00    +0.254 C 
ATOM     13  O   UNL     1       0.065   5.237   4.679  0.00  0.00    -0.270 OA
ENDROOT
BRANCH  12  14
ATOM     14  C   UNL     1      -0.784   6.038   6.703  0.00  0.00    +0.069 A 
ATOM     15  C   UNL     1      -1.636   7.116   6.948  0.00  0.00    +0.035 A 
ATOM     16  C   UNL     1      -1.538   7.812   8.136  0.00  0.00    +0.042 A 
ATOM     17  C   UNL     1      -0.592   7.449   9.079  0.00  0.00    +0.022 A 
ATOM     18  C   UNL     1       0.258   6.384   8.840  0.00  0.00    +0.035 A 
ATOM     19  C   UNL     1       0.168   5.677   7.658  0.00  0.00    +0.138 A 
ATOM     20 CL   UNL     1      -2.601   9.150   8.446  0.00  0.00    -0.084 Cl
BRANCH  19  21
ATOM     21  N   UNL     1       1.079   4.539   7.404  0.00  0.00    +0.057 N 
ATOM     22  O   UNL     1       1.946   4.260   8.213  0.00  0.00    -0.126 OA
ATOM     23  O   UNL     1       0.963   3.881   6.386  0.00  0.00    -0.126 OA
ENDBRANCH  19  21
ENDBRANCH  12  14
BRANCH   5  24
ATOM     24  O   UNL     1       0.632   3.433   0.755  0.00  0.00    -0.493 OA
ATOM     25  C   UNL     1       1.420   3.300  -0.429  0.00  0.00    +0.277 C 
ENDBRANCH   5  24
BRANCH   1  26
ATOM     26  C   UNL     1      -3.138   4.615   6.077  0.00  0.00    +0.097 C 
BRANCH  26  27
ATOM     27  C   UNL     1      -3.001   3.379   6.969  0.00  0.00    -0.059 C 
BRANCH  27  28
ATOM     28  N   UNL     1      -4.112   3.369   7.944  0.00  0.00    +0.380 N 
ATOM     29  H   UNL     1      -4.149   4.279   8.418  0.00  0.00    -0.082 HD
BRANCH  28  31
ATOM     30  C   UNL     1      -5.415   1.751   6.603  0.00  0.00    -0.017 C 
ATOM     31  C   UNL     1      -5.395   3.139   7.246  0.00  0.00    -0.082 C 
ENDBRANCH  28  31
BRANCH  28  32
ATOM     32  C   UNL     1      -3.890   2.311   8.952  0.00  0.00    -0.082 C 
ATOM     33  C   UNL     1      -4.924   2.469  10.069  0.00  0.00    -0.017 C 
ENDBRANCH  28  32
ENDBRANCH  27  28
ENDBRANCH  26  27
ENDBRANCH   1  26
TORSDOF 8
