REMARK  Name = ZINC61786580
REMARK  7 active torsions:
REMARK  status: ('A' for Active; 'I' for Inactive)
REMARK    1  A    between atoms: C_1  and  C_2
REMARK    2  A    between atoms: C_2  and  C_3
REMARK    3  A    between atoms: C_3  and  C_4
REMARK    4  A    between atoms: N_13  and  C_14
REMARK    5  A    between atoms: C_17  and  N_20
REMARK    6  A    between atoms: N_20  and  C_21
REMARK    7  A    between atoms: C_22  and  C_24
REMARK                            x       y       z     vdW  Elec       q    Type
REMARK                         _______ _______ _______ _____ _____    ______ ____
ROOT
ATOM      1  C   UNL     1      -1.667  -1.905  -0.002  0.00  0.00    -0.009 C 
ATOM      2  C   UNL     1      -3.185  -2.054  -0.052  0.00  0.00    +0.005 C 
ATOM      3  C   UNL     1      -3.538  -3.337  -0.763  0.00  0.00    +0.019 C 
ATOM      4  C   UNL     1      -3.681  -4.483   0.254  0.00  0.00    +0.109 C 
ATOM      5  N   UNL     1      -2.645  -4.429   1.303  0.00  0.00    -0.285 N 
ATOM      6  C   UNL     1      -1.260  -4.127   1.019  0.00  0.00    +0.109 C 
ATOM      7  C   UNL     1      -1.027  -2.600   1.126  0.00  0.00    +0.022 C 
ATOM      8  C   UNL     1      -3.005  -4.669   2.580  0.00  0.00    +0.306 C 
ATOM      9  O   UNL     1      -4.176  -4.833   2.861  0.00  0.00    -0.252 OA
ATOM     10  N   UNL     1      -2.066  -4.727   3.545  0.00  0.00    -0.269 N 
ATOM     11  H   UNL     1      -1.142  -4.518   3.336  0.00  0.00    +0.156 HD
ENDROOT
BRANCH  10  12
ATOM     12  C   UNL     1      -2.424  -5.089   4.850  0.00  0.00    +0.035 A 
ATOM     13  C   UNL     1      -3.413  -6.042   5.059  0.00  0.00    +0.025 A 
ATOM     14  C   UNL     1      -3.766  -6.398   6.345  0.00  0.00    +0.025 A 
ATOM     15  C   UNL     1      -3.133  -5.805   7.429  0.00  0.00    +0.036 A 
ATOM     16  C   UNL     1      -2.144  -4.853   7.220  0.00  0.00    +0.025 A 
ATOM     17  C   UNL     1      -1.787  -4.500   5.934  0.00  0.00    +0.025 A 
BRANCH  15  18
ATOM     18  N   UNL     1      -3.492  -6.167   8.735  0.00  0.00    -0.275 N 
ATOM     19  C   UNL     1      -4.765  -6.848   8.982  0.00  0.00    +0.138 C 
ATOM     20  C   UNL     1      -2.666  -5.888   9.762  0.00  0.00    +0.216 C 
ATOM     21  O   UNL     1      -1.646  -5.262   9.568  0.00  0.00    -0.276 OA
ATOM     22  C   UNL     1      -3.011  -6.353  11.154  0.00  0.00    +0.109 C 
ENDBRANCH  15  18
ENDBRANCH  10  12
BRANCH   1  23
ATOM     23  C   UNL     1      -1.327  -0.416   0.090  0.00  0.00    +0.003 C 
BRANCH  23  25
ATOM     24  C   UNL     1       0.518   1.265  -0.012  0.00  0.00    +0.004 C 
ATOM     25  C   UNL     1       0.178  -0.224  -0.103  0.00  0.00    -0.003 C 
ENDBRANCH  23  25
ENDBRANCH   1  23
TORSDOF 4
