REMARK  Name = ZINC31879736
REMARK  10 active torsions:
REMARK  status: ('A' for Active; 'I' for Inactive)
REMARK    1  A    between atoms: C_1  and  C_2
REMARK    2  A    between atoms: C_5  and  N_8
REMARK    3  A    between atoms: C_18  and  S_19
REMARK    4  A    between atoms: S_19  and  C_20
REMARK    5  A    between atoms: C_20  and  C_21
REMARK    6  A    between atoms: N_23  and  N_24
REMARK    7  A    between atoms: C_25  and  C_26
REMARK    8  A    between atoms: C_30  and  O_33
REMARK    9  A    between atoms: C_31  and  O_32
REMARK   10  A    between atoms: O_33  and  C_34
REMARK                            x       y       z     vdW  Elec       q    Type
REMARK                         _______ _______ _______ _____ _____    ______ ____
ROOT
ATOM      1  N   UNL     1       7.006   8.539  -0.764  0.00  0.00    -0.255 N 
ATOM      2  C   UNL     1       6.880   9.774  -0.226  0.00  0.00    +0.267 A 
ATOM      3  O   UNL     1       7.857  10.443   0.054  0.00  0.00    -0.267 OA
ATOM      4  C   UNL     1       5.520  10.278   0.008  0.00  0.00    +0.065 A 
ATOM      5  C   UNL     1       5.286  11.538   0.558  0.00  0.00    +0.015 A 
ATOM      6  C   UNL     1       4.000  11.959   0.754  0.00  0.00    +0.001 A 
ATOM      7  C   UNL     1       2.927  11.146   0.413  0.00  0.00    +0.002 A 
ATOM      8  C   UNL     1       3.127   9.907  -0.128  0.00  0.00    +0.028 A 
ATOM      9  C   UNL     1       4.431   9.448  -0.341  0.00  0.00    +0.079 A 
ATOM     10  N   UNL     1       4.675   8.230  -0.879  0.00  0.00    -0.223 NA
ATOM     11  C   UNL     1       5.897   7.800  -1.074  0.00  0.00    +0.177 A 
ENDROOT
BRANCH   1  16
ATOM     12  C   UNL     1      12.173   6.410  -1.745  0.00  0.00    +0.044 C 
ATOM     13  C   UNL     1      10.801   6.975  -1.485  0.00  0.00    -0.050 A 
ATOM     14  C   UNL     1      10.159   7.709  -2.466  0.00  0.00    +0.005 A 
ATOM     15  C   UNL     1       8.902   8.229  -2.230  0.00  0.00    +0.026 A 
ATOM     16  C   UNL     1       8.281   8.014  -1.007  0.00  0.00    +0.052 A 
ATOM     17  C   UNL     1       8.930   7.281  -0.022  0.00  0.00    +0.026 A 
ATOM     18  C   UNL     1      10.185   6.759  -0.266  0.00  0.00    +0.005 A 
ENDBRANCH   1  16
BRANCH  11  19
ATOM     19  S   UNL     1       6.123   6.199  -1.773  0.00  0.00    -0.078 S 
BRANCH  19  20
ATOM     20  C   UNL     1       4.396   5.697  -1.972  0.00  0.00    +0.174 C 
BRANCH  20  21
ATOM     21  C   UNL     1       4.340   4.316  -2.573  0.00  0.00    +0.242 C 
ATOM     22  O   UNL     1       5.368   3.729  -2.840  0.00  0.00    -0.273 OA
ATOM     23  N   UNL     1       3.149   3.732  -2.813  0.00  0.00    -0.206 N 
ATOM     24  H   UNL     1       2.218   4.265  -2.571  0.00  0.00    +0.177 HD
BRANCH  23  25
ATOM     25  N   UNL     1       3.098   2.449  -3.372  0.00  0.00    -0.188 NA
ATOM     26  C   UNL     1       1.957   1.938  -3.721  0.00  0.00    +0.142 C 
BRANCH  26  27
ATOM     27  C   UNL     1       0.806   2.819  -3.988  0.00  0.00    +0.040 A 
ATOM     28  C   UNL     1       1.012   4.148  -4.367  0.00  0.00    +0.013 A 
ATOM     29  C   UNL     1      -0.067   4.971  -4.611  0.00  0.00    +0.004 A 
ATOM     30  C   UNL     1      -1.357   4.484  -4.491  0.00  0.00    +0.049 A 
ATOM     31  C   UNL     1      -1.577   3.169  -4.115  0.00  0.00    +0.162 A 
ATOM     32  C   UNL     1      -0.499   2.329  -3.861  0.00  0.00    +0.167 A 
BRANCH  32  33
ATOM     33  O   UNL     1      -0.711   1.038  -3.492  0.00  0.00    -0.503 OA
ATOM     34  H   UNL     1      -1.738   0.656  -3.394  0.00  0.00    +0.292 HD
ENDBRANCH  32  33
BRANCH  31  35
ATOM     35  O   UNL     1      -2.848   2.699  -3.995  0.00  0.00    -0.491 OA
ATOM     36  C   UNL     1      -3.908   3.617  -4.271  0.00  0.00    +0.277 C 
ENDBRANCH  31  35
ENDBRANCH  26  27
ENDBRANCH  23  25
ENDBRANCH  20  21
ENDBRANCH  19  20
ENDBRANCH  11  19
TORSDOF 8
