REMARK  Name = ZINC37436461
REMARK  1 active torsions:
REMARK  status: ('A' for Active; 'I' for Inactive)
REMARK    1  A    between atoms: C_5  and  C_8
REMARK                            x       y       z     vdW  Elec       q    Type
REMARK                         _______ _______ _______ _____ _____    ______ ____
ROOT
ATOM      1  C   UNL     1       1.268  -2.144  -0.023  0.00  0.00    +0.270 C 
ATOM      2  O   UNL     1       0.231  -2.779  -0.017  0.00  0.00    -0.268 OA
ATOM      3  N   UNL     1       2.451  -2.788  -0.039  0.00  0.00    -0.259 N 
ATOM      4  C   UNL     1       2.487  -4.177  -0.047  0.00  0.00    +0.166 A 
ATOM      5  N   UNL     1       1.477  -5.020  -0.048  0.00  0.00    -0.232 NA
ATOM      6  C   UNL     1       1.678  -6.325  -0.057  0.00  0.00    +0.136 A 
ATOM      7  C   UNL     1       2.966  -6.750  -0.065  0.00  0.00    +0.076 A 
ATOM      8  S   UNL     1       3.832  -5.189  -0.067  0.00  0.00    -0.045 S 
ATOM      9 BR   UNL     1       3.655  -8.511  -0.079  0.00  0.00    -0.041 Br
ATOM     10  H   UNL     1       3.279  -2.282  -0.044  0.00  0.00    +0.157 HD
ENDROOT
BRANCH   1  15
ATOM     11  C   UNL     1      -0.017   1.384   0.010  0.00  0.00    +0.025 A 
ATOM     12  C   UNL     1       1.191   2.061   0.002  0.00  0.00    +0.041 A 
ATOM     13  C   UNL     1       2.376   1.339  -0.013  0.00  0.00    +0.130 A 
ATOM     14  N   UNL     1       2.366   0.023  -0.021  0.00  0.00    -0.229 NA
ATOM     15  C   UNL     1       1.230  -0.665  -0.014  0.00  0.00    +0.146 A 
ATOM     16  C   UNL     1       0.002  -0.004   0.002  0.00  0.00    +0.072 A 
ATOM     17 CL   UNL     1      -1.482  -0.905   0.012  0.00  0.00    -0.081 Cl
ATOM     18 CL   UNL     1       3.893   2.183  -0.023  0.00  0.00    -0.062 Cl
ENDBRANCH   1  15
TORSDOF 1
