REMARK  Name = ZINC54689926
REMARK  6 active torsions:
REMARK  status: ('A' for Active; 'I' for Inactive)
REMARK    1  A    between atoms: C_1  and  C_2
REMARK    2  A    between atoms: C_7  and  S_10
REMARK    3  A    between atoms: S_10  and  C_11
REMARK    4  A    between atoms: C_11  and  C_12
REMARK    5  A    between atoms: N_14  and  C_15
REMARK    6  A    between atoms: C_18  and  N_22
REMARK                            x       y       z     vdW  Elec       q    Type
REMARK                         _______ _______ _______ _____ _____    ______ ____
ROOT
ATOM      1  C   UNL     1       2.769  -5.867   2.905  0.00  0.00    +0.227 C 
ATOM      2  O   UNL     1       3.981  -5.807   2.900  0.00  0.00    -0.275 OA
ATOM      3  N   UNL     1       2.125  -6.415   3.954  0.00  0.00    -0.282 N 
ATOM      4  H   UNL     1       1.156  -6.397   3.992  0.00  0.00    +0.155 HD
ENDROOT
BRANCH   3   5
ATOM      5  C   UNL     1       2.857  -7.011   4.992  0.00  0.00    +0.071 A 
ATOM      6  C   UNL     1       3.240  -6.257   6.094  0.00  0.00    +0.065 A 
ATOM      7  C   UNL     1       3.960  -6.844   7.117  0.00  0.00    +0.044 A 
ATOM      8  C   UNL     1       4.301  -8.188   7.043  0.00  0.00    +0.027 A 
ATOM      9  C   UNL     1       3.919  -8.942   5.941  0.00  0.00    +0.044 A 
ATOM     10  C   UNL     1       3.193  -8.357   4.921  0.00  0.00    +0.065 A 
ATOM     11 CL   UNL     1       2.708  -9.301   3.548  0.00  0.00    -0.082 Cl
ATOM     12 CL   UNL     1       2.814  -4.576   6.186  0.00  0.00    -0.082 Cl
BRANCH   8  13
ATOM     13  N   UNL     1       5.031  -8.782   8.078  0.00  0.00    -0.358 N 
ATOM     14  H   UNL     1       5.298  -8.256   8.847  0.00  0.00    +0.142 HD
ATOM     15  H   UNL     1       5.269  -9.721   8.026  0.00  0.00    +0.142 HD
ENDBRANCH   8  13
ENDBRANCH   3   5
BRANCH   1  16
ATOM     16  C   UNL     1       1.984  -5.328   1.737  0.00  0.00    +0.165 C 
BRANCH  16  17
ATOM     17  S   UNL     1       3.127  -4.662   0.495  0.00  0.00    -0.148 S 
BRANCH  17  23
ATOM     18  C   UNL     1       2.794  -2.142  -4.077  0.00  0.00    +0.007 C 
ATOM     19  C   UNL     1       1.957  -2.849  -3.009  0.00  0.00    -0.013 C 
ATOM     20  C   UNL     1       1.220  -4.032  -3.639  0.00  0.00    +0.003 C 
ATOM     21  C   UNL     1       0.383  -4.739  -2.571  0.00  0.00    +0.001 C 
ATOM     22  C   UNL     1       1.301  -5.245  -1.456  0.00  0.00    +0.014 C 
ATOM     23  C   UNL     1       2.038  -4.062  -0.826  0.00  0.00    +0.047 C 
ATOM     24  C   UNL     1       2.875  -3.355  -1.894  0.00  0.00    +0.017 C 
ENDBRANCH  17  23
ENDBRANCH  16  17
ENDBRANCH   1  16
TORSDOF 5
