REMARK  Name = ZINC37372512
REMARK  2 active torsions:
REMARK  status: ('A' for Active; 'I' for Inactive)
REMARK    1  A    between atoms: C_1  and  N_2
REMARK    2  A    between atoms: N_2  and  C_9
REMARK                            x       y       z     vdW  Elec       q    Type
REMARK                         _______ _______ _______ _____ _____    ______ ____
ROOT
ATOM      1  C   UNL     1      -0.018   1.461   0.010  0.00  0.00    +0.131 C 
ATOM      2  N   UNL     1       0.002  -0.004   0.002  0.00  0.00    -0.311 N 
ATOM      3  C   UNL     1       0.129  -0.709   1.205  0.00  0.00    +0.169 A 
ATOM      4  C   UNL     1       1.357  -0.978   1.781  0.00  0.00    +0.180 A 
ATOM      5  N   UNL     1       1.340  -1.647   2.908  0.00  0.00    -0.177 NA
ATOM      6  S   UNL     1      -0.227  -1.911   3.200  0.00  0.00    +0.119 S 
ATOM      7  N   UNL     1      -0.914  -1.159   1.873  0.00  0.00    -0.174 NA
ATOM      8 CL   UNL     1       2.843  -0.459   1.050  0.00  0.00    -0.058 Cl
ENDROOT
BRANCH   2   9
ATOM      9  C   UNL     1      -0.110  -0.731  -1.265  0.00  0.00    +0.097 C 
ATOM     10  C   UNL     1      -1.438  -0.363  -1.949  0.00  0.00    +0.046 C 
ATOM     11  C   UNL     1      -1.391  -0.891  -3.411  0.00  0.00    +0.168 C 
ATOM     12  S   UNL     1       0.346  -0.478  -3.864  0.00  0.00    -0.029 S 
ATOM     13  O   UNL     1       0.924  -1.587  -4.539  0.00  0.00    -0.174 OA
ATOM     14  O   UNL     1       0.371   0.804  -4.476  0.00  0.00    -0.174 OA
ATOM     15  C   UNL     1       1.077  -0.352  -2.182  0.00  0.00    +0.188 C 
ENDBRANCH   2   9
TORSDOF 1
