REMARK  Name = ZINC58380477
REMARK  4 active torsions:
REMARK  status: ('A' for Active; 'I' for Inactive)
REMARK    1  A    between atoms: C_1  and  C_2
REMARK    2  A    between atoms: C_3  and  C_21
REMARK    3  A    between atoms: C_5  and  C_7
REMARK    4  A    between atoms: C_7  and  N_8
REMARK                            x       y       z     vdW  Elec       q    Type
REMARK                         _______ _______ _______ _____ _____    ______ ____
ROOT
ATOM      1  N   UNL     1      -1.322  -3.664   1.881  0.00  0.00    -0.233 N 
ATOM      2  C   UNL     1      -2.027  -3.190   2.941  0.00  0.00    +0.226 C 
ATOM      3  O   UNL     1      -1.593  -2.560   3.881  0.00  0.00    -0.275 OA
ATOM      4  C   UNL     1      -3.450  -3.603   2.715  0.00  0.00    +0.091 C 
ATOM      5  C   UNL     1      -4.295  -3.958   3.921  0.00  0.00    +0.040 C 
ATOM      6  C   UNL     1      -5.532  -4.660   3.400  0.00  0.00    -0.030 C 
ATOM      7  C   UNL     1      -5.632  -5.189   2.218  0.00  0.00    -0.030 C 
ATOM      8  C   UNL     1      -4.518  -5.206   1.192  0.00  0.00    +0.040 C 
ATOM      9  C   UNL     1      -3.228  -4.926   1.919  0.00  0.00    +0.091 C 
ATOM     10  C   UNL     1      -2.016  -4.550   1.121  0.00  0.00    +0.226 C 
ATOM     11  O   UNL     1      -1.714  -4.955   0.019  0.00  0.00    -0.275 OA
ENDROOT
BRANCH   1  12
ATOM     12  C   UNL     1       0.053  -3.253   1.584  0.00  0.00    +0.212 C 
BRANCH  12  17
ATOM     13  C   UNL     1      -0.018   1.503   0.010  0.00  0.00    +0.069 C 
ATOM     14  C   UNL     1       0.002  -0.004   0.002  0.00  0.00    +0.079 A 
ATOM     15  C   UNL     1       0.008  -0.791  -1.087  0.00  0.00    +0.125 A 
ATOM     16  O   UNL     1       0.027  -2.067  -0.654  0.00  0.00    -0.443 OA
ATOM     17  C   UNL     1       0.033  -2.044   0.685  0.00  0.00    +0.214 A 
ATOM     18  N   UNL     1       0.024  -0.803   1.083  0.00  0.00    -0.217 NA
ATOM     19  C   UNL     1      -0.005  -0.333  -2.522  0.00  0.00    +0.088 C 
ENDBRANCH  12  17
ENDBRANCH   1  12
TORSDOF 2
