REMARK  Name = ZINC64704070
REMARK  13 active torsions:
REMARK  status: ('A' for Active; 'I' for Inactive)
REMARK    1  A    between atoms: C_1  and  C_2
REMARK    2  A    between atoms: C_2  and  C_3
REMARK    3  A    between atoms: C_3  and  N_4
REMARK    4  A    between atoms: C_10  and  C_12
REMARK    5  A    between atoms: C_12  and  N_13
REMARK    6  A    between atoms: N_13  and  C_14
REMARK    7  A    between atoms: C_18  and  N_30
REMARK    8  A    between atoms: C_19  and  C_23
REMARK    9  A    between atoms: C_26  and  C_29
REMARK   10  A    between atoms: N_30  and  C_31
REMARK   11  A    between atoms: C_31  and  C_32
REMARK   12  A    between atoms: C_31  and  C_33
REMARK   13  A    between atoms: C_31  and  C_34
REMARK                            x       y       z     vdW  Elec       q    Type
REMARK                         _______ _______ _______ _____ _____    ______ ____
ROOT
ATOM      1  N   UNL     1      -5.444  -7.232   2.302  0.00  0.00    -0.302 N 
ATOM      2  C   UNL     1      -6.132  -7.072   3.586  0.00  0.00    +0.132 C 
ATOM      3  C   UNL     1      -4.796  -8.421   2.007  0.00  0.00    +0.184 A 
ATOM      4  N   UNL     1      -4.693  -9.500   2.734  0.00  0.00    -0.140 NA
ATOM      5  N   UNL     1      -3.997 -10.615   2.277  0.00  0.00    -0.190 N 
ATOM      6  C   UNL     1      -3.674 -11.889   2.722  0.00  0.00    +0.150 A 
ATOM      7  C   UNL     1      -2.941 -12.493   1.744  0.00  0.00    +0.114 A 
ATOM      8  N   UNL     1      -2.813 -11.612   0.718  0.00  0.00    -0.218 NA
ATOM      9  C   UNL     1      -3.431 -10.513   1.030  0.00  0.00    +0.199 A 
ATOM     10  S   UNL     1      -3.894  -8.870   0.533  0.00  0.00    -0.013 S 
ENDROOT
BRANCH   7  11
ATOM     11  C   UNL     1      -2.384 -13.863   1.793  0.00  0.00    +0.004 A 
ATOM     12  C   UNL     1      -1.931 -14.393   3.002  0.00  0.00    +0.010 A 
ATOM     13  C   UNL     1      -1.413 -15.671   3.041  0.00  0.00    +0.004 A 
ATOM     14  C   UNL     1      -1.342 -16.427   1.884  0.00  0.00    -0.050 A 
ATOM     15  C   UNL     1      -1.789 -15.908   0.683  0.00  0.00    +0.004 A 
ATOM     16  C   UNL     1      -2.314 -14.633   0.632  0.00  0.00    +0.010 A 
ATOM     17  C   UNL     1      -0.774 -17.822   1.934  0.00  0.00    +0.044 C 
ENDBRANCH   7  11
BRANCH   6  18
ATOM     18  N   UNL     1      -4.035 -12.450   3.949  0.00  0.00    -0.323 N 
ATOM     19  H   UNL     1      -3.834 -13.381   4.135  0.00  0.00    +0.148 HD
BRANCH  18  20
ATOM     20  C   UNL     1      -4.718 -11.634   4.956  0.00  0.00    +0.025 C 
ATOM     21  C   UNL     1      -6.089 -11.211   4.426  0.00  0.00    +0.031 C 
ATOM     22  C   UNL     1      -4.897 -12.449   6.238  0.00  0.00    +0.031 C 
ATOM     23  C   UNL     1      -3.881 -10.389   5.256  0.00  0.00    +0.031 C 
ENDBRANCH  18  20
ENDBRANCH   6  18
BRANCH   1  24
ATOM     24  C   UNL     1      -5.442  -6.136   1.330  0.00  0.00    +0.202 C 
BRANCH  24  31
ATOM     25  N   UNL     1      -4.147  -1.535  -0.126  0.00  0.00    +0.382 N 
ATOM     26  C   UNL     1      -3.372  -1.845   1.082  0.00  0.00    -0.060 C 
ATOM     27  C   UNL     1      -2.878  -3.294   1.013  0.00  0.00    +0.089 C 
ATOM     28  N   UNL     1      -4.038  -4.171   0.794  0.00  0.00    -0.304 N 
ATOM     29  C   UNL     1      -4.963  -3.838  -0.300  0.00  0.00    +0.089 C 
ATOM     30  C   UNL     1      -5.358  -2.363  -0.169  0.00  0.00    -0.060 C 
ATOM     31  C   UNL     1      -4.247  -5.251   1.573  0.00  0.00    +0.233 C 
ATOM     32  O   UNL     1      -3.473  -5.511   2.470  0.00  0.00    -0.274 OA
ATOM     33  H   UNL     1      -3.583  -1.722  -0.941  0.00  0.00    -0.082 HD
BRANCH  25  34
ATOM     34  C   UNL     1      -4.526  -0.116  -0.111  0.00  0.00    -0.079 C 
BRANCH  34  36
ATOM     35  C   UNL     1      -3.662   2.228  -0.177  0.00  0.00    +0.002 C 
ATOM     36  C   UNL     1      -3.267   0.750  -0.192  0.00  0.00    -0.022 C 
ENDBRANCH  34  36
ENDBRANCH  25  34
ENDBRANCH  24  31
ENDBRANCH   1  24
TORSDOF 7
