REMARK  Name = ZINC01374501
REMARK  14 active torsions:
REMARK  status: ('A' for Active; 'I' for Inactive)
REMARK    1  A    between atoms: C_1  and  C_2
REMARK    2  A    between atoms: C_2  and  C_3
REMARK    3  A    between atoms: C_3  and  C_5
REMARK    4  A    between atoms: C_3  and  N_18
REMARK    5  A    between atoms: N_9  and  C_10
REMARK    6  A    between atoms: C_10  and  C_11
REMARK    7  A    between atoms: C_11  and  C_12
REMARK    8  A    between atoms: N_18  and  C_19
REMARK    9  A    between atoms: N_18  and  C_27
REMARK   10  A    between atoms: C_19  and  C_20
REMARK   11  A    between atoms: C_23  and  C_26
REMARK   12  A    between atoms: C_27  and  C_28
REMARK   13  A    between atoms: C_32  and  O_40
REMARK   14  A    between atoms: O_40  and  C_41
REMARK                            x       y       z     vdW  Elec       q    Type
REMARK                         _______ _______ _______ _____ _____    ______ ____
ROOT
ATOM      1  N   UNL     1       1.978   0.536  -0.869  0.00  0.00    -0.284 NA
ENDROOT
BRANCH   1   2
ATOM      2  C   UNL     1       0.624  -0.007  -1.039  0.00  0.00    +0.127 C 
BRANCH   2   3
ATOM      3  C   UNL     1      -0.314   0.667  -0.071  0.00  0.00    +0.168 A 
ATOM      4  N   UNL     1      -0.404   1.953   0.165  0.00  0.00    -0.112 NA
ATOM      5  N   UNL     1      -1.319   2.131   1.054  0.00  0.00    -0.023 NA
ATOM      6  N   UNL     1      -1.815   0.993   1.392  0.00  0.00    -0.044 NA
ATOM      7  N   UNL     1      -1.225   0.065   0.716  0.00  0.00    -0.227 N 
BRANCH   7   8
ATOM      8  C   UNL     1      -1.493  -1.373   0.794  0.00  0.00    +0.152 C 
BRANCH   8   9
ATOM      9  C   UNL     1      -0.747  -1.967   1.990  0.00  0.00    +0.058 C 
BRANCH   9  10
ATOM     10  C   UNL     1      -1.127  -3.417   2.149  0.00  0.00    -0.046 A 
ATOM     11  C   UNL     1      -2.207  -3.766   2.938  0.00  0.00    +0.004 A 
ATOM     12  C   UNL     1      -2.555  -5.096   3.084  0.00  0.00    +0.000 A 
ATOM     13  C   UNL     1      -1.823  -6.077   2.441  0.00  0.00    +0.000 A 
ATOM     14  C   UNL     1      -0.743  -5.727   1.652  0.00  0.00    +0.000 A 
ATOM     15  C   UNL     1      -0.398  -4.397   1.502  0.00  0.00    +0.004 A 
ENDBRANCH   9  10
ENDBRANCH   8   9
ENDBRANCH   7   8
ENDBRANCH   2   3
BRANCH   2  17
ATOM     16  C   UNL     1       1.083  -0.461  -3.453  0.00  0.00    +0.006 C 
ATOM     17  C   UNL     1       0.148   0.248  -2.471  0.00  0.00    +0.023 C 
ENDBRANCH   2  17
ENDBRANCH   1   2
BRANCH   1  18
ATOM     18  C   UNL     1       2.617  -0.010   0.336  0.00  0.00    +0.120 C 
BRANCH  18  19
ATOM     19  C   UNL     1       3.123  -1.401   0.049  0.00  0.00    -0.033 A 
ATOM     20  C   UNL     1       2.275  -2.485   0.177  0.00  0.00    +0.005 A 
ATOM     21  C   UNL     1       2.739  -3.760  -0.086  0.00  0.00    +0.003 A 
ATOM     22  C   UNL     1       4.050  -3.951  -0.477  0.00  0.00    -0.050 A 
ATOM     23  C   UNL     1       4.898  -2.867  -0.607  0.00  0.00    +0.003 A 
ATOM     24  C   UNL     1       4.433  -1.591  -0.348  0.00  0.00    +0.005 A 
ATOM     25  C   UNL     1       4.556  -5.342  -0.763  0.00  0.00    +0.044 C 
ENDBRANCH  18  19
ENDBRANCH   1  18
BRANCH   1  26
ATOM     26  C   UNL     1       1.955   2.005  -0.832  0.00  0.00    +0.126 C 
BRANCH  26  27
ATOM     27  C   UNL     1       3.343   2.535  -1.083  0.00  0.00    +0.031 A 
ATOM     28  C   UNL     1       3.728   2.851  -2.344  0.00  0.00    +0.020 A 
ATOM     29  C   UNL     1       5.083   3.364  -2.555  0.00  0.00    +0.002 A 
ATOM     30  C   UNL     1       5.535   3.706  -3.833  0.00  0.00    +0.055 A 
ATOM     31  C   UNL     1       6.819   4.187  -3.996  0.00  0.00    +0.121 A 
ATOM     32  C   UNL     1       7.660   4.332  -2.896  0.00  0.00    +0.047 A 
ATOM     33  C   UNL     1       7.227   3.998  -1.632  0.00  0.00    +0.030 A 
ATOM     34  C   UNL     1       5.937   3.511  -1.446  0.00  0.00    +0.049 A 
ATOM     35  N   UNL     1       5.484   3.172  -0.187  0.00  0.00    -0.322 N 
ATOM     36  H   UNL     1       6.073   3.274   0.577  0.00  0.00    +0.169 HD
ATOM     37  C   UNL     1       4.236   2.707  -0.003  0.00  0.00    +0.254 A 
ATOM     38  O   UNL     1       3.868   2.421   1.123  0.00  0.00    -0.268 OA
BRANCH  31  39
ATOM     39  O   UNL     1       7.263   4.522  -5.237  0.00  0.00    -0.495 OA
ATOM     40  C   UNL     1       8.602   5.013  -5.335  0.00  0.00    +0.277 C 
ENDBRANCH  31  39
ENDBRANCH  26  27
ENDBRANCH   1  26
TORSDOF 11
