REMARK  Name = ZINC39161249
REMARK  6 active torsions:
REMARK  status: ('A' for Active; 'I' for Inactive)
REMARK    1  A    between atoms: C_1  and  C_2
REMARK    2  A    between atoms: C_4  and  C_27
REMARK    3  A    between atoms: C_7  and  N_14
REMARK    4  A    between atoms: C_9  and  C_11
REMARK    5  A    between atoms: C_15  and  C_17
REMARK    6  A    between atoms: C_17  and  C_18
REMARK                            x       y       z     vdW  Elec       q    Type
REMARK                         _______ _______ _______ _____ _____    ______ ____
ROOT
ATOM      1  N   UNL     1      -0.522  -0.783   3.336  0.00  0.00    -0.303 N 
ATOM      2  C   UNL     1      -1.803  -0.995   3.696  0.00  0.00    +0.218 C 
ATOM      3  O   UNL     1      -2.514  -1.705   3.017  0.00  0.00    -0.275 OA
ATOM      4  H   UNL     1       0.026  -0.160   3.838  0.00  0.00    +0.150 HD
ENDROOT
BRANCH   1   9
ATOM      5  C   UNL     1       3.423  -0.850   3.337  0.00  0.00    +0.009 C 
ATOM      6  C   UNL     1       2.594  -1.195   2.098  0.00  0.00    +0.013 C 
ATOM      7  C   UNL     1       2.161   0.120   1.412  0.00  0.00    +0.049 C 
ATOM      8  S   UNL     1       0.468  -0.322   0.825  0.00  0.00    -0.134 S 
ATOM      9  C   UNL     1       0.043  -1.494   2.186  0.00  0.00    +0.143 C 
ATOM     10  C   UNL     1       1.430  -2.077   2.523  0.00  0.00    +0.109 C 
ATOM     11  C   UNL     1       3.081   0.457   0.237  0.00  0.00    +0.019 C 
BRANCH  10  12
ATOM     12  C   UNL     1       1.510  -2.295   4.012  0.00  0.00    +0.216 C 
ATOM     13  O   UNL     1       1.319  -1.368   4.771  0.00  0.00    -0.276 OA
ATOM     14  N   UNL     1       1.794  -3.518   4.500  0.00  0.00    -0.329 N 
ATOM     15  H   UNL     1       1.947  -4.259   3.893  0.00  0.00    +0.145 HD
ATOM     16  H   UNL     1       1.846  -3.658   5.459  0.00  0.00    +0.145 HD
ENDBRANCH  10  12
ENDBRANCH   1   9
BRANCH   2  17
ATOM     17  C   UNL     1      -2.353  -0.349   4.942  0.00  0.00    +0.133 C 
BRANCH  17  18
ATOM     18  C   UNL     1      -3.796  -0.743   5.117  0.00  0.00    -0.014 A 
ATOM     19  C   UNL     1      -4.295  -1.960   5.762  0.00  0.00    +0.003 A 
ATOM     20  C   UNL     1      -3.683  -3.056   6.372  0.00  0.00    +0.010 A 
ATOM     21  C   UNL     1      -4.450  -4.058   6.895  0.00  0.00    +0.001 A 
ATOM     22  C   UNL     1      -5.835  -3.996   6.824  0.00  0.00    +0.002 A 
ATOM     23  C   UNL     1      -6.460  -2.923   6.227  0.00  0.00    +0.026 A 
ATOM     24  C   UNL     1      -5.699  -1.891   5.689  0.00  0.00    +0.047 A 
ATOM     25  N   UNL     1      -6.015  -0.716   5.044  0.00  0.00    -0.360 N 
ATOM     26  C   UNL     1      -4.870  -0.043   4.716  0.00  0.00    +0.087 A 
ATOM     27  H   UNL     1      -6.915  -0.409   4.854  0.00  0.00    +0.165 HD
ENDBRANCH  17  18
ENDBRANCH   2  17
TORSDOF 4
