REMARK  Name = ZINC49399390
REMARK  4 active torsions:
REMARK  status: ('A' for Active; 'I' for Inactive)
REMARK    1  A    between atoms: C_1  and  C_2
REMARK    2  A    between atoms: C_5  and  C_8
REMARK    3  A    between atoms: N_13  and  C_18
REMARK    4  A    between atoms: C_18  and  C_19
REMARK                            x       y       z     vdW  Elec       q    Type
REMARK                         _______ _______ _______ _____ _____    ______ ____
ROOT
ATOM      1  C   UNL     1       0.058  -4.255  -0.021  0.00  0.00    +0.092 A 
ATOM      2  C   UNL     1       0.068  -4.989   1.242  0.00  0.00    +0.034 A 
ATOM      3  C   UNL     1       0.086  -6.343   1.229  0.00  0.00    +0.052 A 
ATOM      4  C   UNL     1       0.094  -7.024  -0.016  0.00  0.00    +0.179 A 
ATOM      5  N   UNL     1       0.110  -8.302  -0.314  0.00  0.00    -0.147 NA
ATOM      6  N   UNL     1       0.111  -8.419  -1.710  0.00  0.00    -0.207 N 
ATOM      7  C   UNL     1       0.095  -7.172  -2.224  0.00  0.00    +0.368 A 
ATOM      8  O   UNL     1       0.091  -6.883  -3.408  0.00  0.00    -0.243 OA
ATOM      9  N   UNL     1       0.084  -6.301  -1.194  0.00  0.00    -0.160 N 
ATOM     10  N   UNL     1       0.061  -4.901  -1.162  0.00  0.00    -0.161 NA
ENDROOT
BRANCH   1  15
ATOM     11  C   UNL     1      -0.018   1.503   0.010  0.00  0.00    +0.044 C 
ATOM     12  C   UNL     1       0.002  -0.004   0.002  0.00  0.00    -0.050 A 
ATOM     13  C   UNL     1       0.006  -0.686  -1.201  0.00  0.00    +0.004 A 
ATOM     14  C   UNL     1       0.024  -2.066  -1.215  0.00  0.00    +0.010 A 
ATOM     15  C   UNL     1       0.039  -2.772  -0.013  0.00  0.00    +0.002 A 
ATOM     16  C   UNL     1       0.036  -2.079   1.196  0.00  0.00    +0.010 A 
ATOM     17  C   UNL     1       0.023  -0.700   1.198  0.00  0.00    +0.004 A 
ENDBRANCH   1  15
BRANCH   6  18
ATOM     18  C   UNL     1       0.128  -9.669  -2.474  0.00  0.00    +0.188 C 
BRANCH  18  19
ATOM     19  C   UNL     1       1.554 -10.079  -2.736  0.00  0.00    +0.027 A 
ATOM     20  C   UNL     1       2.203  -9.638  -3.877  0.00  0.00    +0.130 A 
ATOM     21  C   UNL     1       3.514 -10.016  -4.116  0.00  0.00    +0.039 A 
ATOM     22  C   UNL     1       4.173 -10.833  -3.217  0.00  0.00    +0.004 A 
ATOM     23  C   UNL     1       3.525 -11.273  -2.079  0.00  0.00    +0.020 A 
ATOM     24  C   UNL     1       2.217 -10.892  -1.835  0.00  0.00    +0.049 A 
ATOM     25 CL   UNL     1       1.406 -11.440  -0.401  0.00  0.00    -0.083 Cl
ATOM     26  F   UNL     1       1.558  -8.840  -4.756  0.00  0.00    -0.205 F 
ENDBRANCH  18  19
ENDBRANCH   6  18
TORSDOF 3
