REMARK  Name = ZINC57523948
REMARK  12 active torsions:
REMARK  status: ('A' for Active; 'I' for Inactive)
REMARK    1  A    between atoms: C_1  and  C_2
REMARK    2  A    between atoms: N_5  and  S_11
REMARK    3  A    between atoms: C_7  and  C_10
REMARK    4  A    between atoms: S_11  and  C_14
REMARK    5  A    between atoms: C_17  and  N_20
REMARK    6  A    between atoms: C_21  and  C_23
REMARK    7  A    between atoms: C_23  and  N_24
REMARK    8  A    between atoms: N_24  and  C_25
REMARK    9  A    between atoms: C_28  and  C_31
REMARK   10  A    between atoms: C_31  and  C_32
REMARK   11  A    between atoms: C_31  and  C_33
REMARK   12  A    between atoms: C_31  and  C_34
REMARK                            x       y       z     vdW  Elec       q    Type
REMARK                         _______ _______ _______ _____ _____    ______ ____
ROOT
ATOM      1  C   UNL     1      -1.165  -3.411  -2.163  0.00  0.00    +0.106 A 
ATOM      2  C   UNL     1      -1.266  -2.728  -3.361  0.00  0.00    +0.030 A 
ATOM      3  C   UNL     1      -0.422  -3.039  -4.409  0.00  0.00    +0.025 A 
ATOM      4  C   UNL     1       0.529  -4.040  -4.259  0.00  0.00    +0.034 A 
ATOM      5  C   UNL     1       0.628  -4.724  -3.055  0.00  0.00    +0.025 A 
ATOM      6  C   UNL     1      -0.216  -4.405  -2.009  0.00  0.00    +0.030 A 
ENDROOT
BRANCH   4   7
ATOM      7  N   UNL     1       1.385  -4.358  -5.319  0.00  0.00    -0.284 N 
ATOM      8  C   UNL     1       1.793  -3.394  -6.168  0.00  0.00    +0.234 C 
ATOM      9  O   UNL     1       1.497  -2.237  -5.959  0.00  0.00    -0.274 OA
ATOM     10  H   UNL     1       1.685  -5.272  -5.442  0.00  0.00    +0.155 HD
BRANCH   8  11
ATOM     11  C   UNL     1       2.617  -3.755  -7.377  0.00  0.00    +0.198 C 
BRANCH  11  12
ATOM     12  N   UNL     1       2.931  -2.541  -8.134  0.00  0.00    -0.335 N 
ATOM     13  H   UNL     1       2.611  -1.679  -7.823  0.00  0.00    +0.147 HD
BRANCH  12  14
ATOM     14  C   UNL     1       3.691  -2.623  -9.303  0.00  0.00    +0.028 A 
ATOM     15  C   UNL     1       4.145  -3.857  -9.752  0.00  0.00    +0.023 A 
ATOM     16  C   UNL     1       4.896  -3.935 -10.909  0.00  0.00    +0.006 A 
ATOM     17  C   UNL     1       5.196  -2.787 -11.619  0.00  0.00    -0.042 A 
ATOM     18  C   UNL     1       4.746  -1.558 -11.175  0.00  0.00    +0.006 A 
ATOM     19  C   UNL     1       3.990  -1.473 -10.022  0.00  0.00    +0.023 A 
BRANCH  17  20
ATOM     20  C   UNL     1       6.016  -2.876 -12.880  0.00  0.00    -0.013 C 
ATOM     21  C   UNL     1       5.294  -3.763 -13.897  0.00  0.00    +0.015 C 
ATOM     22  C   UNL     1       6.203  -1.476 -13.467  0.00  0.00    +0.015 C 
ATOM     23  C   UNL     1       7.384  -3.481 -12.557  0.00  0.00    +0.015 C 
ENDBRANCH  17  20
ENDBRANCH  12  14
ENDBRANCH  11  12
ENDBRANCH   8  11
ENDBRANCH   4   7
BRANCH   1  24
ATOM     24  S   UNL     1      -2.244  -3.011  -0.829  0.00  0.00    +0.061 S 
ATOM     25  O   UNL     1      -2.307  -4.162   0.002  0.00  0.00    -0.153 OA
ATOM     26  O   UNL     1      -3.402  -2.424  -1.405  0.00  0.00    -0.153 OA
BRANCH  24  30
ATOM     27  C   UNL     1      -0.548   1.794  -0.481  0.00  0.00    +0.039 C 
ATOM     28  C   UNL     1      -0.354   0.282  -0.356  0.00  0.00    +0.131 C 
ATOM     29  C   UNL     1      -1.721  -0.403  -0.246  0.00  0.00    +0.140 C 
ATOM     30  N   UNL     1      -1.504  -1.826   0.060  0.00  0.00    -0.172 NA
ATOM     31  C   UNL     1      -0.612  -2.164   1.179  0.00  0.00    +0.140 C 
ATOM     32  C   UNL     1       0.702  -1.393   1.000  0.00  0.00    +0.131 C 
ATOM     33  O   UNL     1       0.413  -0.006   0.816  0.00  0.00    -0.371 OA
ATOM     34  C   UNL     1       1.574  -1.574   2.244  0.00  0.00    +0.039 C 
ENDBRANCH  24  30
ENDBRANCH   1  24
TORSDOF 7
