REMARK  Name = ZINC63691615
REMARK  7 active torsions:
REMARK  status: ('A' for Active; 'I' for Inactive)
REMARK    1  A    between atoms: C_1  and  C_2
REMARK    2  A    between atoms: C_2  and  C_3
REMARK    3  A    between atoms: C_3  and  C_4
REMARK    4  A    between atoms: C_4  and  C_5
REMARK    5  A    between atoms: C_4  and  N_21
REMARK    6  A    between atoms: N_7  and  C_8
REMARK    7  A    between atoms: C_8  and  C_9
REMARK                            x       y       z     vdW  Elec       q    Type
REMARK                         _______ _______ _______ _____ _____    ______ ____
ROOT
ATOM      1  C   UNL     1       1.348  -2.483  -2.571  0.00  0.00    +0.234 C 
ATOM      2  O   UNL     1       2.500  -2.860  -2.606  0.00  0.00    -0.274 OA
ATOM      3  N   UNL     1       0.590  -2.525  -3.685  0.00  0.00    -0.310 N 
ATOM      4  H   UNL     1      -0.331  -2.223  -3.657  0.00  0.00    +0.149 HD
ENDROOT
BRANCH   1   5
ATOM      5  C   UNL     1       0.763  -1.967  -1.281  0.00  0.00    +0.160 C 
BRANCH   5   6
ATOM      6  N   UNL     1       1.567  -2.447  -0.154  0.00  0.00    -0.288 N 
ATOM      7  C   UNL     1       2.873  -2.123  -0.072  0.00  0.00    +0.298 C 
ATOM      8  O   UNL     1       3.384  -1.434  -0.933  0.00  0.00    -0.253 OA
ATOM      9  N   UNL     1       3.612  -2.565   0.965  0.00  0.00    -0.313 N 
ATOM     10  H   UNL     1       1.159  -2.997   0.533  0.00  0.00    +0.151 HD
ATOM     11  H   UNL     1       3.204  -3.115   1.652  0.00  0.00    +0.146 HD
ATOM     12  H   UNL     1       4.552  -2.332   1.024  0.00  0.00    +0.146 HD
ENDBRANCH   5   6
BRANCH   5  13
ATOM     13  C   UNL     1       0.767  -0.437  -1.296  0.00  0.00    +0.031 C 
BRANCH  13  15
ATOM     14  C   UNL     1       0.065   1.616  -0.058  0.00  0.00    +0.004 C 
ATOM     15  C   UNL     1       0.061   0.086  -0.043  0.00  0.00    -0.001 C 
ENDBRANCH  13  15
ENDBRANCH   5  13
ENDBRANCH   1   5
BRANCH   3  16
ATOM     16  C   UNL     1       1.159  -3.027  -4.939  0.00  0.00    +0.141 C 
BRANCH  16  17
ATOM     17  C   UNL     1       0.113  -2.969  -6.022  0.00  0.00    -0.014 A 
ATOM     18  C   UNL     1      -0.732  -4.050  -6.240  0.00  0.00    +0.010 A 
ATOM     19  C   UNL     1      -1.677  -3.956  -7.245  0.00  0.00    +0.042 A 
ATOM     20  C   UNL     1      -1.750  -2.789  -8.000  0.00  0.00    +0.099 A 
ATOM     21  N   UNL     1      -0.926  -1.781  -7.761  0.00  0.00    -0.349 N 
ATOM     22  C   UNL     1      -0.018  -1.840  -6.805  0.00  0.00    +0.089 A 
ATOM     23  N   UNL     1      -2.695  -2.682  -9.013  0.00  0.00    -0.317 N 
ATOM     24  C   UNL     1      -2.878  -1.415  -9.735  0.00  0.00    +0.106 C 
ATOM     25  C   UNL     1      -2.755  -1.683 -11.238  0.00  0.00    +0.019 C 
ATOM     26  C   UNL     1      -3.740  -2.783 -11.639  0.00  0.00    +0.003 C 
ATOM     27  C   UNL     1      -3.400  -4.073 -10.890  0.00  0.00    +0.019 C 
ATOM     28  C   UNL     1      -3.526  -3.834  -9.387  0.00  0.00    +0.106 C 
ATOM     29  H   UNL     1      -0.994  -0.977  -8.300  0.00  0.00    +0.167 HD
ENDBRANCH  16  17
ENDBRANCH   3  16
TORSDOF 6
