REMARK  Name = ZINC36637979
REMARK  16 active torsions:
REMARK  status: ('A' for Active; 'I' for Inactive)
REMARK    1  A    between atoms: C_1  and  C_2
REMARK    2  A    between atoms: C_2  and  N_3
REMARK    3  A    between atoms: N_3  and  C_4
REMARK    4  A    between atoms: N_3  and  C_6
REMARK    5  A    between atoms: C_4  and  C_5
REMARK    6  A    between atoms: C_6  and  C_7
REMARK    7  A    between atoms: C_7  and  N_8
REMARK    8  A    between atoms: C_12  and  O_18
REMARK    9  A    between atoms: O_18  and  C_19
REMARK   10  A    between atoms: C_20  and  C_22
REMARK   11  A    between atoms: C_25  and  S_28
REMARK   12  A    between atoms: S_28  and  N_31
REMARK   13  A    between atoms: N_31  and  C_32
REMARK   14  A    between atoms: N_31  and  C_34
REMARK   15  A    between atoms: C_32  and  C_33
REMARK   16  A    between atoms: C_34  and  C_35
REMARK                            x       y       z     vdW  Elec       q    Type
REMARK                         _______ _______ _______ _____ _____    ______ ____
ROOT
ATOM      1  N   UNL     1      -0.150  -3.385  -0.904  0.00  0.00    -0.248 N 
ATOM      2  C   UNL     1      -1.506  -3.353  -1.187  0.00  0.00    +0.168 A 
ATOM      3  N   UNL     1      -2.122  -3.670  -2.302  0.00  0.00    -0.221 NA
ATOM      4  C   UNL     1      -3.464  -3.590  -2.438  0.00  0.00    +0.122 A 
ATOM      5  C   UNL     1      -4.248  -3.899  -3.578  0.00  0.00    +0.146 A 
ATOM      6  C   UNL     1      -5.616  -3.760  -3.546  0.00  0.00    +0.048 A 
ATOM      7  C   UNL     1      -6.272  -3.316  -2.408  0.00  0.00    +0.005 A 
ATOM      8  C   UNL     1      -5.536  -3.006  -1.279  0.00  0.00    +0.017 A 
ATOM      9  C   UNL     1      -4.169  -3.142  -1.299  0.00  0.00    +0.044 A 
ATOM     10  S   UNL     1      -2.862  -2.878  -0.125  0.00  0.00    -0.052 S 
ATOM     11  C   UNL     1       0.726  -3.778  -1.849  0.00  0.00    +0.252 C 
ATOM     12  O   UNL     1       0.347  -3.970  -2.988  0.00  0.00    -0.270 OA
ENDROOT
BRANCH  11  13
ATOM     13  C   UNL     1       2.149  -3.975  -1.501  0.00  0.00    +0.037 A 
ATOM     14  C   UNL     1       2.854  -2.970  -0.837  0.00  0.00    +0.015 A 
ATOM     15  C   UNL     1       4.182  -3.161  -0.515  0.00  0.00    +0.029 A 
ATOM     16  C   UNL     1       4.815  -4.345  -0.848  0.00  0.00    +0.106 A 
ATOM     17  C   UNL     1       4.122  -5.346  -1.506  0.00  0.00    +0.029 A 
ATOM     18  C   UNL     1       2.792  -5.170  -1.830  0.00  0.00    +0.015 A 
BRANCH  16  19
ATOM     19  S   UNL     1       6.511  -4.581  -0.434  0.00  0.00    +0.061 S 
ATOM     20  O   UNL     1       7.019  -5.553  -1.337  0.00  0.00    -0.153 OA
ATOM     21  O   UNL     1       7.082  -3.285  -0.308  0.00  0.00    -0.153 OA
BRANCH  19  22
ATOM     22  N   UNL     1       6.556  -5.266   1.073  0.00  0.00    -0.177 NA
BRANCH  22  23
ATOM     23  C   UNL     1       6.544  -6.724   1.216  0.00  0.00    +0.106 C 
ATOM     24  C   UNL     1       7.981  -7.236   1.340  0.00  0.00    +0.022 C 
ENDBRANCH  22  23
BRANCH  22  25
ATOM     25  C   UNL     1       6.609  -4.414   2.264  0.00  0.00    +0.106 C 
ATOM     26  C   UNL     1       5.192  -4.203   2.802  0.00  0.00    +0.022 C 
ENDBRANCH  22  25
ENDBRANCH  19  22
ENDBRANCH  16  19
ENDBRANCH  11  13
BRANCH   5  27
ATOM     27  O   UNL     1      -3.642  -4.336  -4.714  0.00  0.00    -0.493 OA
ATOM     28  C   UNL     1      -4.487  -4.631  -5.828  0.00  0.00    +0.277 C 
ENDBRANCH   5  27
BRANCH   1  29
ATOM     29  C   UNL     1       0.330  -2.991   0.423  0.00  0.00    +0.097 C 
BRANCH  29  30
ATOM     30  C   UNL     1       0.357  -1.465   0.523  0.00  0.00    -0.059 C 
BRANCH  30  31
ATOM     31  N   UNL     1       0.791  -1.071   1.871  0.00  0.00    +0.380 N 
ATOM     32  H   UNL     1       0.185  -1.494   2.557  0.00  0.00    -0.082 HD
BRANCH  31  34
ATOM     33  C   UNL     1       2.567  -1.259   3.547  0.00  0.00    -0.017 C 
ATOM     34  C   UNL     1       2.171  -1.522   2.092  0.00  0.00    -0.082 C 
ENDBRANCH  31  34
BRANCH  31  35
ATOM     35  C   UNL     1       0.728   0.391   1.997  0.00  0.00    -0.082 C 
ATOM     36  C   UNL     1      -0.716   0.858   1.803  0.00  0.00    -0.017 C 
ENDBRANCH  31  35
ENDBRANCH  30  31
ENDBRANCH  29  30
ENDBRANCH   1  29
TORSDOF 11
