REMARK  Name = ZINC49548282
REMARK  3 active torsions:
REMARK  status: ('A' for Active; 'I' for Inactive)
REMARK    1  A    between atoms: C_6  and  S_7
REMARK    2  A    between atoms: S_7  and  N_10
REMARK    3  A    between atoms: N_19  and  N_20
REMARK                            x       y       z     vdW  Elec       q    Type
REMARK                         _______ _______ _______ _____ _____    ______ ____
ROOT
ATOM      1  S   UNL     1      -1.505  -0.917   0.012  0.00  0.00    +0.104 S 
ATOM      2  O   UNL     1      -1.377  -1.900   1.031  0.00  0.00    -0.146 OA
ATOM      3  O   UNL     1      -2.558   0.036   0.001  0.00  0.00    -0.146 OA
ENDROOT
BRANCH   1   4
ATOM      4  N   UNL     1      -1.591  -1.735  -1.425  0.00  0.00    -0.103 NA
ATOM      5  C   UNL     1      -2.623  -2.501  -1.682  0.00  0.00    +0.192 A 
ATOM      6  N   UNL     1      -3.728  -2.759  -0.913  0.00  0.00    -0.336 N 
ATOM      7  C   UNL     1      -4.714  -3.614  -1.388  0.00  0.00    +0.028 A 
ATOM      8  C   UNL     1      -4.529  -4.154  -2.592  0.00  0.00    +0.012 A 
ATOM      9  S   UNL     1      -2.971  -3.484  -3.131  0.00  0.00    -0.053 S 
ATOM     10  C   UNL     1      -5.654  -5.064  -2.997  0.00  0.00    +0.044 C 
ATOM     11  C   UNL     1      -6.400  -5.364  -1.678  0.00  0.00    +0.011 C 
ATOM     12  C   UNL     1      -6.051  -4.122  -0.837  0.00  0.00    +0.054 C 
ATOM     13  H   UNL     1      -3.821  -2.345  -0.041  0.00  0.00    +0.168 HD
ENDBRANCH   1   4
BRANCH   1  19
ATOM     14  C   UNL     1      -0.017   1.379   0.010  0.00  0.00    +0.049 A 
ATOM     15  C   UNL     1       1.195   2.058   0.002  0.00  0.00    +0.038 A 
ATOM     16  C   UNL     1       2.374   1.339  -0.013  0.00  0.00    +0.128 A 
ATOM     17  N   UNL     1       2.361   0.019  -0.021  0.00  0.00    -0.236 NA
ATOM     18  C   UNL     1       1.227  -0.664  -0.014  0.00  0.00    +0.159 A 
ATOM     19  C   UNL     1       0.002  -0.004   0.002  0.00  0.00    +0.154 A 
ATOM     20  N   UNL     1       1.260  -2.054  -0.022  0.00  0.00    -0.266 N 
ATOM     21 BR   UNL     1       1.231   3.949   0.011  0.00  0.00    -0.049 Br
ATOM     22  H   UNL     1       0.432  -2.559  -0.017  0.00  0.00    +0.167 HD
BRANCH  20  23
ATOM     23  N   UNL     1       2.459  -2.709  -0.038  0.00  0.00    -0.255 NA
ATOM     24  H   UNL     1       2.325  -3.709  -0.043  0.00  0.00    +0.140 HD
ATOM     25  H   UNL     1       3.020  -2.416  -0.824  0.00  0.00    +0.140 HD
ENDBRANCH  20  23
ENDBRANCH   1  19
TORSDOF 3
