REMARK  Name = ZINC20922478
REMARK  11 active torsions:
REMARK  status: ('A' for Active; 'I' for Inactive)
REMARK    1  A    between atoms: C_1  and  C_2
REMARK    2  A    between atoms: C_2  and  C_3
REMARK    3  A    between atoms: C_3  and  C_5
REMARK    4  A    between atoms: C_3  and  C_6
REMARK    5  A    between atoms: C_9  and  N_12
REMARK    6  A    between atoms: C_13  and  C_15
REMARK    7  A    between atoms: C_15  and  C_16
REMARK    8  A    between atoms: C_16  and  S_17
REMARK    9  A    between atoms: S_17  and  C_18
REMARK   10  A    between atoms: N_22  and  N_23
REMARK   11  A    between atoms: N_24  and  N_25
REMARK                            x       y       z     vdW  Elec       q    Type
REMARK                         _______ _______ _______ _____ _____    ______ ____
ROOT
ATOM      1  C   UNL     1      -5.839   1.931   0.798  0.00  0.00    +0.107 C 
ENDROOT
BRANCH   1   3
ATOM      2  N   UNL     1      -8.262   2.345   1.070  0.00  0.00    -0.285 N 
ATOM      3  C   UNL     1      -7.177   2.382   0.272  0.00  0.00    +0.218 C 
ATOM      4  O   UNL     1      -7.277   2.777  -0.870  0.00  0.00    -0.275 OA
ATOM      5  H   UNL     1      -8.188   1.915   2.080  0.00  0.00    +0.155 HD
BRANCH   2   9
ATOM      6  C   UNL     1     -11.899   3.857  -0.287  0.00  0.00    -0.044 A 
ATOM      7  C   UNL     1     -11.043   3.223  -1.169  0.00  0.00    +0.006 A 
ATOM      8  C   UNL     1      -9.837   2.721  -0.722  0.00  0.00    +0.023 A 
ATOM      9  C   UNL     1      -9.484   2.853   0.614  0.00  0.00    +0.033 A 
ATOM     10  C   UNL     1     -10.348   3.485   1.499  0.00  0.00    +0.023 A 
ATOM     11  C   UNL     1     -11.550   3.990   1.044  0.00  0.00    +0.006 A 
BRANCH   6  12
ATOM     12  C   UNL     1     -13.215   4.404  -0.778  0.00  0.00    +0.016 C 
ATOM     13  C   UNL     1     -14.362   3.727  -0.025  0.00  0.00    +0.012 C 
BRANCH  12  15
ATOM     14  C   UNL     1     -14.543   6.489  -1.141  0.00  0.00    +0.004 C 
ATOM     15  C   UNL     1     -13.264   5.913  -0.531  0.00  0.00    +0.004 C 
ENDBRANCH  12  15
ENDBRANCH   6  12
ENDBRANCH   2   9
ENDBRANCH   1   3
BRANCH   1  16
ATOM     16  C   UNL     1      -4.784   2.073  -0.301  0.00  0.00    +0.086 C 
BRANCH  16  17
ATOM     17  S   UNL     1      -3.173   1.531   0.333  0.00  0.00    -0.084 S 
BRANCH  17  18
ATOM     18  C   UNL     1      -2.082   1.753  -1.033  0.00  0.00    +0.210 A 
ATOM     19  N   UNL     1      -2.411   2.211  -2.216  0.00  0.00    -0.119 NA
ATOM     20  N   UNL     1      -1.256   2.232  -3.008  0.00  0.00    -0.110 NA
ATOM     21  C   UNL     1      -0.258   1.792  -2.282  0.00  0.00    +0.248 A 
ATOM     22  N   UNL     1      -0.743   1.479  -1.044  0.00  0.00    -0.211 N 
ATOM     23  N   UNL     1       1.061   1.663  -2.699  0.00  0.00    -0.251 N 
ATOM     24  H   UNL     1       1.822   1.278  -2.004  0.00  0.00    +0.169 HD
BRANCH  22  25
ATOM     25  N   UNL     1      -0.016   0.984   0.002  0.00  0.00    -0.294 N 
ATOM     26  H   UNL     1       1.062   0.799  -0.117  0.00  0.00    +0.163 HD
ATOM     27  H   UNL     1      -0.508   0.770   0.962  0.00  0.00    +0.163 HD
ENDBRANCH  22  25
BRANCH  23  28
ATOM     28  N   UNL     1       1.413   2.015  -3.971  0.00  0.00    -0.254 NA
ATOM     29  H   UNL     1       2.490   1.844  -4.114  0.00  0.00    +0.140 HD
ATOM     30  H   UNL     1       0.846   1.405  -4.690  0.00  0.00    +0.140 HD
ENDBRANCH  23  28
ENDBRANCH  17  18
ENDBRANCH  16  17
ENDBRANCH   1  16
TORSDOF 9
