REMARK  Name = ZINC01701951
REMARK  11 active torsions:
REMARK  status: ('A' for Active; 'I' for Inactive)
REMARK    1  A    between atoms: C_1  and  C_2
REMARK    2  A    between atoms: C_2  and  N_3
REMARK    3  A    between atoms: N_3  and  C_4
REMARK    4  A    between atoms: N_3  and  S_6
REMARK    5  A    between atoms: C_4  and  C_5
REMARK    6  A    between atoms: S_6  and  C_9
REMARK    7  A    between atoms: C_12  and  C_15
REMARK    8  A    between atoms: C_15  and  C_16
REMARK    9  A    between atoms: C_16  and  N_17
REMARK   10  A    between atoms: N_17  and  C_18
REMARK   11  A    between atoms: C_20  and  N_28
REMARK                            x       y       z     vdW  Elec       q    Type
REMARK                         _______ _______ _______ _____ _____    ______ ____
ROOT
ATOM      1  C   UNL     1       0.021   5.281  -5.191  0.00  0.00    +0.106 C 
ENDROOT
BRANCH   1   2
ATOM      2  N   UNL     1      -0.104   6.495  -6.002  0.00  0.00    -0.342 N 
ATOM      3  H   UNL     1      -0.591   6.470  -6.840  0.00  0.00    +0.146 HD
BRANCH   2   4
ATOM      4  C   UNL     1       0.474   7.680  -5.570  0.00  0.00    +0.060 A 
ATOM      5  C   UNL     1       1.176   7.737  -4.383  0.00  0.00    +0.066 A 
ATOM      6  C   UNL     1       1.748   8.945  -3.975  0.00  0.00    +0.097 A 
ATOM      7  N   UNL     1       1.634  10.043  -4.697  0.00  0.00    -0.327 N 
ATOM      8  C   UNL     1       0.967  10.055  -5.856  0.00  0.00    +0.160 A 
ATOM      9  C   UNL     1       0.365   8.868  -6.339  0.00  0.00    +0.127 A 
ATOM     10  N   UNL     1      -0.295   8.881  -7.497  0.00  0.00    -0.249 NA
ATOM     11  C   UNL     1      -0.379   9.997  -8.188  0.00  0.00    +0.131 A 
ATOM     12  C   UNL     1       0.217  11.167  -7.719  0.00  0.00    +0.133 A 
ATOM     13  N   UNL     1       0.863  11.180  -6.574  0.00  0.00    -0.234 NA
ATOM     14  H   UNL     1       2.045  10.863  -4.380  0.00  0.00    +0.169 HD
BRANCH   6  15
ATOM     15  N   UNL     1       2.450   8.992  -2.781  0.00  0.00    -0.345 N 
ATOM     16  H   UNL     1       2.541   8.192  -2.240  0.00  0.00    +0.144 HD
ATOM     17  H   UNL     1       2.852   9.824  -2.487  0.00  0.00    +0.144 HD
ENDBRANCH   6  15
ENDBRANCH   2   4
ENDBRANCH   1   2
BRANCH   1  18
ATOM     18  C   UNL     1      -0.700   4.126  -5.888  0.00  0.00    +0.054 C 
BRANCH  18  22
ATOM     19  C   UNL     1      -0.337   0.586  -3.526  0.00  0.00    +0.105 A 
ATOM     20  C   UNL     1      -1.405   1.441  -3.329  0.00  0.00    +0.029 A 
ATOM     21  C   UNL     1      -1.523   2.587  -4.094  0.00  0.00    +0.005 A 
ATOM     22  C   UNL     1      -0.572   2.877  -5.054  0.00  0.00    -0.046 A 
ATOM     23  C   UNL     1       0.497   2.023  -5.250  0.00  0.00    +0.005 A 
ATOM     24  C   UNL     1       0.616   0.879  -4.482  0.00  0.00    +0.029 A 
BRANCH  19  25
ATOM     25  S   UNL     1      -0.188  -0.875  -2.551  0.00  0.00    +0.061 S 
ATOM     26  O   UNL     1       0.610  -1.782  -3.300  0.00  0.00    -0.153 OA
ATOM     27  O   UNL     1      -1.496  -1.201  -2.104  0.00  0.00    -0.153 OA
BRANCH  25  28
ATOM     28  N   UNL     1       0.688  -0.476  -1.203  0.00  0.00    -0.177 NA
BRANCH  28  30
ATOM     29  C   UNL     1      -0.019   1.526   0.010  0.00  0.00    +0.022 C 
ATOM     30  C   UNL     1       0.002  -0.004   0.002  0.00  0.00    +0.106 C 
ENDBRANCH  28  30
BRANCH  28  31
ATOM     31  C   UNL     1       2.148  -0.597  -1.216  0.00  0.00    +0.106 C 
ATOM     32  C   UNL     1       2.553  -1.951  -0.632  0.00  0.00    +0.022 C 
ENDBRANCH  28  31
ENDBRANCH  25  28
ENDBRANCH  19  25
ENDBRANCH  18  22
ENDBRANCH   1  18
TORSDOF 9
