REMARK  Name = ZINC19217372
REMARK  8 active torsions:
REMARK  status: ('A' for Active; 'I' for Inactive)
REMARK    1  A    between atoms: C_1  and  C_2
REMARK    2  A    between atoms: C_5  and  C_7
REMARK    3  A    between atoms: C_8  and  C_27
REMARK    4  A    between atoms: N_12  and  C_14
REMARK    5  A    between atoms: C_14  and  C_16
REMARK    6  A    between atoms: C_14  and  C_17
REMARK    7  A    between atoms: N_19  and  C_20
REMARK    8  A    between atoms: C_29  and  C_32
REMARK                            x       y       z     vdW  Elec       q    Type
REMARK                         _______ _______ _______ _____ _____    ______ ____
ROOT
ATOM      1  C   UNL     1      -4.692   4.135   1.133  0.00  0.00    +0.109 A 
ATOM      2  C   UNL     1      -5.216   4.979   0.052  0.00  0.00    +0.053 A 
ATOM      3  C   UNL     1      -4.371   5.330  -0.987  0.00  0.00    +0.085 A 
ATOM      4  C   UNL     1      -3.043   4.867  -0.973  0.00  0.00    +0.269 A 
ATOM      5  O   UNL     1      -2.286   5.168  -1.882  0.00  0.00    -0.266 OA
ATOM      6  N   UNL     1      -2.602   4.095   0.037  0.00  0.00    -0.217 N 
ATOM      7  N   UNL     1      -3.442   3.727   1.091  0.00  0.00    -0.166 NA
ENDROOT
BRANCH   1  12
ATOM      8  C   UNL     1      -8.717   3.161   4.954  0.00  0.00    +0.051 C 
ATOM      9  C   UNL     1      -7.489   3.273   4.088  0.00  0.00    -0.013 A 
ATOM     10  C   UNL     1      -6.257   2.735   4.280  0.00  0.00    +0.011 A 
ATOM     11  C   UNL     1      -5.271   2.964   3.347  0.00  0.00    +0.018 A 
ATOM     12  C   UNL     1      -5.565   3.742   2.257  0.00  0.00    +0.040 A 
ATOM     13  S   UNL     1      -7.279   4.149   2.547  0.00  0.00    -0.092 S 
ENDBRANCH   1  12
BRANCH   2  14
ATOM     14  C   UNL     1      -6.616   5.444   0.072  0.00  0.00    +0.170 A 
ATOM     15  C   UNL     1      -7.606   5.115  -0.816  0.00  0.00    +0.076 A 
ATOM     16  C   UNL     1      -8.732   5.821  -0.344  0.00  0.00    +0.081 A 
ATOM     17  N   UNL     1      -8.346   6.471   0.717  0.00  0.00    -0.083 NA
ATOM     18  O   UNL     1      -7.180   6.274   0.969  0.00  0.00    -0.354 OA
ATOM     19  C   UNL     1     -10.112   5.824  -0.949  0.00  0.00    +0.069 C 
ENDBRANCH   2  14
BRANCH   6  20
ATOM     20  C   UNL     1      -1.214   3.626   0.028  0.00  0.00    +0.193 C 
ATOM     21  C   UNL     1      -0.494   4.138   1.276  0.00  0.00    +0.043 C 
BRANCH  20  22
ATOM     22  C   UNL     1      -1.194   2.119   0.019  0.00  0.00    +0.238 C 
ATOM     23  O   UNL     1      -2.236   1.498   0.021  0.00  0.00    -0.273 OA
ATOM     24  N   UNL     1      -0.018   1.461   0.010  0.00  0.00    -0.311 N 
ATOM     25  H   UNL     1       0.927   2.024   0.009  0.00  0.00    +0.149 HD
BRANCH  24  26
ATOM     26  C   UNL     1       0.002  -0.004   0.002  0.00  0.00    +0.073 C 
ATOM     27  C   UNL     1      -0.140  -0.513   1.451  0.00  0.00    +0.022 C 
ATOM     28  C   UNL     1      -0.627  -1.937   1.411  0.00  0.00    +0.002 C 
ATOM     29  C   UNL     1       0.527  -2.956   1.471  0.00  0.00    +0.000 C 
ATOM     30  C   UNL     1       1.730  -2.548   0.599  0.00  0.00    +0.000 C 
ATOM     31  C   UNL     1       1.311  -1.992  -0.736  0.00  0.00    +0.002 C 
ATOM     32  C   UNL     1       1.236  -0.455  -0.624  0.00  0.00    +0.022 C 
ENDBRANCH  24  26
ENDBRANCH  20  22
ENDBRANCH   6  20
TORSDOF 5
