REMARK  Name = ZINC64526433
REMARK  9 active torsions:
REMARK  status: ('A' for Active; 'I' for Inactive)
REMARK    1  A    between atoms: C_1  and  C_2
REMARK    2  A    between atoms: C_5  and  C_8
REMARK    3  A    between atoms: C_8  and  N_9
REMARK    4  A    between atoms: N_16  and  C_21
REMARK    5  A    between atoms: C_21  and  C_22
REMARK    6  A    between atoms: C_22  and  C_23
REMARK    7  A    between atoms: N_25  and  C_26
REMARK    8  A    between atoms: C_26  and  C_27
REMARK    9  A    between atoms: C_27  and  C_28
REMARK                            x       y       z     vdW  Elec       q    Type
REMARK                         _______ _______ _______ _____ _____    ______ ____
ROOT
ATOM      1  N   UNL     1       1.447  -4.746  -0.032  0.00  0.00    -0.298 N 
ATOM      2  C   UNL     1       2.100  -4.957  -1.243  0.00  0.00    +0.069 A 
ATOM      3  C   UNL     1       1.430  -4.719  -2.438  0.00  0.00    +0.028 A 
ATOM      4  C   UNL     1       2.071  -4.926  -3.642  0.00  0.00    +0.002 A 
ATOM      5  C   UNL     1       3.382  -5.371  -3.667  0.00  0.00    +0.002 A 
ATOM      6  C   UNL     1       4.057  -5.611  -2.488  0.00  0.00    +0.028 A 
ATOM      7  C   UNL     1       3.422  -5.405  -1.268  0.00  0.00    +0.069 A 
ATOM      8  N   UNL     1       4.110  -5.648  -0.082  0.00  0.00    -0.302 N 
ATOM      9  C   UNL     1       3.501  -5.453   1.105  0.00  0.00    +0.317 A 
ATOM     10  O   UNL     1       4.097  -5.664   2.142  0.00  0.00    -0.262 OA
ATOM     11  C   UNL     1       2.091  -4.968   1.132  0.00  0.00    +0.317 A 
ATOM     12  O   UNL     1       1.527  -4.781   2.191  0.00  0.00    -0.262 OA
ENDROOT
BRANCH   1  13
ATOM     13  C   UNL     1       0.059  -4.275  -0.021  0.00  0.00    +0.160 C 
BRANCH  13  18
ATOM     14  C   UNL     1      -0.018   1.503   0.010  0.00  0.00    +0.044 C 
ATOM     15  C   UNL     1       0.002  -0.004   0.002  0.00  0.00    -0.050 A 
ATOM     16  C   UNL     1       0.006  -0.689  -1.199  0.00  0.00    +0.004 A 
ATOM     17  C   UNL     1       0.025  -2.071  -1.206  0.00  0.00    +0.005 A 
ATOM     18  C   UNL     1       0.040  -2.768  -0.013  0.00  0.00    -0.028 A 
ATOM     19  C   UNL     1       0.037  -2.084   1.188  0.00  0.00    +0.005 A 
ATOM     20  C   UNL     1       0.023  -0.702   1.195  0.00  0.00    +0.004 A 
ENDBRANCH  13  18
ENDBRANCH   1  13
BRANCH   8  21
ATOM     21  C   UNL     1       5.497  -6.118  -0.125  0.00  0.00    +0.135 C 
BRANCH  21  22
ATOM     22  C   UNL     1       6.443  -4.915  -0.128  0.00  0.00    +0.117 C 
BRANCH  22  23
ATOM     23  C   UNL     1       7.870  -5.398  -0.171  0.00  0.00    +0.215 C 
ATOM     24  O   UNL     1       8.107  -6.587  -0.198  0.00  0.00    -0.276 OA
ATOM     25  N   UNL     1       8.882  -4.509  -0.181  0.00  0.00    -0.315 N 
ATOM     26  H   UNL     1       8.693  -3.558  -0.160  0.00  0.00    +0.149 HD
BRANCH  25  27
ATOM     27  C   UNL     1      10.269  -4.979  -0.224  0.00  0.00    +0.108 C 
BRANCH  27  28
ATOM     28  C   UNL     1      11.215  -3.776  -0.226  0.00  0.00    +0.052 C 
BRANCH  28  29
ATOM     29  C   UNL     1      12.642  -4.259  -0.270  0.00  0.00    -0.040 C 
ATOM     30  C   UNL     1      13.417  -4.407  -1.368  0.00  0.00    -0.001 A 
ATOM     31  C   UNL     1      13.173  -4.172  -2.797  0.00  0.00    +0.010 A 
ATOM     32  C   UNL     1      14.166  -4.418  -3.681  0.00  0.00    +0.001 A 
ATOM     33  C   UNL     1      15.420  -4.890  -3.269  0.00  0.00    +0.002 A 
ATOM     34  C   UNL     1      15.719  -5.130  -1.974  0.00  0.00    +0.026 A 
ATOM     35  C   UNL     1      14.749  -4.905  -0.959  0.00  0.00    +0.043 A 
ATOM     36  N   UNL     1      14.796  -5.060   0.342  0.00  0.00    -0.380 N 
ATOM     37  C   UNL     1      13.499  -4.670   0.906  0.00  0.00    +0.144 C 
ATOM     38  H   UNL     1      15.562  -5.375   0.848  0.00  0.00    +0.160 HD
ENDBRANCH  28  29
ENDBRANCH  27  28
ENDBRANCH  25  27
ENDBRANCH  22  23
ENDBRANCH  21  22
ENDBRANCH   8  21
TORSDOF 8
