REMARK  Name = ZINC13409681
REMARK  14 active torsions:
REMARK  status: ('A' for Active; 'I' for Inactive)
REMARK    1  A    between atoms: C_1  and  C_2
REMARK    2  A    between atoms: C_3  and  O_35
REMARK    3  A    between atoms: C_9  and  O_13
REMARK    4  A    between atoms: C_11  and  O_12
REMARK    5  A    between atoms: C_16  and  O_34
REMARK    6  A    between atoms: C_18  and  C_21
REMARK    7  A    between atoms: C_21  and  C_23
REMARK    8  A    between atoms: C_21  and  O_32
REMARK    9  A    between atoms: C_23  and  C_25
REMARK   10  A    between atoms: C_25  and  C_27
REMARK   11  A    between atoms: C_25  and  O_31
REMARK   12  A    between atoms: C_27  and  C_29
REMARK   13  A    between atoms: C_27  and  O_30
REMARK   14  A    between atoms: O_32  and  C_33
REMARK                            x       y       z     vdW  Elec       q    Type
REMARK                         _______ _______ _______ _____ _____    ______ ____
ROOT
ATOM      1  C   UNL     1      -0.413   3.440  -0.366  0.00  0.00    +0.051 C 
ATOM      2  C   UNL     1       0.822   2.583  -0.260  0.00  0.00    +0.033 A 
ATOM      3  C   UNL     1       0.697   1.223   0.028  0.00  0.00    +0.124 A 
ATOM      4  C   UNL     1       1.812   0.417   0.126  0.00  0.00    +0.054 A 
ATOM      5  C   UNL     1       3.088   0.964  -0.065  0.00  0.00    -0.007 A 
ATOM      6  C   UNL     1       4.240   0.158   0.034  0.00  0.00    +0.013 A 
ATOM      7  C   UNL     1       5.477   0.690  -0.153  0.00  0.00    -0.032 A 
ATOM      8  C   UNL     1       5.619   2.060  -0.455  0.00  0.00    +0.065 A 
ATOM      9  C   UNL     1       4.498   2.889  -0.557  0.00  0.00    +0.139 A 
ATOM     10  C   UNL     1       3.217   2.344  -0.361  0.00  0.00    +0.066 A 
ATOM     11  C   UNL     1       2.062   3.148  -0.454  0.00  0.00    +0.134 A 
ATOM     12  C   UNL     1       6.955   2.631  -0.670  0.00  0.00    +0.195 C 
ATOM     13  O   UNL     1       7.095   3.744  -1.134  0.00  0.00    -0.289 OA
ATOM     14  C   UNL     1       8.152   1.784  -0.293  0.00  0.00    +0.192 C 
ATOM     15  C   UNL     1       7.876   0.356  -0.780  0.00  0.00    +0.066 C 
ATOM     16  C   UNL     1       6.676  -0.212  -0.028  0.00  0.00    +0.045 C 
ENDROOT
BRANCH  11  17
ATOM     17  O   UNL     1       2.174   4.471  -0.734  0.00  0.00    -0.506 OA
ATOM     18  H   UNL     1       2.260   5.032   0.048  0.00  0.00    +0.292 HD
ENDBRANCH  11  17
BRANCH   9  19
ATOM     19  O   UNL     1       4.644   4.204  -0.843  0.00  0.00    -0.505 OA
ATOM     20  H   UNL     1       4.631   4.405  -1.788  0.00  0.00    +0.292 HD
ENDBRANCH   9  19
BRANCH  14  21
ATOM     21  O   UNL     1       9.328   2.294  -0.926  0.00  0.00    -0.384 OA
ATOM     22  H   UNL     1       9.604   3.162  -0.602  0.00  0.00    +0.210 HD
ENDBRANCH  14  21
BRANCH   3  23
ATOM     23  O   UNL     1      -0.537   0.688   0.214  0.00  0.00    -0.506 OA
ATOM     24  H   UNL     1      -0.947   0.354  -0.596  0.00  0.00    +0.292 HD
ENDBRANCH   3  23
BRANCH  15  25
ATOM     25  C   UNL     1       9.103  -0.519  -0.518  0.00  0.00    +0.193 C 
BRANCH  25  26
ATOM     26  C   UNL     1       8.877  -1.890  -1.104  0.00  0.00    +0.193 C 
ATOM     27  O   UNL     1       8.514  -2.797  -0.395  0.00  0.00    -0.292 OA
BRANCH  26  28
ATOM     28  C   UNL     1       9.105  -2.127  -2.575  0.00  0.00    +0.211 C 
BRANCH  28  29
ATOM     29  C   UNL     1       7.875  -1.670  -3.361  0.00  0.00    +0.147 C 
ATOM     30  C   UNL     1       8.076  -1.978  -4.846  0.00  0.00    +0.041 C 
BRANCH  29  31
ATOM     31  O   UNL     1       6.720  -2.363  -2.884  0.00  0.00    -0.389 OA
ATOM     32  H   UNL     1       6.773  -3.325  -2.971  0.00  0.00    +0.210 HD
ENDBRANCH  29  31
ENDBRANCH  28  29
BRANCH  28  33
ATOM     33  O   UNL     1       9.326  -3.520  -2.804  0.00  0.00    -0.382 OA
ATOM     34  H   UNL     1       8.589  -4.085  -2.534  0.00  0.00    +0.210 HD
ENDBRANCH  28  33
ENDBRANCH  26  28
ENDBRANCH  25  26
BRANCH  25  35
ATOM     35  O   UNL     1       9.316  -0.633   0.890  0.00  0.00    -0.372 OA
ATOM     36  C   UNL     1      10.392   0.169   1.382  0.00  0.00    +0.194 C 
ENDBRANCH  25  35
ENDBRANCH  15  25
TORSDOF 11
