REMARK  Name = ZINC20323194
REMARK  17 active torsions:
REMARK  status: ('A' for Active; 'I' for Inactive)
REMARK    1  A    between atoms: C_1  and  C_2
REMARK    2  A    between atoms: C_3  and  S_9
REMARK    3  A    between atoms: C_4  and  C_8
REMARK    4  A    between atoms: N_5  and  C_7
REMARK    5  A    between atoms: S_9  and  N_12
REMARK    6  A    between atoms: N_12  and  C_13
REMARK    7  A    between atoms: N_12  and  C_28
REMARK    8  A    between atoms: C_13  and  C_14
REMARK    9  A    between atoms: N_16  and  C_17
REMARK   10  A    between atoms: C_17  and  C_18
REMARK   11  A    between atoms: C_18  and  C_19
REMARK   12  A    between atoms: C_19  and  N_20
REMARK   13  A    between atoms: N_20  and  C_21
REMARK   14  A    between atoms: N_20  and  C_22
REMARK   15  A    between atoms: C_31  and  C_34
REMARK   16  A    between atoms: C_34  and  C_35
REMARK   17  A    between atoms: C_34  and  C_36
REMARK                            x       y       z     vdW  Elec       q    Type
REMARK                         _______ _______ _______ _____ _____    ______ ____
ROOT
ATOM      1  N   UNL     1      -1.335  -0.486   0.059  0.00  0.00    -0.194 N 
ENDROOT
BRANCH   1   2
ATOM      2  C   UNL     1      -1.568  -0.267  -1.301  0.00  0.00    +0.052 A 
ATOM      3  C   UNL     1      -2.824  -0.514  -1.841  0.00  0.00    +0.025 A 
ATOM      4  C   UNL     1      -3.051  -0.292  -3.185  0.00  0.00    +0.006 A 
ATOM      5  C   UNL     1      -2.028   0.165  -3.995  0.00  0.00    -0.045 A 
ATOM      6  C   UNL     1      -0.775   0.407  -3.461  0.00  0.00    +0.006 A 
ATOM      7  C   UNL     1      -0.542   0.192  -2.117  0.00  0.00    +0.025 A 
BRANCH   5   8
ATOM      8  C   UNL     1      -2.279   0.401  -5.462  0.00  0.00    +0.013 C 
ATOM      9  C   UNL     1      -2.716  -0.908  -6.121  0.00  0.00    +0.012 C 
ATOM     10  C   UNL     1      -3.380   1.450  -5.628  0.00  0.00    +0.012 C 
ENDBRANCH   5   8
ENDBRANCH   1   2
BRANCH   1  11
ATOM     11  S   UNL     1      -0.778  -1.957   0.578  0.00  0.00    +0.079 S 
ATOM     12  O   UNL     1      -1.236  -2.117   1.913  0.00  0.00    -0.150 OA
ATOM     13  O   UNL     1      -1.083  -2.892  -0.449  0.00  0.00    -0.150 OA
BRANCH  11  16
ATOM     14  C   UNL     1       1.182  -1.187   3.151  0.00  0.00    +0.069 C 
ATOM     15  C   UNL     1       1.732  -1.518   1.787  0.00  0.00    +0.087 A 
ATOM     16  C   UNL     1       0.979  -1.851   0.657  0.00  0.00    +0.152 A 
ATOM     17  C   UNL     1       1.837  -2.082  -0.363  0.00  0.00    +0.063 A 
ATOM     18  N   UNL     1       3.090  -1.894   0.103  0.00  0.00    -0.269 N 
ATOM     19  N   UNL     1       2.998  -1.543   1.456  0.00  0.00    -0.174 NA
ATOM     20  C   UNL     1       4.327  -2.036  -0.669  0.00  0.00    +0.172 C 
ATOM     21  C   UNL     1       1.462  -2.476  -1.768  0.00  0.00    +0.067 C 
ENDBRANCH  11  16
ENDBRANCH   1  11
BRANCH   1  22
ATOM     22  C   UNL     1      -1.584   0.585   1.027  0.00  0.00    +0.227 C 
BRANCH  22  23
ATOM     23  C   UNL     1      -3.038   0.578   1.422  0.00  0.00    +0.232 C 
ATOM     24  O   UNL     1      -3.794  -0.239   0.939  0.00  0.00    -0.274 OA
ATOM     25  N   UNL     1      -3.501   1.482   2.308  0.00  0.00    -0.314 N 
ATOM     26  H   UNL     1      -2.816   2.226   2.742  0.00  0.00    +0.149 HD
BRANCH  25  27
ATOM     27  C   UNL     1      -4.914   1.475   2.692  0.00  0.00    +0.102 C 
BRANCH  27  28
ATOM     28  C   UNL     1      -5.174   2.594   3.702  0.00  0.00    +0.000 C 
BRANCH  28  29
ATOM     29  C   UNL     1      -6.651   2.586   4.104  0.00  0.00    -0.077 C 
BRANCH  29  30
ATOM     30  N   UNL     1      -6.900   3.661   5.074  0.00  0.00    +0.380 N 
ATOM     31  C   UNL     1      -6.193   3.405   6.336  0.00  0.00    -0.096 C 
ATOM     32  H   UNL     1      -6.507   4.596   4.650  0.00  0.00    -0.082 HD
BRANCH  30  33
ATOM     33  C   UNL     1      -8.340   3.839   5.303  0.00  0.00    -0.069 C 
ATOM     34  C   UNL     1      -9.026   4.200   3.984  0.00  0.00    -0.015 C 
ATOM     35  C   UNL     1     -10.525   4.386   4.223  0.00  0.00    -0.002 C 
ATOM     36  C   UNL     1     -10.745   5.511   5.236  0.00  0.00    -0.000 C 
ATOM     37  C   UNL     1     -10.059   5.149   6.556  0.00  0.00    -0.002 C 
ATOM     38  C   UNL     1      -8.559   4.964   6.317  0.00  0.00    -0.015 C 
ENDBRANCH  30  33
ENDBRANCH  29  30
ENDBRANCH  28  29
ENDBRANCH  27  28
ENDBRANCH  25  27
ENDBRANCH  22  23
ENDBRANCH   1  22
TORSDOF 11
