REMARK  Name = ZINC23616809
REMARK  8 active torsions:
REMARK  status: ('A' for Active; 'I' for Inactive)
REMARK    1  A    between atoms: C_1  and  C_2
REMARK    2  A    between atoms: C_3  and  C_7
REMARK    3  A    between atoms: C_10  and  S_13
REMARK    4  A    between atoms: N_11  and  N_12
REMARK    5  A    between atoms: S_13  and  C_14
REMARK    6  A    between atoms: C_14  and  C_16
REMARK    7  A    between atoms: C_14  and  C_17
REMARK    8  A    between atoms: N_19  and  C_20
REMARK                            x       y       z     vdW  Elec       q    Type
REMARK                         _______ _______ _______ _____ _____    ______ ____
ROOT
ATOM      1  C   UNL     1       0.146  -2.946  -0.016  0.00  0.00    +0.137 C 
ATOM      2  C   UNL     1      -0.598  -2.628  -1.314  0.00  0.00    +0.029 C 
ENDROOT
BRANCH   1   3
ATOM      3  C   UNL     1       0.344  -4.436   0.097  0.00  0.00    +0.227 C 
ATOM      4  O   UNL     1       1.412  -4.930  -0.196  0.00  0.00    -0.275 OA
ATOM      5  N   UNL     1      -0.666  -5.220   0.524  0.00  0.00    -0.307 N 
ATOM      6  H   UNL     1      -1.635  -4.772   0.789  0.00  0.00    +0.149 HD
BRANCH   5   7
ATOM      7  C   UNL     1      -0.474  -6.668   0.634  0.00  0.00    +0.110 C 
ATOM      8  C   UNL     1      -1.828  -7.372   0.518  0.00  0.00    +0.068 C 
ATOM      9  C   UNL     1      -1.645  -8.839   0.927  0.00  0.00    +0.231 C 
ATOM     10  O   UNL     1      -1.282  -8.879   2.308  0.00  0.00    -0.492 OA
ATOM     11  C   UNL     1      -0.275  -8.067   2.723  0.00  0.00    +0.125 A 
ATOM     12  C   UNL     1       0.153  -6.991   1.966  0.00  0.00    +0.014 A 
ATOM     13  C   UNL     1       1.180  -6.187   2.432  0.00  0.00    +0.009 A 
ATOM     14  C   UNL     1       1.780  -6.455   3.647  0.00  0.00    +0.001 A 
ATOM     15  C   UNL     1       1.356  -7.532   4.404  0.00  0.00    +0.004 A 
ATOM     16  C   UNL     1       0.332  -8.336   3.945  0.00  0.00    +0.046 A 
ENDBRANCH   5   7
ENDBRANCH   1   3
BRANCH   1  17
ATOM     17  S   UNL     1       1.758  -2.123  -0.027  0.00  0.00    -0.072 S 
BRANCH  17  21
ATOM     18  C   UNL     1       1.212   1.746  -0.000  0.00  0.00    +0.185 A 
ATOM     19  N   UNL     1      -0.015   1.281   0.009  0.00  0.00    -0.127 NA
ATOM     20  N   UNL     1       0.002  -0.004   0.002  0.00  0.00    -0.121 NA
ATOM     21  C   UNL     1       1.241  -0.439  -0.012  0.00  0.00    +0.209 A 
ATOM     22  N   UNL     1       2.055   0.660  -0.014  0.00  0.00    -0.224 N 
BRANCH  18  25
ATOM     23  C   UNL     1      -0.716   4.218   0.030  0.00  0.00    +0.087 C 
ATOM     24  C   UNL     1       0.791   4.254   0.017  0.00  0.00    +0.112 A 
ATOM     25  C   UNL     1       1.612   3.170   0.003  0.00  0.00    +0.061 A 
ATOM     26  C   UNL     1       2.979   3.707  -0.001  0.00  0.00    +0.053 A 
ATOM     27  C   UNL     1       2.853   5.044   0.002  0.00  0.00    +0.196 A 
ATOM     28  O   UNL     1       1.549   5.360   0.016  0.00  0.00    -0.467 OA
ENDBRANCH  18  25
BRANCH  22  29
ATOM     29  N   UNL     1       3.421   0.675  -0.027  0.00  0.00    -0.295 N 
ATOM     30  H   UNL     1       3.982  -0.271  -0.037  0.00  0.00    +0.163 HD
ATOM     31  H   UNL     1       3.960   1.634  -0.026  0.00  0.00    +0.163 HD
ENDBRANCH  22  29
ENDBRANCH  17  21
ENDBRANCH   1  17
TORSDOF 6
