REMARK  Name = ZINC39962493
REMARK  6 active torsions:
REMARK  status: ('A' for Active; 'I' for Inactive)
REMARK    1  A    between atoms: C_9  and  C_27
REMARK    2  A    between atoms: C_11  and  N_14
REMARK    3  A    between atoms: C_15  and  C_17
REMARK    4  A    between atoms: C_17  and  S_18
REMARK    5  A    between atoms: S_18  and  C_19
REMARK    6  A    between atoms: C_24  and  N_26
REMARK                            x       y       z     vdW  Elec       q    Type
REMARK                         _______ _______ _______ _____ _____    ______ ____
ROOT
ATOM      1  N   UNL     1      -2.915  -0.267   4.816  0.00  0.00    -0.301 N 
ATOM      2  C   UNL     1      -3.336  -0.658   6.035  0.00  0.00    +0.224 C 
ATOM      3  O   UNL     1      -2.531  -0.862   6.919  0.00  0.00    -0.275 OA
ATOM      4  H   UNL     1      -3.559  -0.104   4.110  0.00  0.00    +0.150 HD
ENDROOT
BRANCH   1  14
ATOM      5  C   UNL     1      -0.019   1.531   0.011  0.00  0.00    +0.000 C 
ATOM      6  C   UNL     1       1.429   1.974  -0.001  0.00  0.00    +0.000 C 
ATOM      7  C   UNL     1       2.069   1.966   1.378  0.00  0.00    +0.005 C 
ATOM      8  C   UNL     1       1.095   2.444   2.453  0.00  0.00    +0.042 C 
ATOM      9  C   UNL     1       0.117   1.365   2.870  0.00  0.00    -0.012 C 
ATOM     10  C   UNL     1      -0.053   0.133   2.470  0.00  0.00    -0.041 C 
ATOM     11  C   UNL     1       0.663  -0.497   1.285  0.00  0.00    +0.033 C 
ATOM     12  C   UNL     1       0.002  -0.004   0.002  0.00  0.00    +0.004 C 
ATOM     13  C   UNL     1      -1.066  -0.722   3.215  0.00  0.00    +0.149 C 
ATOM     14  C   UNL     1      -1.484  -0.089   4.559  0.00  0.00    +0.156 C 
ATOM     15  S   UNL     1      -1.077   1.663   4.172  0.00  0.00    -0.106 S 
BRANCH  13  16
ATOM     16  C   UNL     1      -2.263  -0.888   2.375  0.00  0.00    +0.073 C 
ATOM     17  N   UNL     1      -3.186  -1.016   1.726  0.00  0.00    -0.196 NA
ENDBRANCH  13  16
ENDBRANCH   1  14
BRANCH   2  18
ATOM     18  C   UNL     1      -4.809  -0.841   6.300  0.00  0.00    +0.173 C 
BRANCH  18  19
ATOM     19  S   UNL     1      -5.053  -1.367   8.019  0.00  0.00    -0.078 S 
BRANCH  19  20
ATOM     20  C   UNL     1      -6.800  -1.536   8.169  0.00  0.00    +0.171 A 
ATOM     21  N   UNL     1      -7.333  -1.921   9.362  0.00  0.00    -0.302 N 
ATOM     22  C   UNL     1      -8.669  -2.055   9.495  0.00  0.00    +0.254 A 
ATOM     23  O   UNL     1      -9.156  -2.400  10.561  0.00  0.00    -0.268 OA
ATOM     24  C   UNL     1      -9.488  -1.793   8.392  0.00  0.00    +0.113 A 
ATOM     25  C   UNL     1      -8.895  -1.404   7.199  0.00  0.00    +0.124 A 
ATOM     26  N   UNL     1      -7.565  -1.282   7.127  0.00  0.00    -0.209 NA
ATOM     27  H   UNL     1      -6.751  -2.099  10.118  0.00  0.00    +0.171 HD
BRANCH  25  28
ATOM     28  N   UNL     1      -9.676  -1.138   6.092  0.00  0.00    -0.343 N 
ATOM     29  H   UNL     1     -10.640  -1.223   6.147  0.00  0.00    +0.144 HD
ATOM     30  H   UNL     1      -9.260  -0.866   5.259  0.00  0.00    +0.144 HD
ENDBRANCH  25  28
ENDBRANCH  19  20
ENDBRANCH  18  19
ENDBRANCH   2  18
TORSDOF 6
