REMARK  Name = ZINC37552362
REMARK  8 active torsions:
REMARK  status: ('A' for Active; 'I' for Inactive)
REMARK    1  A    between atoms: C_1  and  C_2
REMARK    2  A    between atoms: C_5  and  S_9
REMARK    3  A    between atoms: C_6  and  C_8
REMARK    4  A    between atoms: S_9  and  N_12
REMARK    5  A    between atoms: N_12  and  C_13
REMARK    6  A    between atoms: C_16  and  C_18
REMARK    7  A    between atoms: C_19  and  C_20
REMARK    8  A    between atoms: C_20  and  O_21
REMARK                            x       y       z     vdW  Elec       q    Type
REMARK                         _______ _______ _______ _____ _____    ______ ____
ROOT
ATOM      1  S   UNL     1       0.063  -4.530  -0.023  0.00  0.00    +0.094 S 
ATOM      2  O   UNL     1      -0.953  -4.955   0.876  0.00  0.00    -0.148 OA
ATOM      3  O   UNL     1       0.087  -4.929  -1.387  0.00  0.00    -0.148 OA
ENDROOT
BRANCH   1   8
ATOM      4  C   UNL     1      -0.018   1.503   0.010  0.00  0.00    +0.044 C 
ATOM      5  C   UNL     1       0.002  -0.004   0.002  0.00  0.00    -0.050 A 
ATOM      6  C   UNL     1       0.006  -0.689  -1.199  0.00  0.00    +0.005 A 
ATOM      7  C   UNL     1       0.025  -2.071  -1.207  0.00  0.00    +0.029 A 
ATOM      8  C   UNL     1       0.040  -2.768  -0.013  0.00  0.00    +0.113 A 
ATOM      9  C   UNL     1       0.037  -2.084   1.188  0.00  0.00    -0.024 A 
ATOM     10  C   UNL     1       0.023  -0.702   1.195  0.00  0.00    +0.008 A 
ATOM     11  C   UNL     1       0.054  -2.845   2.489  0.00  0.00    +0.046 C 
ENDBRANCH   1   8
BRANCH   1  12
ATOM     12  N   UNL     1       1.506  -5.005   0.635  0.00  0.00    -0.070 NA
BRANCH  12  13
ATOM     13  C   UNL     1       1.802  -6.351   0.756  0.00  0.00    +0.202 A 
ATOM     14  N   UNL     1       1.066  -7.385   0.399  0.00  0.00    -0.229 NA
ATOM     15  C   UNL     1       1.488  -8.618   0.579  0.00  0.00    +0.137 A 
ATOM     16  C   UNL     1       2.724  -8.769   1.154  0.00  0.00    +0.083 A 
ATOM     17  S   UNL     1       3.192  -7.061   1.386  0.00  0.00    -0.041 S 
BRANCH  16  18
ATOM     18  C   UNL     1       3.444  -9.965   1.473  0.00  0.00    -0.055 C 
ATOM     19  C   UNL     1       4.034 -10.945   1.735  0.00  0.00    -0.068 C 
BRANCH  19  20
ATOM     20  C   UNL     1       4.774 -12.175   2.064  0.00  0.00    +0.244 C 
BRANCH  20  21
ATOM     21  O   UNL     1       6.030 -11.832   2.653  0.00  0.00    -0.383 OA
ATOM     22  H   UNL     1       6.572 -12.595   2.896  0.00  0.00    +0.211 HD
ENDBRANCH  20  21
ENDBRANCH  19  20
ENDBRANCH  16  18
ENDBRANCH  12  13
ENDBRANCH   1  12
TORSDOF 6
