REMARK  Name = ZINC36574571
REMARK  11 active torsions:
REMARK  status: ('A' for Active; 'I' for Inactive)
REMARK    1  A    between atoms: C_1  and  C_2
REMARK    2  A    between atoms: C_2  and  C_3
REMARK    3  A    between atoms: C_3  and  N_4
REMARK    4  A    between atoms: N_4  and  C_5
REMARK    5  A    between atoms: C_5  and  C_7
REMARK    6  A    between atoms: C_5  and  C_16
REMARK    7  A    between atoms: C_10  and  N_13
REMARK    8  A    between atoms: N_18  and  C_19
REMARK    9  A    between atoms: C_25  and  C_27
REMARK   10  A    between atoms: C_27  and  C_28
REMARK   11  A    between atoms: C_27  and  C_34
REMARK                            x       y       z     vdW  Elec       q    Type
REMARK                         _______ _______ _______ _____ _____    ______ ____
ROOT
ATOM      1  C   UNL     1      -0.618  -2.033  -1.555  0.00  0.00    +0.192 C 
ENDROOT
BRANCH   1   2
ATOM      2  C   UNL     1      -0.332  -2.443  -2.977  0.00  0.00    -0.018 A 
ATOM      3  C   UNL     1       0.478  -1.656  -3.774  0.00  0.00    +0.008 A 
ATOM      4  C   UNL     1       0.740  -2.032  -5.078  0.00  0.00    +0.033 A 
ATOM      5  C   UNL     1       0.193  -3.196  -5.585  0.00  0.00    +0.126 A 
ATOM      6  C   UNL     1      -0.617  -3.983  -4.788  0.00  0.00    +0.033 A 
ATOM      7  C   UNL     1      -0.876  -3.609  -3.482  0.00  0.00    +0.008 A 
BRANCH   5   8
ATOM      8  N   UNL     1       0.473  -3.598  -6.982  0.00  0.00    +0.056 N 
ATOM      9  O   UNL     1       1.180  -2.909  -7.679  0.00  0.00    -0.126 OA
ATOM     10  O   UNL     1      -0.006  -4.615  -7.425  0.00  0.00    -0.126 OA
ENDBRANCH   5   8
ENDBRANCH   1   2
BRANCH   1  11
ATOM     11  C   UNL     1      -1.897  -1.236  -1.510  0.00  0.00    +0.238 C 
ATOM     12  O   UNL     1      -1.882  -0.087  -1.122  0.00  0.00    -0.273 OA
ATOM     13  N   UNL     1      -3.057  -1.801  -1.900  0.00  0.00    -0.311 N 
ATOM     14  H   UNL     1      -3.069  -2.720  -2.210  0.00  0.00    +0.149 HD
BRANCH  13  15
ATOM     15  C   UNL     1      -4.300  -1.027  -1.855  0.00  0.00    +0.073 C 
ATOM     16  C   UNL     1      -4.902  -1.109  -0.451  0.00  0.00    +0.022 C 
ATOM     17  C   UNL     1      -6.200  -0.300  -0.405  0.00  0.00    +0.002 C 
ATOM     18  C   UNL     1      -7.192  -0.870  -1.420  0.00  0.00    +0.000 C 
ATOM     19  C   UNL     1      -6.590  -0.788  -2.824  0.00  0.00    +0.002 C 
ATOM     20  C   UNL     1      -5.292  -1.597  -2.870  0.00  0.00    +0.022 C 
ENDBRANCH  13  15
ENDBRANCH   1  11
BRANCH   1  21
ATOM     21  N   UNL     1       0.486  -1.213  -1.052  0.00  0.00    -0.285 N 
ATOM     22  C   UNL     1       1.620  -1.800  -0.621  0.00  0.00    +0.228 C 
ATOM     23  O   UNL     1       1.707  -3.010  -0.603  0.00  0.00    -0.275 OA
BRANCH  21  24
ATOM     24  C   UNL     1       0.359   0.246  -1.018  0.00  0.00    +0.108 C 
BRANCH  24  26
ATOM     25  C   UNL     1      -0.315   2.196   0.391  0.00  0.00    +0.005 C 
ATOM     26  C   UNL     1      -0.048   0.690   0.389  0.00  0.00    +0.016 C 
ENDBRANCH  24  26
ENDBRANCH  21  24
BRANCH  22  27
ATOM     27  C   UNL     1       2.779  -0.955  -0.160  0.00  0.00    +0.135 C 
BRANCH  27  28
ATOM     28  C   UNL     1       3.712  -1.793   0.675  0.00  0.00    -0.031 A 
ATOM     29  C   UNL     1       4.413  -2.834   0.094  0.00  0.00    +0.005 A 
ATOM     30  C   UNL     1       5.269  -3.603   0.860  0.00  0.00    +0.000 A 
ATOM     31  C   UNL     1       5.425  -3.332   2.206  0.00  0.00    +0.000 A 
ATOM     32  C   UNL     1       4.725  -2.290   2.787  0.00  0.00    +0.000 A 
ATOM     33  C   UNL     1       3.873  -1.518   2.020  0.00  0.00    +0.005 A 
ENDBRANCH  27  28
BRANCH  27  34
ATOM     34  C   UNL     1       3.519  -0.421  -1.359  0.00  0.00    -0.031 A 
ATOM     35  C   UNL     1       4.133   0.816  -1.298  0.00  0.00    +0.005 A 
ATOM     36  C   UNL     1       4.812   1.306  -2.398  0.00  0.00    +0.000 A 
ATOM     37  C   UNL     1       4.878   0.558  -3.558  0.00  0.00    +0.000 A 
ATOM     38  C   UNL     1       4.266  -0.680  -3.619  0.00  0.00    +0.000 A 
ATOM     39  C   UNL     1       3.591  -1.171  -2.518  0.00  0.00    +0.005 A 
ENDBRANCH  27  34
ENDBRANCH  22  27
ENDBRANCH   1  21
TORSDOF 10
