REMARK  Name = ZINC09319696
REMARK  12 active torsions:
REMARK  status: ('A' for Active; 'I' for Inactive)
REMARK    1  A    between atoms: C_1  and  C_2
REMARK    2  A    between atoms: C_6  and  C_9
REMARK    3  A    between atoms: C_10  and  C_11
REMARK    4  A    between atoms: C_10  and  C_12
REMARK    5  A    between atoms: C_10  and  C_13
REMARK    6  A    between atoms: C_10  and  N_64
REMARK    7  A    between atoms: C_13  and  N_14
REMARK    8  A    between atoms: C_15  and  C_17
REMARK    9  A    between atoms: C_20  and  N_23
REMARK   10  A    between atoms: N_23  and  S_24
REMARK   11  A    between atoms: S_24  and  C_27
REMARK   12  A    between atoms: C_31  and  N_33
REMARK                            x       y       z     vdW  Elec       q    Type
REMARK                         _______ _______ _______ _____ _____    ______ ____
ROOT
ATOM      1  C   UNL     1      -1.121   2.407   0.023  0.00  0.00    +0.037 A 
ATOM      2  C   UNL     1      -1.302   3.793   0.074  0.00  0.00    +0.015 A 
ATOM      3  C   UNL     1      -2.573   4.320   0.069  0.00  0.00    +0.025 A 
ATOM      4  C   UNL     1      -3.679   3.475   0.027  0.00  0.00    +0.048 A 
ATOM      5  C   UNL     1      -3.502   2.095  -0.017  0.00  0.00    +0.025 A 
ATOM      6  C   UNL     1      -2.233   1.562  -0.019  0.00  0.00    +0.015 A 
ENDROOT
BRANCH   1   8
ATOM      7  N   UNL     1       1.311   2.656   0.057  0.00  0.00    -0.313 N 
ATOM      8  C   UNL     1       0.240   1.839   0.021  0.00  0.00    +0.244 C 
ATOM      9  O   UNL     1       0.396   0.634  -0.018  0.00  0.00    -0.270 OA
ATOM     10  H   UNL     1       1.187   3.618   0.088  0.00  0.00    +0.149 HD
BRANCH   7  11
ATOM     11  C   UNL     1       2.663   2.092   0.049  0.00  0.00    +0.092 C 
BRANCH  11  12
ATOM     12  C   UNL     1       3.689   3.226   0.094  0.00  0.00    -0.055 C 
ATOM     13  C   UNL     1       5.101   2.637   0.086  0.00  0.00    -0.008 C 
ATOM     14  C   UNL     1       3.506   4.129  -1.127  0.00  0.00    -0.008 C 
BRANCH  12  22
ATOM     15  C   UNL     1       3.475   3.143   5.011  0.00  0.00    +0.036 C 
ATOM     16  C   UNL     1       3.311   4.007   3.760  0.00  0.00    +0.099 C 
ATOM     17  C   UNL     1       3.578   3.160   2.513  0.00  0.00    -0.046 C 
ATOM     18  C   UNL     1       4.465   5.115   1.397  0.00  0.00    -0.046 C 
ATOM     19  C   UNL     1       4.189   5.943   2.655  0.00  0.00    +0.099 C 
ATOM     20  O   UNL     1       4.244   5.091   3.802  0.00  0.00    -0.378 OA
ATOM     21  C   UNL     1       5.245   7.043   2.784  0.00  0.00    +0.036 C 
ATOM     22  N   UNL     1       3.470   4.025   1.320  0.00  0.00    +0.387 N 
ATOM     23  H   UNL     1       2.529   4.434   1.288  0.00  0.00    -0.081 HD
ENDBRANCH  12  22
ENDBRANCH  11  12
ENDBRANCH   7  11
ENDBRANCH   1   8
BRANCH   4  24
ATOM     24  N   UNL     1      -4.962   4.010   0.029  0.00  0.00    -0.216 N 
ATOM     25  H   UNL     1      -5.314   4.430  -0.772  0.00  0.00    +0.174 HD
BRANCH  24  26
ATOM     26  S   UNL     1      -5.889   3.932   1.399  0.00  0.00    +0.072 S 
ATOM     27  O   UNL     1      -7.106   4.605   1.104  0.00  0.00    -0.150 OA
ATOM     28  O   UNL     1      -5.853   2.581   1.838  0.00  0.00    -0.150 OA
BRANCH  26  29
ATOM     29  C   UNL     1      -5.074   4.886   2.636  0.00  0.00    +0.111 A 
ATOM     30  C   UNL     1      -5.400   6.218   2.808  0.00  0.00    +0.029 A 
ATOM     31  C   UNL     1      -4.760   6.966   3.779  0.00  0.00    +0.004 A 
ATOM     32  C   UNL     1      -3.794   6.382   4.577  0.00  0.00    +0.033 A 
ATOM     33  C   UNL     1      -3.468   5.050   4.404  0.00  0.00    +0.128 A 
ATOM     34  C   UNL     1      -4.112   4.301   3.437  0.00  0.00    +0.061 A 
BRANCH  33  35
ATOM     35  N   UNL     1      -2.434   4.425   5.259  0.00  0.00    +0.056 N 
ATOM     36  O   UNL     1      -1.871   5.084   6.114  0.00  0.00    -0.126 OA
ATOM     37  O   UNL     1      -2.147   3.251   5.107  0.00  0.00    -0.126 OA
ENDBRANCH  33  35
ENDBRANCH  26  29
ENDBRANCH  24  26
ENDBRANCH   4  24
TORSDOF 8
