REMARK  Name = ZINC09948616
REMARK  10 active torsions:
REMARK  status: ('A' for Active; 'I' for Inactive)
REMARK    1  A    between atoms: C_4  and  C_7
REMARK    2  A    between atoms: C_7  and  O_8
REMARK    3  A    between atoms: O_8  and  C_9
REMARK    4  A    between atoms: C_12  and  C_15
REMARK    5  A    between atoms: C_15  and  N_16
REMARK    6  A    between atoms: N_23  and  C_24
REMARK    7  A    between atoms: C_24  and  C_25
REMARK    8  A    between atoms: C_28  and  O_31
REMARK    9  A    between atoms: O_31  and  C_32
REMARK   10  A    between atoms: C_32  and  C_33
REMARK                            x       y       z     vdW  Elec       q    Type
REMARK                         _______ _______ _______ _____ _____    ______ ____
ROOT
ATOM      1  N   UNL     1      10.119  -2.706   2.041  0.00  0.00    -0.310 N 
ATOM      2  C   UNL     1      11.420  -3.144   2.205  0.00  0.00    +0.213 A 
ATOM      3  N   UNL     1      11.817  -4.430   2.313  0.00  0.00    -0.245 N 
ATOM      4  H   UNL     1      11.249  -5.216   2.291  0.00  0.00    +0.192 HD
ATOM      5  N   UNL     1      13.213  -4.404   2.463  0.00  0.00    -0.135 NA
ATOM      6  C   UNL     1      13.577  -3.145   2.439  0.00  0.00    +0.236 A 
ATOM      7  N   UNL     1      12.490  -2.381   2.277  0.00  0.00    -0.180 NA
ATOM      8  N   UNL     1      14.886  -2.677   2.558  0.00  0.00    -0.308 N 
ATOM      9  H   UNL     1       9.932  -1.757   1.969  0.00  0.00    +0.149 HD
ATOM     10  H   UNL     1      15.065  -1.724   2.530  0.00  0.00    +0.149 HD
ENDROOT
BRANCH   1  11
ATOM     11  C   UNL     1       9.022  -3.675   1.977  0.00  0.00    +0.139 C 
BRANCH  11  15
ATOM     12  C   UNL     1       5.319  -1.605   1.466  0.00  0.00    +0.121 A 
ATOM     13  C   UNL     1       6.048  -2.007   0.357  0.00  0.00    +0.046 A 
ATOM     14  C   UNL     1       7.245  -2.676   0.525  0.00  0.00    +0.009 A 
ATOM     15  C   UNL     1       7.716  -2.945   1.797  0.00  0.00    -0.030 A 
ATOM     16  C   UNL     1       6.990  -2.545   2.904  0.00  0.00    +0.009 A 
ATOM     17  C   UNL     1       5.796  -1.871   2.742  0.00  0.00    +0.046 A 
BRANCH  12  18
ATOM     18  O   UNL     1       4.141  -0.946   1.304  0.00  0.00    -0.487 OA
BRANCH  18  19
ATOM     19  C   UNL     1       3.711  -0.707  -0.038  0.00  0.00    +0.264 C 
BRANCH  19  23
ATOM     20  C   UNL     1      -0.017   1.378   0.010  0.00  0.00    +0.000 A 
ATOM     21  C   UNL     1       1.171   2.086   0.002  0.00  0.00    +0.000 A 
ATOM     22  C   UNL     1       2.377   1.411  -0.013  0.00  0.00    +0.007 A 
ATOM     23  C   UNL     1       2.396   0.029  -0.020  0.00  0.00    -0.010 A 
ATOM     24  C   UNL     1       1.208  -0.679  -0.012  0.00  0.00    +0.007 A 
ATOM     25  C   UNL     1       0.002  -0.004   0.002  0.00  0.00    +0.000 A 
ENDBRANCH  19  23
ENDBRANCH  18  19
ENDBRANCH  12  18
ENDBRANCH  11  15
ENDBRANCH   1  11
BRANCH   8  26
ATOM     26  C   UNL     1      15.990  -3.625   2.726  0.00  0.00    +0.139 C 
BRANCH  26  27
ATOM     27  C   UNL     1      17.290  -2.869   2.830  0.00  0.00    -0.030 A 
ATOM     28  C   UNL     1      18.012  -2.578   1.687  0.00  0.00    +0.009 A 
ATOM     29  C   UNL     1      19.204  -1.885   1.779  0.00  0.00    +0.046 A 
ATOM     30  C   UNL     1      19.676  -1.482   3.020  0.00  0.00    +0.121 A 
ATOM     31  C   UNL     1      18.950  -1.775   4.165  0.00  0.00    +0.046 A 
ATOM     32  C   UNL     1      17.756  -2.463   4.067  0.00  0.00    +0.009 A 
BRANCH  30  33
ATOM     33  O   UNL     1      20.848  -0.801   3.113  0.00  0.00    -0.487 OA
BRANCH  33  34
ATOM     34  C   UNL     1      21.273  -0.417   4.423  0.00  0.00    +0.264 C 
BRANCH  34  35
ATOM     35  C   UNL     1      22.583   0.322   4.329  0.00  0.00    -0.010 A 
ATOM     36  C   UNL     1      23.776  -0.374   4.392  0.00  0.00    +0.007 A 
ATOM     37  C   UNL     1      24.977   0.304   4.306  0.00  0.00    +0.000 A 
ATOM     38  C   UNL     1      24.986   1.678   4.157  0.00  0.00    +0.000 A 
ATOM     39  C   UNL     1      23.793   2.374   4.094  0.00  0.00    +0.000 A 
ATOM     40  C   UNL     1      22.592   1.696   4.175  0.00  0.00    +0.007 A 
ENDBRANCH  34  35
ENDBRANCH  33  34
ENDBRANCH  30  33
ENDBRANCH  26  27
ENDBRANCH   8  26
TORSDOF 10
