REMARK  Name = ZINC12717304
REMARK  11 active torsions:
REMARK  status: ('A' for Active; 'I' for Inactive)
REMARK    1  A    between atoms: C_1  and  C_2
REMARK    2  A    between atoms: C_9  and  C_14
REMARK    3  A    between atoms: C_14  and  N_67
REMARK    4  A    between atoms: C_15  and  C_16
REMARK    5  A    between atoms: C_15  and  N_67
REMARK    6  A    between atoms: C_25  and  C_26
REMARK    7  A    between atoms: C_25  and  N_67
REMARK    8  A    between atoms: N_30  and  C_31
REMARK    9  A    between atoms: C_31  and  C_32
REMARK   10  A    between atoms: C_35  and  O_38
REMARK   11  A    between atoms: O_38  and  C_39
REMARK                            x       y       z     vdW  Elec       q    Type
REMARK                         _______ _______ _______ _____ _____    ______ ____
ROOT
ATOM      1  N   UNL     1      -0.900   1.588  -0.985  0.00  0.00    +0.390 N 
ATOM      2  H   UNL     1      -1.920   1.499  -0.916  0.00  0.00    -0.080 HD
ENDROOT
BRANCH   1   3
ATOM      3  C   UNL     1      -0.409   0.681  -2.044  0.00  0.00    -0.036 C 
BRANCH   3  12
ATOM      4  C   UNL     1      -5.986  -3.934  -3.838  0.00  0.00    +0.044 C 
ATOM      5  C   UNL     1      -4.726  -3.632  -3.070  0.00  0.00    -0.050 A 
ATOM      6  C   UNL     1      -4.196  -4.589  -2.214  0.00  0.00    +0.005 A 
ATOM      7  C   UNL     1      -3.044  -4.335  -1.502  0.00  0.00    +0.026 A 
ATOM      8  C   UNL     1      -2.404  -3.107  -1.639  0.00  0.00    +0.049 A 
ATOM      9  C   UNL     1      -2.944  -2.140  -2.507  0.00  0.00    -0.001 A 
ATOM     10  C   UNL     1      -4.114  -2.420  -3.221  0.00  0.00    +0.013 A 
ATOM     11  C   UNL     1      -2.267  -0.849  -2.640  0.00  0.00    +0.017 A 
ATOM     12  C   UNL     1      -1.134  -0.635  -1.927  0.00  0.00    +0.001 A 
ATOM     13  C   UNL     1      -0.633  -1.639  -1.070  0.00  0.00    +0.251 A 
ATOM     14  O   UNL     1       0.384  -1.425  -0.434  0.00  0.00    -0.268 OA
ATOM     15  N   UNL     1      -1.251  -2.826  -0.938  0.00  0.00    -0.322 N 
ATOM     16  H   UNL     1      -0.880  -3.494  -0.340  0.00  0.00    +0.169 HD
ENDBRANCH   3  12
ENDBRANCH   1   3
BRANCH   1  17
ATOM     17  C   UNL     1      -0.561   2.987  -1.321  0.00  0.00    -0.042 C 
BRANCH  17  18
ATOM     18  C   UNL     1      -1.472   3.453  -2.427  0.00  0.00    -0.060 A 
ATOM     19  C   UNL     1      -1.043   3.406  -3.740  0.00  0.00    +0.005 A 
ATOM     20  C   UNL     1      -1.877   3.827  -4.758  0.00  0.00    +0.050 A 
ATOM     21  C   UNL     1      -3.142   4.309  -4.464  0.00  0.00    +0.166 A 
ATOM     22  C   UNL     1      -3.573   4.362  -3.140  0.00  0.00    +0.166 A 
ATOM     23  C   UNL     1      -2.733   3.932  -2.125  0.00  0.00    +0.051 A 
ATOM     24  O   UNL     1      -4.840   4.869  -3.114  0.00  0.00    -0.453 OA
ATOM     25  C   UNL     1      -5.026   5.506  -4.391  0.00  0.00    +0.466 C 
ATOM     26  O   UNL     1      -4.139   4.784  -5.266  0.00  0.00    -0.453 OA
ENDBRANCH  17  18
ENDBRANCH   1  17
BRANCH   1  27
ATOM     27  C   UNL     1      -0.297   1.220   0.314  0.00  0.00    +0.001 C 
BRANCH  27  28
ATOM     28  C   UNL     1      -0.974   2.008   1.405  0.00  0.00    +0.135 A 
ATOM     29  N   UNL     1      -0.603   3.174   1.874  0.00  0.00    -0.115 NA
ATOM     30  N   UNL     1      -1.436   3.517   2.794  0.00  0.00    -0.023 NA
ATOM     31  N   UNL     1      -2.325   2.596   2.930  0.00  0.00    -0.044 NA
ATOM     32  N   UNL     1      -2.075   1.649   2.091  0.00  0.00    -0.227 N 
BRANCH  32  33
ATOM     33  C   UNL     1      -2.844   0.414   1.918  0.00  0.00    +0.182 C 
BRANCH  33  34
ATOM     34  C   UNL     1      -2.293  -0.653   2.828  0.00  0.00    -0.026 A 
ATOM     35  C   UNL     1      -1.291  -1.494   2.378  0.00  0.00    +0.009 A 
ATOM     36  C   UNL     1      -0.780  -2.469   3.212  0.00  0.00    +0.046 A 
ATOM     37  C   UNL     1      -1.281  -2.612   4.498  0.00  0.00    +0.120 A 
ATOM     38  C   UNL     1      -2.291  -1.772   4.945  0.00  0.00    +0.046 A 
ATOM     39  C   UNL     1      -2.794  -0.794   4.109  0.00  0.00    +0.009 A 
BRANCH  37  40
ATOM     40  O   UNL     1      -0.784  -3.575   5.319  0.00  0.00    -0.495 OA
ATOM     41  C   UNL     1       0.254  -4.404   4.792  0.00  0.00    +0.277 C 
ENDBRANCH  37  40
ENDBRANCH  33  34
ENDBRANCH  32  33
ENDBRANCH  27  28
ENDBRANCH   1  27
TORSDOF 9
