REMARK  Name = ZINC12705512
REMARK  13 active torsions:
REMARK  status: ('A' for Active; 'I' for Inactive)
REMARK    1  A    between atoms: C_1  and  C_2
REMARK    2  A    between atoms: C_5  and  C_8
REMARK    3  A    between atoms: N_11  and  C_13
REMARK    4  A    between atoms: C_13  and  C_14
REMARK    5  A    between atoms: N_16  and  C_17
REMARK    6  A    between atoms: N_16  and  C_35
REMARK    7  A    between atoms: C_17  and  C_19
REMARK    8  A    between atoms: C_17  and  C_26
REMARK    9  A    between atoms: C_22  and  O_25
REMARK   10  A    between atoms: N_28  and  C_29
REMARK   11  A    between atoms: C_35  and  C_36
REMARK   12  A    between atoms: C_35  and  C_37
REMARK   13  A    between atoms: C_35  and  C_38
REMARK                            x       y       z     vdW  Elec       q    Type
REMARK                         _______ _______ _______ _____ _____    ______ ____
ROOT
ATOM      1  C   UNL     1      -0.743  -1.237  -0.108  0.00  0.00    +0.240 C 
ATOM      2  O   UNL     1      -0.884  -2.427   0.078  0.00  0.00    -0.273 OA
ATOM      3  N   UNL     1      -0.084  -0.799  -1.200  0.00  0.00    -0.279 N 
ENDROOT
BRANCH   3   4
ATOM      4  C   UNL     1       0.197   0.629  -1.361  0.00  0.00    +0.030 C 
ATOM      5  C   UNL     1       1.189   1.078  -0.286  0.00  0.00    +0.031 C 
ATOM      6  C   UNL     1       0.799   0.877  -2.746  0.00  0.00    +0.031 C 
ATOM      7  C   UNL     1      -1.102   1.425  -1.220  0.00  0.00    +0.031 C 
ENDBRANCH   3   4
BRANCH   1   8
ATOM      8  C   UNL     1      -1.305  -0.248   0.880  0.00  0.00    +0.264 C 
BRANCH   8  12
ATOM      9  C   UNL     1      -3.156  -1.986   3.330  0.00  0.00    +0.205 A 
ATOM     10  N   UNL     1      -1.953  -1.896   3.915  0.00  0.00    -0.108 NA
ATOM     11  N   UNL     1      -1.176  -1.269   3.099  0.00  0.00    -0.045 NA
ATOM     12  N   UNL     1      -1.840  -0.966   2.039  0.00  0.00    -0.154 N 
ATOM     13  N   UNL     1      -3.052  -1.389   2.160  0.00  0.00    -0.130 NA
BRANCH   9  18
ATOM     14  C   UNL     1      -7.869  -4.470   5.519  0.00  0.00    +0.044 C 
ATOM     15  C   UNL     1      -6.636  -3.820   4.946  0.00  0.00    -0.050 A 
ATOM     16  C   UNL     1      -5.461  -3.809   5.676  0.00  0.00    +0.004 A 
ATOM     17  C   UNL     1      -4.329  -3.216   5.156  0.00  0.00    +0.012 A 
ATOM     18  C   UNL     1      -4.371  -2.626   3.894  0.00  0.00    +0.023 A 
ATOM     19  C   UNL     1      -5.558  -2.635   3.166  0.00  0.00    +0.012 A 
ATOM     20  C   UNL     1      -6.684  -3.236   3.693  0.00  0.00    +0.004 A 
ENDBRANCH   9  18
ENDBRANCH   8  12
ENDBRANCH   1   8
BRANCH   3  21
ATOM     21  C   UNL     1       0.350  -1.752  -2.224  0.00  0.00    +0.193 C 
BRANCH  21  22
ATOM     22  C   UNL     1      -0.856  -2.306  -2.939  0.00  0.00    -0.018 A 
ATOM     23  C   UNL     1      -2.111  -2.181  -2.373  0.00  0.00    +0.009 A 
ATOM     24  C   UNL     1      -3.219  -2.683  -3.028  0.00  0.00    +0.046 A 
ATOM     25  C   UNL     1      -3.069  -3.323  -4.250  0.00  0.00    +0.117 A 
ATOM     26  C   UNL     1      -1.808  -3.452  -4.813  0.00  0.00    +0.046 A 
ATOM     27  C   UNL     1      -0.704  -2.943  -4.157  0.00  0.00    +0.009 A 
BRANCH  25  28
ATOM     28  O   UNL     1      -4.156  -3.823  -4.894  0.00  0.00    -0.507 OA
ATOM     29  H   UNL     1      -4.363  -4.739  -4.663  0.00  0.00    +0.292 HD
ENDBRANCH  25  28
ENDBRANCH  21  22
BRANCH  21  30
ATOM     30  C   UNL     1       1.109  -2.879  -1.573  0.00  0.00    +0.238 C 
ATOM     31  O   UNL     1       1.364  -2.833  -0.388  0.00  0.00    -0.273 OA
ATOM     32  N   UNL     1       1.506  -3.937  -2.307  0.00  0.00    -0.311 N 
ATOM     33  H   UNL     1       1.302  -3.974  -3.254  0.00  0.00    +0.149 HD
BRANCH  32  34
ATOM     34  C   UNL     1       2.244  -5.033  -1.673  0.00  0.00    +0.073 C 
ATOM     35  C   UNL     1       3.734  -4.688  -1.635  0.00  0.00    +0.022 C 
ATOM     36  C   UNL     1       4.505  -5.832  -0.973  0.00  0.00    +0.002 C 
ATOM     37  C   UNL     1       4.299  -7.118  -1.777  0.00  0.00    +0.000 C 
ATOM     38  C   UNL     1       2.809  -7.462  -1.815  0.00  0.00    +0.002 C 
ATOM     39  C   UNL     1       2.038  -6.318  -2.477  0.00  0.00    +0.022 C 
ENDBRANCH  32  34
ENDBRANCH  21  30
ENDBRANCH   3  21
TORSDOF 9
