REMARK  Name = ZINC14879132
REMARK  10 active torsions:
REMARK  status: ('A' for Active; 'I' for Inactive)
REMARK    1  A    between atoms: C_1  and  N_72
REMARK    2  A    between atoms: C_2  and  C_3
REMARK    3  A    between atoms: C_2  and  N_72
REMARK    4  A    between atoms: C_7  and  O_9
REMARK    5  A    between atoms: O_9  and  C_10
REMARK    6  A    between atoms: C_10  and  C_11
REMARK    7  A    between atoms: C_11  and  C_12
REMARK    8  A    between atoms: C_19  and  C_21
REMARK    9  A    between atoms: C_28  and  C_29
REMARK   10  A    between atoms: C_28  and  N_72
REMARK                            x       y       z     vdW  Elec       q    Type
REMARK                         _______ _______ _______ _____ _____    ______ ____
ROOT
ATOM      1  C   UNL     1      -0.803   2.475  -2.310  0.00  0.00    -0.060 A 
ATOM      2  C   UNL     1      -1.773   2.118  -1.391  0.00  0.00    +0.002 A 
ATOM      3  C   UNL     1      -1.481   1.202  -0.397  0.00  0.00    +0.004 A 
ATOM      4  C   UNL     1      -0.217   0.650  -0.313  0.00  0.00    +0.045 A 
ATOM      5  C   UNL     1       0.756   1.007  -1.234  0.00  0.00    +0.121 A 
ATOM      6  C   UNL     1       0.460   1.922  -2.234  0.00  0.00    +0.047 A 
ENDROOT
BRANCH   1   7
ATOM      7  C   UNL     1      -1.126   3.469  -3.397  0.00  0.00    -0.043 C 
BRANCH   7   9
ATOM      8  C   UNL     1      -2.927   2.119  -4.290  0.00  0.00    -0.095 C 
ATOM      9  N   UNL     1      -1.616   2.736  -4.583  0.00  0.00    +0.383 N 
ATOM     10  H   UNL     1      -0.944   1.996  -4.818  0.00  0.00    -0.081 HD
BRANCH   9  11
ATOM     11  C   UNL     1      -1.736   3.658  -5.732  0.00  0.00    -0.041 C 
BRANCH  11  12
ATOM     12  C   UNL     1      -2.021   2.852  -6.974  0.00  0.00    -0.038 A 
ATOM     13  C   UNL     1      -1.014   2.546  -7.836  0.00  0.00    +0.004 A 
ATOM     14  C   UNL     1      -1.255   1.803  -8.989  0.00  0.00    +0.001 A 
ATOM     15  C   UNL     1      -2.509   1.361  -9.286  0.00  0.00    +0.010 A 
ATOM     16  C   UNL     1      -3.572   1.658  -8.419  0.00  0.00    +0.001 A 
ATOM     17  C   UNL     1      -3.328   2.409  -7.243  0.00  0.00    +0.072 A 
ATOM     18  N   UNL     1      -4.337   2.689  -6.411  0.00  0.00    -0.255 NA
ATOM     19  C   UNL     1      -5.557   2.278  -6.657  0.00  0.00    +0.111 A 
ATOM     20  C   UNL     1      -5.864   1.531  -7.792  0.00  0.00    +0.020 A 
ATOM     21  C   UNL     1      -4.883   1.220  -8.690  0.00  0.00    +0.011 A 
ENDBRANCH  11  12
ENDBRANCH   9  11
ENDBRANCH   7   9
ENDBRANCH   1   7
BRANCH   5  22
ATOM     22  O   UNL     1       1.999   0.462  -1.158  0.00  0.00    -0.492 OA
BRANCH  22  23
ATOM     23  C   UNL     1       2.232  -0.474  -0.103  0.00  0.00    +0.231 C 
BRANCH  23  24
ATOM     24  C   UNL     1       3.675  -0.977  -0.177  0.00  0.00    +0.063 C 
BRANCH  24  25
ATOM     25  C   UNL     1       3.889  -2.072   0.869  0.00  0.00    +0.080 C 
ATOM     26  C   UNL     1       3.630  -1.503   2.268  0.00  0.00    +0.023 C 
ATOM     27  C   UNL     1       3.982  -2.560   3.317  0.00  0.00    +0.003 C 
ATOM     28  C   UNL     1       5.465  -2.922   3.206  0.00  0.00    +0.019 C 
ATOM     29  C   UNL     1       5.741  -3.507   1.818  0.00  0.00    +0.108 C 
ATOM     30  N   UNL     1       5.274  -2.555   0.801  0.00  0.00    -0.294 N 
ATOM     31  C   UNL     1       6.102  -2.133  -0.175  0.00  0.00    +0.250 C 
ATOM     32  O   UNL     1       5.734  -1.276  -0.956  0.00  0.00    -0.270 OA
BRANCH  31  33
ATOM     33  C   UNL     1       7.456  -2.711  -0.297  0.00  0.00    +0.072 A 
ATOM     34  C   UNL     1       7.661  -4.072  -0.063  0.00  0.00    +0.016 A 
ATOM     35  C   UNL     1       8.927  -4.605  -0.179  0.00  0.00    +0.001 A 
ATOM     36  C   UNL     1       9.995  -3.796  -0.528  0.00  0.00    +0.003 A 
ATOM     37  C   UNL     1       9.802  -2.448  -0.763  0.00  0.00    +0.039 A 
ATOM     38  C   UNL     1       8.537  -1.899  -0.654  0.00  0.00    +0.135 A 
ATOM     39  F   UNL     1       8.347  -0.582  -0.889  0.00  0.00    -0.205 F 
ENDBRANCH  31  33
ENDBRANCH  24  25
ENDBRANCH  23  24
ENDBRANCH  22  23
ENDBRANCH   5  22
TORSDOF 9
