REMARK  Name = ZINC13549146
REMARK  12 active torsions:
REMARK  status: ('A' for Active; 'I' for Inactive)
REMARK    1  A    between atoms: C_1  and  C_2
REMARK    2  A    between atoms: C_6  and  C_8
REMARK    3  A    between atoms: C_8  and  O_9
REMARK    4  A    between atoms: O_9  and  C_10
REMARK    5  A    between atoms: C_13  and  C_16
REMARK    6  A    between atoms: C_16  and  C_18
REMARK    7  A    between atoms: N_22  and  C_32
REMARK    8  A    between atoms: C_23  and  C_25
REMARK    9  A    between atoms: C_32  and  C_33
REMARK   10  A    between atoms: C_33  and  N_34
REMARK   11  A    between atoms: N_34  and  C_35
REMARK   12  A    between atoms: N_34  and  C_36
REMARK                            x       y       z     vdW  Elec       q    Type
REMARK                         _______ _______ _______ _____ _____    ______ ____
ROOT
ATOM      1  C   UNL     1       0.670  -0.172  -4.271  0.00  0.00    +0.076 C 
ATOM      2  C   UNL     1       1.305   1.023  -4.255  0.00  0.00    +0.249 C 
ATOM      3  C   UNL     1       0.782   1.837  -3.138  0.00  0.00    +0.288 C 
ATOM      4  O   UNL     1       1.149   2.962  -2.863  0.00  0.00    -0.266 OA
ATOM      5  N   UNL     1      -0.158   1.146  -2.468  0.00  0.00    -0.285 N 
ATOM      6  C   UNL     1      -0.308  -0.160  -3.120  0.00  0.00    +0.145 C 
ATOM      7  O   UNL     1       2.263   1.413  -5.128  0.00  0.00    -0.282 OA
ENDROOT
BRANCH   6   8
ATOM      8  C   UNL     1       0.019  -1.265  -2.148  0.00  0.00    -0.021 A 
ATOM      9  C   UNL     1      -0.837  -2.342  -2.013  0.00  0.00    +0.006 A 
ATOM     10  C   UNL     1      -0.537  -3.356  -1.122  0.00  0.00    +0.002 A 
ATOM     11  C   UNL     1       0.618  -3.293  -0.366  0.00  0.00    +0.020 A 
ATOM     12  C   UNL     1       1.475  -2.215  -0.501  0.00  0.00    +0.041 A 
ATOM     13  C   UNL     1       1.177  -1.203  -1.397  0.00  0.00    +0.025 A 
ATOM     14 CL   UNL     1       2.926  -2.135   0.448  0.00  0.00    -0.084 Cl
ENDBRANCH   6   8
BRANCH   1  15
ATOM     15  C   UNL     1       0.890  -1.267  -5.221  0.00  0.00    +0.195 C 
ATOM     16  O   UNL     1       1.956  -1.854  -5.237  0.00  0.00    -0.287 OA
BRANCH  15  20
ATOM     17  C   UNL     1      -2.193  -2.392  -7.916  0.00  0.00    +0.121 A 
ATOM     18  C   UNL     1      -1.020  -3.135  -7.856  0.00  0.00    +0.046 A 
ATOM     19  C   UNL     1      -0.018  -2.774  -6.983  0.00  0.00    +0.015 A 
ATOM     20  C   UNL     1      -0.181  -1.658  -6.158  0.00  0.00    +0.022 A 
ATOM     21  C   UNL     1      -1.365  -0.916  -6.218  0.00  0.00    +0.015 A 
ATOM     22  C   UNL     1      -2.360  -1.281  -7.096  0.00  0.00    +0.046 A 
BRANCH  17  23
ATOM     23  O   UNL     1      -3.179  -2.752  -8.776  0.00  0.00    -0.487 OA
BRANCH  23  24
ATOM     24  C   UNL     1      -4.358  -1.944  -8.787  0.00  0.00    +0.264 C 
BRANCH  24  30
ATOM     25  C   UNL     1      -6.152  -2.063 -13.457  0.00  0.00    +0.044 C 
ATOM     26  C   UNL     1      -6.191  -2.549 -12.031  0.00  0.00    -0.050 A 
ATOM     27  C   UNL     1      -7.122  -3.497 -11.649  0.00  0.00    +0.003 A 
ATOM     28  C   UNL     1      -7.159  -3.942 -10.341  0.00  0.00    +0.001 A 
ATOM     29  C   UNL     1      -6.264  -3.439  -9.415  0.00  0.00    +0.007 A 
ATOM     30  C   UNL     1      -5.333  -2.492  -9.797  0.00  0.00    -0.010 A 
ATOM     31  C   UNL     1      -5.300  -2.043 -11.104  0.00  0.00    +0.010 A 
ENDBRANCH  24  30
ENDBRANCH  23  24
ENDBRANCH  17  23
ENDBRANCH  15  20
ENDBRANCH   1  15
BRANCH   5  32
ATOM     32  C   UNL     1      -0.904   1.617  -1.298  0.00  0.00    +0.090 C 
BRANCH  32  33
ATOM     33  C   UNL     1      -0.151   1.231  -0.024  0.00  0.00    -0.060 C 
BRANCH  33  34
ATOM     34  N   UNL     1      -0.899   1.704   1.149  0.00  0.00    +0.377 N 
ATOM     35  C   UNL     1      -0.337   1.152   2.389  0.00  0.00    -0.097 C 
ATOM     36  C   UNL     1      -0.935   3.171   1.195  0.00  0.00    -0.097 C 
ATOM     37  H   UNL     1      -1.934   1.343   1.057  0.00  0.00    -0.083 HD
ENDBRANCH  33  34
ENDBRANCH  32  33
ENDBRANCH   5  32
TORSDOF 9
