REMARK  Name = ZINC03846902
REMARK  12 active torsions:
REMARK  status: ('A' for Active; 'I' for Inactive)
REMARK    1  A    between atoms: C_1  and  N_2
REMARK    2  A    between atoms: N_2  and  C_3
REMARK    3  A    between atoms: N_2  and  C_4
REMARK    4  A    between atoms: N_2  and  C_5
REMARK    5  A    between atoms: C_9  and  N_11
REMARK    6  A    between atoms: N_12  and  C_13
REMARK    7  A    between atoms: C_16  and  N_23
REMARK    8  A    between atoms: N_24  and  C_25
REMARK    9  A    between atoms: C_27  and  N_33
REMARK   10  A    between atoms: C_28  and  N_32
REMARK   11  A    between atoms: C_30  and  N_31
REMARK   12  A    between atoms: N_34  and  C_35
REMARK                            x       y       z     vdW  Elec       q    Type
REMARK                         _______ _______ _______ _____ _____    ______ ____
ROOT
ATOM      1  C   UNL     1       6.053  -6.235  -0.087  0.00  0.00    +0.094 A 
ATOM      2  C   UNL     1       4.822  -6.885  -0.079  0.00  0.00    +0.032 A 
ATOM      3  C   UNL     1       3.636  -6.179  -0.065  0.00  0.00    +0.032 A 
ATOM      4  C   UNL     1       3.619  -4.788  -0.057  0.00  0.00    +0.094 A 
ATOM      5  C   UNL     1       4.882  -4.050  -0.070  0.00  0.00    +0.011 A 
ATOM      6  C   UNL     1       6.098  -4.773  -0.080  0.00  0.00    +0.011 A 
ATOM      7  C   UNL     1       7.313  -4.078  -0.087  0.00  0.00    +0.011 A 
ATOM      8  C   UNL     1       7.309  -2.714  -0.080  0.00  0.00    +0.001 A 
ATOM      9  C   UNL     1       6.112  -2.003  -0.065  0.00  0.00    +0.001 A 
ATOM     10  C   UNL     1       4.912  -2.651  -0.057  0.00  0.00    +0.011 A 
ENDROOT
BRANCH   1  12
ATOM     11  N   UNL     1       7.163  -8.244  -0.108  0.00  0.00    -0.149 NA
ATOM     12  N   UNL     1       7.207  -6.955  -0.102  0.00  0.00    -0.149 NA
BRANCH  11  17
ATOM     13  C   UNL     1       9.451 -11.087  -0.144  0.00  0.00    +0.017 A 
ATOM     14  C   UNL     1      10.671 -10.432  -0.152  0.00  0.00    +0.022 A 
ATOM     15  C   UNL     1      10.723  -9.049  -0.145  0.00  0.00    +0.004 A 
ATOM     16  C   UNL     1       9.557  -8.312  -0.136  0.00  0.00    +0.029 A 
ATOM     17  C   UNL     1       8.321  -8.966  -0.122  0.00  0.00    +0.088 A 
ATOM     18  C   UNL     1       8.277 -10.364  -0.129  0.00  0.00    +0.051 A 
BRANCH  13  20
ATOM     19  C   UNL     1       8.692 -12.947  -1.345  0.00  0.00    +0.109 C 
ATOM     20  N   UNL     1       9.410 -12.484  -0.150  0.00  0.00    -0.390 NA
ATOM     21  C   UNL     1      10.780 -13.015  -0.166  0.00  0.00    +0.109 C 
ATOM     22  C   UNL     1       8.714 -12.959   1.053  0.00  0.00    +0.109 C 
ENDBRANCH  13  20
ENDBRANCH  11  17
ENDBRANCH   1  12
BRANCH   4  23
ATOM     23  N   UNL     1       2.436  -4.118  -0.042  0.00  0.00    -0.149 NA
ATOM     24  N   UNL     1       1.324  -4.772  -0.036  0.00  0.00    -0.147 NA
BRANCH  24  25
ATOM     25  C   UNL     1       0.141  -4.102  -0.021  0.00  0.00    +0.109 A 
ATOM     26  C   UNL     1       0.128  -2.707  -0.014  0.00  0.00    +0.062 A 
ATOM     27  C   UNL     1      -1.088  -2.026   0.002  0.00  0.00    +0.109 A 
ATOM     28  C   UNL     1      -2.299  -2.749   0.015  0.00  0.00    +0.054 A 
ATOM     29  C   UNL     1      -2.282  -4.135   0.002  0.00  0.00    +0.049 A 
ATOM     30  C   UNL     1      -1.076  -4.817  -0.014  0.00  0.00    +0.054 A 
BRANCH  30  31
ATOM     31  N   UNL     1      -1.064  -6.204  -0.021  0.00  0.00    -0.356 N 
ATOM     32  H   UNL     1      -0.221  -6.682  -0.031  0.00  0.00    +0.142 HD
ATOM     33  H   UNL     1      -1.900  -6.696  -0.015  0.00  0.00    +0.142 HD
ENDBRANCH  30  31
BRANCH  28  34
ATOM     34  N   UNL     1      -3.509  -2.071   0.036  0.00  0.00    -0.356 N 
ATOM     35  H   UNL     1      -3.522  -1.101   0.042  0.00  0.00    +0.142 HD
ATOM     36  H   UNL     1      -4.343  -2.568   0.046  0.00  0.00    +0.142 HD
ENDBRANCH  28  34
BRANCH  27  37
ATOM     37  N   UNL     1      -1.106  -0.664   0.009  0.00  0.00    -0.147 NA
ATOM     38  N   UNL     1       0.002  -0.004   0.002  0.00  0.00    -0.149 NA
BRANCH  38  39
ATOM     39  C   UNL     1      -0.017   1.363   0.009  0.00  0.00    +0.086 A 
ATOM     40  C   UNL     1      -1.234   2.049   0.019  0.00  0.00    +0.029 A 
ATOM     41  C   UNL     1      -1.245   3.428   0.032  0.00  0.00    +0.002 A 
ATOM     42  C   UNL     1      -0.054   4.133   0.025  0.00  0.00    +0.000 A 
ATOM     43  C   UNL     1       1.156   3.460   0.010  0.00  0.00    +0.002 A 
ATOM     44  C   UNL     1       1.182   2.082   0.002  0.00  0.00    +0.029 A 
ENDBRANCH  38  39
ENDBRANCH  27  37
ENDBRANCH  24  25
ENDBRANCH   4  23
TORSDOF 9
