REMARK  Name = ZINC13139064
REMARK  10 active torsions:
REMARK  status: ('A' for Active; 'I' for Inactive)
REMARK    1  A    between atoms: C_1  and  C_2
REMARK    2  A    between atoms: C_2  and  C_3
REMARK    3  A    between atoms: C_4  and  C_37
REMARK    4  A    between atoms: C_5  and  C_13
REMARK    5  A    between atoms: C_13  and  O_15
REMARK    6  A    between atoms: O_15  and  C_16
REMARK    7  A    between atoms: C_16  and  C_17
REMARK    8  A    between atoms: N_19  and  C_20
REMARK    9  A    between atoms: C_24  and  S_26
REMARK   10  A    between atoms: S_26  and  N_29
REMARK                            x       y       z     vdW  Elec       q    Type
REMARK                         _______ _______ _______ _____ _____    ______ ____
ROOT
ATOM      1  C   UNL     1      -1.900  -4.214  -6.345  0.00  0.00    +0.255 C 
ATOM      2  O   UNL     1      -1.665  -5.002  -5.454  0.00  0.00    -0.272 OA
ATOM      3  N   UNL     1      -2.611  -4.606  -7.421  0.00  0.00    -0.283 N 
ATOM      4  H   UNL     1      -2.857  -3.960  -8.101  0.00  0.00    +0.155 HD
ENDROOT
BRANCH   3   5
ATOM      5  C   UNL     1      -2.995  -5.945  -7.556  0.00  0.00    +0.035 A 
ATOM      6  C   UNL     1      -3.037  -6.533  -8.813  0.00  0.00    +0.023 A 
ATOM      7  C   UNL     1      -3.416  -7.855  -8.944  0.00  0.00    +0.004 A 
ATOM      8  C   UNL     1      -3.753  -8.592  -7.823  0.00  0.00    +0.029 A 
ATOM      9  C   UNL     1      -3.713  -8.009  -6.570  0.00  0.00    +0.114 A 
ATOM     10  C   UNL     1      -3.329  -6.690  -6.433  0.00  0.00    +0.052 A 
BRANCH   9  11
ATOM     11  S   UNL     1      -4.146  -8.953  -5.146  0.00  0.00    +0.100 S 
ATOM     12  O   UNL     1      -4.552  -8.024  -4.151  0.00  0.00    -0.146 OA
ATOM     13  O   UNL     1      -4.988 -10.005  -5.597  0.00  0.00    -0.146 OA
BRANCH  11  14
ATOM     14  N   UNL     1      -2.757  -9.664  -4.590  0.00  0.00    -0.118 NA
ATOM     15  C   UNL     1      -2.793 -10.421  -3.542  0.00  0.00    +0.117 C 
ATOM     16  N   UNL     1      -3.997 -10.661  -2.861  0.00  0.00    -0.331 N 
ATOM     17  C   UNL     1      -4.531 -11.990  -2.924  0.00  0.00    +0.102 C 
ATOM     18  C   UNL     1      -4.042 -12.960  -1.835  0.00  0.00    +0.019 C 
ATOM     19  C   UNL     1      -2.523 -12.781  -1.592  0.00  0.00    +0.002 C 
ATOM     20  C   UNL     1      -1.746 -12.569  -2.862  0.00  0.00    +0.008 C 
ATOM     21  C   UNL     1      -1.595 -11.055  -3.035  0.00  0.00    +0.073 C 
ATOM     22  H   UNL     1      -4.447  -9.957  -2.369  0.00  0.00    +0.147 HD
ENDBRANCH  11  14
ENDBRANCH   9  11
ENDBRANCH   3   5
BRANCH   1  23
ATOM     23  C   UNL     1      -1.398  -2.797  -6.250  0.00  0.00    +0.328 C 
BRANCH  23  24
ATOM     24  O   UNL     1      -0.678  -2.628  -5.027  0.00  0.00    -0.452 OA
BRANCH  24  25
ATOM     25  C   UNL     1      -0.159  -1.408  -4.786  0.00  0.00    +0.341 C 
ATOM     26  O   UNL     1      -0.314  -0.512  -5.592  0.00  0.00    -0.245 OA
BRANCH  25  29
ATOM     27  C   UNL     1       0.706  -0.496  -1.233  0.00  0.00    +0.045 A 
ATOM     28  C   UNL     1      -0.039  -0.720  -2.389  0.00  0.00    -0.015 A 
ATOM     29  C   UNL     1       0.599  -1.160  -3.542  0.00  0.00    +0.073 A 
ATOM     30  C   UNL     1       2.001  -1.363  -3.484  0.00  0.00    +0.015 A 
ATOM     31  C   UNL     1       2.720  -1.805  -4.602  0.00  0.00    +0.011 A 
ATOM     32  C   UNL     1       4.067  -1.989  -4.507  0.00  0.00    +0.001 A 
ATOM     33  C   UNL     1       4.739  -1.742  -3.312  0.00  0.00    +0.002 A 
ATOM     34  C   UNL     1       4.072  -1.312  -2.207  0.00  0.00    +0.028 A 
ATOM     35  C   UNL     1       2.680  -1.111  -2.267  0.00  0.00    +0.072 A 
ATOM     36  N   UNL     1       2.002  -0.684  -1.198  0.00  0.00    -0.251 NA
ATOM     37  C   UNL     1      -1.528  -0.486  -2.388  0.00  0.00    +0.046 C 
BRANCH  27  39
ATOM     38  C   UNL     1      -0.027   1.511   0.025  0.00  0.00    +0.010 C 
ATOM     39  C   UNL     1       0.002  -0.019   0.011  0.00  0.00    +0.052 C 
ENDBRANCH  27  39
ENDBRANCH  25  29
ENDBRANCH  24  25
ENDBRANCH  23  24
ENDBRANCH   1  23
TORSDOF 8
