REMARK  Name = ZINC33494872
REMARK  8 active torsions:
REMARK  status: ('A' for Active; 'I' for Inactive)
REMARK    1  A    between atoms: C_1  and  C_2
REMARK    2  A    between atoms: C_2  and  C_3
REMARK    3  A    between atoms: C_3  and  C_4
REMARK    4  A    between atoms: C_4  and  N_5
REMARK    5  A    between atoms: N_5  and  C_6
REMARK    6  A    between atoms: C_7  and  C_14
REMARK    7  A    between atoms: C_9  and  C_13
REMARK    8  A    between atoms: N_16  and  N_17
REMARK                            x       y       z     vdW  Elec       q    Type
REMARK                         _______ _______ _______ _____ _____    ______ ____
ROOT
ATOM      1  C   UNL     1      -1.340  -1.898   0.104  0.00  0.00    +0.054 A 
ATOM      2  C   UNL     1      -1.876  -2.688  -0.925  0.00  0.00    +0.060 A 
ATOM      3  C   UNL     1      -1.818  -4.080  -0.828  0.00  0.00    +0.018 A 
ATOM      4  C   UNL     1      -1.248  -4.669   0.279  0.00  0.00    -0.049 A 
ATOM      5  C   UNL     1      -0.725  -3.888   1.297  0.00  0.00    +0.020 A 
ATOM      6  C   UNL     1      -0.769  -2.511   1.213  0.00  0.00    +0.040 A 
ATOM      7 BR   UNL     1      -0.050  -1.456   2.609  0.00  0.00    -0.048 Br
ATOM      8  C   UNL     1      -1.192  -6.172   0.384  0.00  0.00    +0.044 C 
ENDROOT
BRANCH   2   9
ATOM      9  C   UNL     1      -2.491  -2.051  -2.104  0.00  0.00    +0.259 C 
ATOM     10  O   UNL     1      -2.450  -0.843  -2.234  0.00  0.00    -0.269 OA
ATOM     11  N   UNL     1      -3.098  -2.809  -3.039  0.00  0.00    -0.250 N 
ATOM     12  H   UNL     1      -3.135  -3.902  -2.922  0.00  0.00    +0.169 HD
BRANCH  11  13
ATOM     13  N   UNL     1      -3.667  -2.219  -4.132  0.00  0.00    -0.254 NA
ATOM     14  H   UNL     1      -4.110  -2.992  -4.777  0.00  0.00    +0.140 HD
ATOM     15  H   UNL     1      -4.452  -1.521  -3.805  0.00  0.00    +0.140 HD
ENDBRANCH  11  13
ENDBRANCH   2   9
BRANCH   1  16
ATOM     16  N   UNL     1      -1.386  -0.512   0.018  0.00  0.00    -0.342 N 
ATOM     17  H   UNL     1      -0.687   0.173  -0.483  0.00  0.00    +0.146 HD
BRANCH  16  18
ATOM     18  C   UNL     1      -2.561   0.020   0.719  0.00  0.00    +0.101 C 
BRANCH  18  19
ATOM     19  C   UNL     1      -2.512   1.550   0.708  0.00  0.00    +0.018 C 
BRANCH  19  21
ATOM     20  C   UNL     1      -3.688   3.634   1.427  0.00  0.00    +0.004 C 
ATOM     21  C   UNL     1      -3.736   2.104   1.439  0.00  0.00    -0.002 C 
ENDBRANCH  19  21
ENDBRANCH  18  19
ENDBRANCH  16  18
ENDBRANCH   1  16
TORSDOF 6
