REMARK  Name = ZINC13495824
REMARK  12 active torsions:
REMARK  status: ('A' for Active; 'I' for Inactive)
REMARK    1  A    between atoms: C_1  and  C_2
REMARK    2  A    between atoms: C_2  and  C_3
REMARK    3  A    between atoms: C_3  and  C_5
REMARK    4  A    between atoms: C_3  and  N_69
REMARK    5  A    between atoms: N_9  and  C_10
REMARK    6  A    between atoms: C_10  and  C_11
REMARK    7  A    between atoms: C_17  and  C_18
REMARK    8  A    between atoms: C_17  and  N_69
REMARK    9  A    between atoms: C_18  and  C_19
REMARK   10  A    between atoms: C_25  and  C_26
REMARK   11  A    between atoms: C_25  and  N_69
REMARK   12  A    between atoms: C_30  and  C_38
REMARK                            x       y       z     vdW  Elec       q    Type
REMARK                         _______ _______ _______ _____ _____    ______ ____
ROOT
ATOM      1  N   UNL     1       1.046   7.033  -2.865  0.00  0.00    +0.389 N 
ATOM      2  H   UNL     1       1.494   7.582  -3.608  0.00  0.00    -0.080 HD
ENDROOT
BRANCH   1   3
ATOM      3  C   UNL     1       2.095   6.408  -2.031  0.00  0.00    +0.003 C 
BRANCH   3   4
ATOM      4  C   UNL     1       1.491   5.386  -1.102  0.00  0.00    +0.138 A 
ATOM      5  N   UNL     1       0.598   4.479  -1.411  0.00  0.00    -0.115 NA
ATOM      6  N   UNL     1       0.337   3.799  -0.348  0.00  0.00    -0.023 NA
ATOM      7  N   UNL     1       1.045   4.245   0.630  0.00  0.00    -0.044 NA
ATOM      8  N   UNL     1       1.766   5.228   0.206  0.00  0.00    -0.226 N 
BRANCH   8   9
ATOM      9  C   UNL     1       2.710   6.020   0.999  0.00  0.00    +0.182 C 
BRANCH   9  10
ATOM     10  C   UNL     1       1.994   7.203   1.599  0.00  0.00    -0.026 A 
ATOM     11  C   UNL     1       1.400   7.093   2.842  0.00  0.00    +0.005 A 
ATOM     12  C   UNL     1       0.744   8.178   3.392  0.00  0.00    +0.000 A 
ATOM     13  C   UNL     1       0.677   9.371   2.697  0.00  0.00    +0.000 A 
ATOM     14  C   UNL     1       1.276   9.482   1.456  0.00  0.00    +0.000 A 
ATOM     15  C   UNL     1       1.933   8.397   0.906  0.00  0.00    +0.005 A 
ENDBRANCH   9  10
ENDBRANCH   8   9
ENDBRANCH   3   4
BRANCH   3  17
ATOM     16  C   UNL     1       3.790   6.776  -3.830  0.00  0.00    +0.002 C 
ATOM     17  C   UNL     1       3.111   5.725  -2.948  0.00  0.00    -0.011 C 
ENDBRANCH   3  17
ENDBRANCH   1   3
BRANCH   1  18
ATOM     18  C   UNL     1       0.202   5.989  -3.482  0.00  0.00    -0.073 C 
BRANCH  18  19
ATOM     19  C   UNL     1      -0.393   6.544  -4.777  0.00  0.00    +0.016 C 
BRANCH  19  20
ATOM     20  C   UNL     1      -1.194   5.468  -5.464  0.00  0.00    -0.049 A 
ATOM     21  C   UNL     1      -0.584   4.633  -6.381  0.00  0.00    +0.003 A 
ATOM     22  C   UNL     1      -1.317   3.642  -7.008  0.00  0.00    +0.000 A 
ATOM     23  C   UNL     1      -2.662   3.494  -6.726  0.00  0.00    +0.000 A 
ATOM     24  C   UNL     1      -3.273   4.333  -5.813  0.00  0.00    +0.000 A 
ATOM     25  C   UNL     1      -2.539   5.320  -5.182  0.00  0.00    +0.003 A 
ENDBRANCH  19  20
ENDBRANCH  18  19
ENDBRANCH   1  18
BRANCH   1  26
ATOM     26  C   UNL     1       0.214   7.933  -2.039  0.00  0.00    -0.037 C 
BRANCH  26  27
ATOM     27  C   UNL     1      -0.579   8.832  -2.952  0.00  0.00    +0.001 A 
ATOM     28  C   UNL     1      -1.913   8.638  -3.099  0.00  0.00    +0.017 A 
ATOM     29  C   UNL     1      -2.656   9.531  -3.990  0.00  0.00    -0.001 A 
ATOM     30  C   UNL     1      -4.034   9.383  -4.179  0.00  0.00    +0.013 A 
ATOM     31  C   UNL     1      -4.697  10.229  -5.022  0.00  0.00    -0.050 A 
ATOM     32  C   UNL     1      -4.015  11.235  -5.693  0.00  0.00    +0.005 A 
ATOM     33  C   UNL     1      -2.658  11.400  -5.521  0.00  0.00    +0.026 A 
ATOM     34  C   UNL     1      -1.961  10.550  -4.668  0.00  0.00    +0.049 A 
ATOM     35  N   UNL     1      -0.603  10.691  -4.479  0.00  0.00    -0.322 N 
ATOM     36  H   UNL     1      -0.126  11.394  -4.947  0.00  0.00    +0.169 HD
ATOM     37  C   UNL     1       0.070   9.869  -3.655  0.00  0.00    +0.251 A 
ATOM     38  O   UNL     1       1.270  10.023  -3.512  0.00  0.00    -0.268 OA
ATOM     39  C   UNL     1      -6.181  10.069  -5.225  0.00  0.00    +0.044 C 
ENDBRANCH  26  27
ENDBRANCH   1  26
TORSDOF 10
