REMARK  Name = ZINC34926414
REMARK  5 active torsions:
REMARK  status: ('A' for Active; 'I' for Inactive)
REMARK    1  A    between atoms: C_1  and  C_2
REMARK    2  A    between atoms: C_2  and  C_21
REMARK    3  A    between atoms: C_3  and  C_10
REMARK    4  A    between atoms: C_5  and  C_7
REMARK    5  A    between atoms: C_15  and  C_18
REMARK                            x       y       z     vdW  Elec       q    Type
REMARK                         _______ _______ _______ _____ _____    ______ ____
ROOT
ATOM      1  C   UNL     1       0.377  -2.211  -1.310  0.00  0.00    +0.220 C 
ATOM      2  O   UNL     1      -0.611  -2.663  -0.769  0.00  0.00    -0.275 OA
ATOM      3  N   UNL     1       1.067  -2.964  -2.189  0.00  0.00    -0.301 N 
ATOM      4  C   UNL     1       2.268  -2.434  -2.848  0.00  0.00    +0.108 C 
ATOM      5  C   UNL     1       2.108  -2.585  -4.363  0.00  0.00    +0.032 C 
ATOM      6  C   UNL     1       1.803  -4.048  -4.696  0.00  0.00    +0.078 C 
ATOM      7  C   UNL     1       0.490  -4.461  -4.028  0.00  0.00    +0.032 C 
ATOM      8  C   UNL     1       0.635  -4.333  -2.504  0.00  0.00    +0.108 C 
ENDROOT
BRANCH   1  11
ATOM      9  C   UNL     1      -0.126   1.500  -0.227  0.00  0.00    +0.012 C 
ATOM     10  C   UNL     1       0.006  -0.006   0.009  0.00  0.00    -0.009 C 
ATOM     11  C   UNL     1       0.832  -0.809  -0.998  0.00  0.00    +0.096 C 
ATOM     12  C   UNL     1       1.385  -0.541   0.404  0.00  0.00    +0.121 C 
ATOM     13  C   UNL     1      -1.218  -0.687   0.623  0.00  0.00    +0.012 C 
BRANCH  12  14
ATOM     14  C   UNL     1       1.432  -1.699   1.367  0.00  0.00    +0.360 C 
ATOM     15  O   UNL     1       2.034  -2.716   1.068  0.00  0.00    -0.246 OA
ATOM     16  O   UNL     1       0.868  -1.619   2.445  0.00  0.00    -0.246 OA
ENDBRANCH  12  14
ENDBRANCH   1  11
BRANCH   6  17
ATOM     17  C   UNL     1       1.678  -4.207  -6.189  0.00  0.00    +0.214 C 
ATOM     18  O   UNL     1       1.819  -3.246  -6.916  0.00  0.00    -0.276 OA
ATOM     19  N   UNL     1       1.410  -5.418  -6.718  0.00  0.00    -0.329 N 
ATOM     20  H   UNL     1       1.297  -6.186  -6.137  0.00  0.00    +0.145 HD
ATOM     21  H   UNL     1       1.329  -5.520  -7.679  0.00  0.00    +0.145 HD
ENDBRANCH   6  17
TORSDOF 3
