REMARK  Name = ZINC40725820
REMARK  8 active torsions:
REMARK  status: ('A' for Active; 'I' for Inactive)
REMARK    1  A    between atoms: C_1  and  C_2
REMARK    2  A    between atoms: C_5  and  N_9
REMARK    3  A    between atoms: C_6  and  C_8
REMARK    4  A    between atoms: C_11  and  N_25
REMARK    5  A    between atoms: C_12  and  N_16
REMARK    6  A    between atoms: N_16  and  C_17
REMARK    7  A    between atoms: C_17  and  C_18
REMARK    8  A    between atoms: C_18  and  C_19
REMARK                            x       y       z     vdW  Elec       q    Type
REMARK                         _______ _______ _______ _____ _____    ______ ____
ROOT
ATOM      1  N   UNL     1       0.057  -4.168  -0.021  0.00  0.00    -0.298 N 
ATOM      2  C   UNL     1      -0.045  -4.858  -1.224  0.00  0.00    +0.149 A 
ATOM      3  C   UNL     1      -0.139  -6.251  -1.236  0.00  0.00    +0.105 A 
ATOM      4  C   UNL     1      -0.240  -6.894  -2.471  0.00  0.00    +0.145 A 
ATOM      5  N   UNL     1      -0.243  -6.160  -3.582  0.00  0.00    -0.219 NA
ATOM      6  C   UNL     1      -0.152  -4.847  -3.526  0.00  0.00    +0.225 A 
ATOM      7  N   UNL     1      -0.061  -4.201  -2.381  0.00  0.00    -0.219 NA
ATOM      8  H   UNL     1      -0.030  -4.644   0.820  0.00  0.00    +0.154 HD
ENDROOT
BRANCH   1  13
ATOM      9  C   UNL     1       0.984   1.427  -0.032  0.00  0.00    +0.044 C 
ATOM     10  C   UNL     1       0.738  -0.060  -0.029  0.00  0.00    -0.050 A 
ATOM     11  C   UNL     1       1.170  -0.833  -1.092  0.00  0.00    +0.005 A 
ATOM     12  C   UNL     1       0.945  -2.195  -1.092  0.00  0.00    +0.024 A 
ATOM     13  C   UNL     1       0.286  -2.790  -0.023  0.00  0.00    +0.035 A 
ATOM     14  C   UNL     1      -0.145  -2.010   1.042  0.00  0.00    -0.029 A 
ATOM     15  C   UNL     1       0.087  -0.649   1.039  0.00  0.00    +0.008 A 
ATOM     16  C   UNL     1      -0.861  -2.651   2.204  0.00  0.00    +0.045 C 
ENDBRANCH   1  13
BRANCH   3  17
ATOM     17  N   UNL     1      -0.131  -6.985  -0.039  0.00  0.00    -0.353 N 
ATOM     18  H   UNL     1      -0.060  -6.525   0.811  0.00  0.00    +0.143 HD
ATOM     19  H   UNL     1      -0.197  -7.953  -0.064  0.00  0.00    +0.143 HD
ENDBRANCH   3  17
BRANCH   4  20
ATOM     20  N   UNL     1      -0.335  -8.279  -2.541  0.00  0.00    -0.327 N 
ATOM     21  H   UNL     1      -0.332  -8.806  -1.727  0.00  0.00    +0.148 HD
BRANCH  20  22
ATOM     22  C   UNL     1      -0.441  -8.941  -3.843  0.00  0.00    +0.107 C 
BRANCH  22  23
ATOM     23  C   UNL     1      -0.531 -10.455  -3.639  0.00  0.00    +0.054 C 
BRANCH  23  24
ATOM     24  C   UNL     1      -0.640 -11.137  -4.978  0.00  0.00    -0.046 A 
ATOM     25  C   UNL     1      -1.883 -11.365  -5.539  0.00  0.00    +0.004 A 
ATOM     26  C   UNL     1      -1.982 -11.991  -6.768  0.00  0.00    +0.000 A 
ATOM     27  C   UNL     1      -0.839 -12.387  -7.436  0.00  0.00    +0.000 A 
ATOM     28  C   UNL     1       0.404 -12.158  -6.876  0.00  0.00    +0.000 A 
ATOM     29  C   UNL     1       0.503 -11.529  -5.649  0.00  0.00    +0.004 A 
ENDBRANCH  23  24
ENDBRANCH  22  23
ENDBRANCH  20  22
ENDBRANCH   4  20
TORSDOF 6
