REMARK  Name = ZINC59020934
REMARK  10 active torsions:
REMARK  status: ('A' for Active; 'I' for Inactive)
REMARK    1  A    between atoms: C_1  and  C_2
REMARK    2  A    between atoms: C_3  and  C_23
REMARK    3  A    between atoms: C_4  and  C_22
REMARK    4  A    between atoms: C_5  and  S_10
REMARK    5  A    between atoms: C_6  and  C_9
REMARK    6  A    between atoms: C_7  and  C_8
REMARK    7  A    between atoms: S_10  and  N_13
REMARK    8  A    between atoms: N_13  and  C_14
REMARK    9  A    between atoms: C_19  and  O_20
REMARK   10  A    between atoms: O_20  and  C_21
REMARK                            x       y       z     vdW  Elec       q    Type
REMARK                         _______ _______ _______ _____ _____    ______ ____
ROOT
ATOM      1  S   UNL     1       0.768  -4.647   0.435  0.00  0.00    +0.073 S 
ATOM      2  O   UNL     1       0.682  -5.171   1.754  0.00  0.00    -0.150 OA
ATOM      3  O   UNL     1       0.056  -5.212  -0.657  0.00  0.00    -0.150 OA
ENDROOT
BRANCH   1   8
ATOM      4  C   UNL     1      -0.902   1.142   0.770  0.00  0.00    +0.044 C 
ATOM      5  C   UNL     1      -0.485  -0.304   0.687  0.00  0.00    -0.044 A 
ATOM      6  C   UNL     1      -0.116  -0.848  -0.529  0.00  0.00    -0.043 A 
ATOM      7  C   UNL     1       0.266  -2.174  -0.606  0.00  0.00    -0.020 A 
ATOM      8  C   UNL     1       0.281  -2.956   0.533  0.00  0.00    +0.115 A 
ATOM      9  C   UNL     1      -0.086  -2.412   1.750  0.00  0.00    -0.020 A 
ATOM     10  C   UNL     1      -0.465  -1.085   1.827  0.00  0.00    -0.043 A 
ATOM     11  C   UNL     1      -0.861  -0.490   3.155  0.00  0.00    +0.044 C 
ATOM     12  C   UNL     1      -0.071  -3.265   2.992  0.00  0.00    +0.046 C 
ATOM     13  C   UNL     1       0.667  -2.767  -1.932  0.00  0.00    +0.046 C 
ATOM     14  C   UNL     1      -0.133   0.005  -1.772  0.00  0.00    +0.044 C 
ENDBRANCH   1   8
BRANCH   1  15
ATOM     15  N   UNL     1       2.371  -4.671   0.020  0.00  0.00    -0.211 N 
ATOM     16  H   UNL     1       2.652  -5.100  -0.804  0.00  0.00    +0.174 HD
BRANCH  15  17
ATOM     17  C   UNL     1       3.320  -4.073   0.856  0.00  0.00    +0.109 A 
ATOM     18  C   UNL     1       3.106  -3.999   2.227  0.00  0.00    +0.031 A 
ATOM     19  C   UNL     1       4.076  -3.397   3.016  0.00  0.00    +0.022 A 
ATOM     20  C   UNL     1       5.215  -2.893   2.421  0.00  0.00    +0.115 A 
ATOM     21  N   UNL     1       5.393  -2.977   1.115  0.00  0.00    -0.220 NA
ATOM     22  C   UNL     1       4.499  -3.546   0.327  0.00  0.00    +0.238 A 
BRANCH  22  23
ATOM     23  O   UNL     1       4.726  -3.615  -1.010  0.00  0.00    -0.478 OA
ATOM     24  C   UNL     1       5.952  -3.058  -1.489  0.00  0.00    +0.279 C 
ENDBRANCH  22  23
ENDBRANCH  15  17
ENDBRANCH   1  15
TORSDOF 4
