REMARK  Name = ZINC15057213
REMARK  9 active torsions:
REMARK  status: ('A' for Active; 'I' for Inactive)
REMARK    1  A    between atoms: C_1  and  C_2
REMARK    2  A    between atoms: C_2  and  C_4
REMARK    3  A    between atoms: C_2  and  N_14
REMARK    4  A    between atoms: N_9  and  C_10
REMARK    5  A    between atoms: C_10  and  C_11
REMARK    6  A    between atoms: C_10  and  C_12
REMARK    7  A    between atoms: C_10  and  C_13
REMARK    8  A    between atoms: C_17  and  C_20
REMARK    9  A    between atoms: N_22  and  C_23
REMARK                            x       y       z     vdW  Elec       q    Type
REMARK                         _______ _______ _______ _____ _____    ______ ____
ROOT
ATOM      1  N   UNL     1      -1.099  -0.617   0.606  0.00  0.00    +0.387 N 
ATOM      2  C   UNL     1      -0.445  -1.927   0.711  0.00  0.00    -0.077 C 
ATOM      3  C   UNL     1      -1.414  -2.937   1.330  0.00  0.00    -0.006 C 
ATOM      4  C   UNL     1      -1.822  -2.454   2.725  0.00  0.00    +0.072 C 
ATOM      5  C   UNL     1      -2.436  -1.056   2.612  0.00  0.00    -0.006 C 
ATOM      6  C   UNL     1      -1.429  -0.116   1.945  0.00  0.00    -0.077 C 
ATOM      7  H   UNL     1      -1.945  -0.709   0.064  0.00  0.00    -0.081 HD
ENDROOT
BRANCH   4   8
ATOM      8  C   UNL     1      -2.837  -3.404   3.309  0.00  0.00    +0.220 C 
ATOM      9  O   UNL     1      -3.198  -4.372   2.674  0.00  0.00    -0.275 OA
ATOM     10  N   UNL     1      -3.342  -3.178   4.538  0.00  0.00    -0.285 N 
ATOM     11  H   UNL     1      -3.106  -2.369   5.018  0.00  0.00    +0.155 HD
BRANCH  10  12
ATOM     12  C   UNL     1      -4.207  -4.110   5.121  0.00  0.00    +0.033 A 
ATOM     13  C   UNL     1      -5.224  -3.683   5.965  0.00  0.00    +0.023 A 
ATOM     14  C   UNL     1      -6.076  -4.605   6.539  0.00  0.00    +0.002 A 
ATOM     15  C   UNL     1      -5.918  -5.953   6.274  0.00  0.00    +0.000 A 
ATOM     16  C   UNL     1      -4.907  -6.382   5.435  0.00  0.00    +0.002 A 
ATOM     17  C   UNL     1      -4.055  -5.464   4.853  0.00  0.00    +0.023 A 
ENDBRANCH  10  12
ENDBRANCH   4   8
BRANCH   1  19
ATOM     18  C   UNL     1      -0.841   1.714  -0.098  0.00  0.00    -0.004 C 
ATOM     19  C   UNL     1      -0.193   0.329  -0.059  0.00  0.00    +0.017 C 
BRANCH  19  20
ATOM     20  C   UNL     1       0.076  -0.139  -1.467  0.00  0.00    +0.207 C 
ATOM     21  O   UNL     1      -0.756  -0.793  -2.057  0.00  0.00    -0.277 OA
ATOM     22  N   UNL     1       1.242   0.171  -2.068  0.00  0.00    -0.242 N 
ATOM     23  C   UNL     1       1.482  -0.247  -3.327  0.00  0.00    +0.306 C 
ATOM     24  O   UNL     1       0.648  -0.903  -3.919  0.00  0.00    -0.252 OA
ATOM     25  N   UNL     1       2.648   0.063  -3.929  0.00  0.00    -0.294 N 
ATOM     26  H   UNL     1       1.907   0.695  -1.596  0.00  0.00    +0.159 HD
ATOM     27  H   UNL     1       3.313   0.587  -3.456  0.00  0.00    +0.151 HD
BRANCH  25  28
ATOM     28  C   UNL     1       2.909  -0.391  -5.297  0.00  0.00    +0.028 C 
ATOM     29  C   UNL     1       1.845   0.179  -6.236  0.00  0.00    +0.031 C 
ATOM     30  C   UNL     1       4.292   0.092  -5.739  0.00  0.00    +0.031 C 
ATOM     31  C   UNL     1       2.864  -1.920  -5.344  0.00  0.00    +0.031 C 
ENDBRANCH  25  28
ENDBRANCH  19  20
ENDBRANCH   1  19
TORSDOF 5
