REMARK  Name = ZINC36013938
REMARK  15 active torsions:
REMARK  status: ('A' for Active; 'I' for Inactive)
REMARK    1  A    between atoms: C_1  and  C_2
REMARK    2  A    between atoms: C_2  and  N_3
REMARK    3  A    between atoms: N_9  and  C_14
REMARK    4  A    between atoms: C_11  and  C_13
REMARK    5  A    between atoms: C_14  and  C_15
REMARK    6  A    between atoms: C_16  and  C_34
REMARK    7  A    between atoms: C_17  and  C_25
REMARK    8  A    between atoms: N_22  and  C_23
REMARK    9  A    between atoms: C_23  and  C_24
REMARK   10  A    between atoms: C_28  and  C_31
REMARK   11  A    between atoms: C_31  and  C_32
REMARK   12  A    between atoms: C_31  and  C_33
REMARK   13  A    between atoms: C_34  and  O_36
REMARK   14  A    between atoms: O_36  and  C_37
REMARK   15  A    between atoms: C_37  and  C_38
REMARK                            x       y       z     vdW  Elec       q    Type
REMARK                         _______ _______ _______ _____ _____    ______ ____
ROOT
ATOM      1  C   UNL     1       2.367  -2.428  -7.375  0.00  0.00    +0.041 C 
ATOM      2  C   UNL     1       3.079  -3.181  -8.241  0.00  0.00    +0.080 C 
ATOM      3  C   UNL     1       3.938  -2.462  -9.260  0.00  0.00    +0.144 C 
ATOM      4  N   UNL     1       3.927  -0.990  -9.223  0.00  0.00    -0.288 N 
ATOM      5  C   UNL     1       3.163  -0.378  -8.297  0.00  0.00    +0.307 C 
ATOM      6  O   UNL     1       3.147   0.837  -8.259  0.00  0.00    -0.252 OA
ATOM      7  N   UNL     1       2.417  -1.064  -7.423  0.00  0.00    -0.258 N 
ATOM      8  H   UNL     1       4.457  -0.474  -9.850  0.00  0.00    +0.151 HD
ENDROOT
BRANCH   3   9
ATOM      9  C   UNL     1       5.362  -2.920  -9.073  0.00  0.00    -0.022 A 
ATOM     10  C   UNL     1       6.133  -2.383  -8.059  0.00  0.00    +0.006 A 
ATOM     11  C   UNL     1       7.439  -2.803  -7.887  0.00  0.00    +0.004 A 
ATOM     12  C   UNL     1       7.973  -3.761  -8.729  0.00  0.00    -0.045 A 
ATOM     13  C   UNL     1       7.202  -4.298  -9.742  0.00  0.00    +0.004 A 
ATOM     14  C   UNL     1       5.895  -3.881  -9.912  0.00  0.00    +0.006 A 
BRANCH  12  15
ATOM     15  C   UNL     1       9.397  -4.218  -8.542  0.00  0.00    +0.013 C 
ATOM     16  C   UNL     1       9.417  -5.722  -8.263  0.00  0.00    +0.012 C 
ATOM     17  C   UNL     1      10.198  -3.924  -9.812  0.00  0.00    +0.012 C 
ENDBRANCH  12  15
ENDBRANCH   3   9
BRANCH   7  18
ATOM     18  C   UNL     1       1.614  -0.308  -6.457  0.00  0.00    +0.111 C 
ATOM     19  C   UNL     1       2.472   0.033  -5.237  0.00  0.00    +0.025 C 
ENDBRANCH   7  18
BRANCH   2  20
ATOM     20  C   UNL     1       3.023  -4.594  -8.197  0.00  0.00    +0.339 C 
ATOM     21  O   UNL     1       2.235  -5.149  -7.454  0.00  0.00    -0.245 OA
BRANCH  20  22
ATOM     22  O   UNL     1       3.845  -5.326  -8.978  0.00  0.00    -0.462 OA
BRANCH  22  23
ATOM     23  C   UNL     1       3.735  -6.748  -8.882  0.00  0.00    +0.229 C 
ATOM     24  C   UNL     1       4.738  -7.402  -9.834  0.00  0.00    +0.048 C 
ENDBRANCH  22  23
ENDBRANCH  20  22
ENDBRANCH   2  20
BRANCH   1  25
ATOM     25  C   UNL     1       1.498  -3.102  -6.345  0.00  0.00    +0.136 C 
BRANCH  25  32
ATOM     26  N   UNL     1      -3.459  -5.916  -8.597  0.00  0.00    -0.299 N 
ATOM     27  C   UNL     1      -3.413  -5.067  -7.551  0.00  0.00    +0.303 C 
ATOM     28  O   UNL     1      -4.281  -5.104  -6.700  0.00  0.00    -0.253 OA
ATOM     29  N   UNL     1      -2.405  -4.179  -7.448  0.00  0.00    -0.280 N 
ATOM     30  C   UNL     1      -1.425  -4.021  -8.532  0.00  0.00    +0.125 C 
ATOM     31  C   UNL     1      -0.017  -4.122  -7.934  0.00  0.00    +0.104 C 
ATOM     32  N   UNL     1       0.114  -3.159  -6.833  0.00  0.00    -0.294 NA
ATOM     33  C   UNL     1      -0.817  -3.470  -5.740  0.00  0.00    +0.107 C 
ATOM     34  C   UNL     1      -2.261  -3.337  -6.250  0.00  0.00    +0.088 C 
ATOM     35  C   UNL     1      -3.235  -3.809  -5.170  0.00  0.00    +0.029 C 
ATOM     36  H   UNL     1      -2.810  -5.838  -9.314  0.00  0.00    +0.150 HD
BRANCH  26  38
ATOM     37  C   UNL     1      -4.320  -7.774  -9.934  0.00  0.00    +0.024 C 
ATOM     38  C   UNL     1      -4.490  -6.955  -8.653  0.00  0.00    +0.102 C 
ENDBRANCH  26  38
ENDBRANCH  25  32
ENDBRANCH   1  25
TORSDOF 9
