REMARK  Name = ZINC36370405
REMARK  8 active torsions:
REMARK  status: ('A' for Active; 'I' for Inactive)
REMARK    1  A    between atoms: C_1  and  C_2
REMARK    2  A    between atoms: C_2  and  O_3
REMARK    3  A    between atoms: O_3  and  C_4
REMARK    4  A    between atoms: C_4  and  C_6
REMARK    5  A    between atoms: N_11  and  C_13
REMARK    6  A    between atoms: C_13  and  C_15
REMARK    7  A    between atoms: C_13  and  C_22
REMARK    8  A    between atoms: C_28  and  C_30
REMARK                            x       y       z     vdW  Elec       q    Type
REMARK                         _______ _______ _______ _____ _____    ______ ____
ROOT
ATOM      1  C   UNL     1      -4.028  -6.000   0.078  0.00  0.00    +0.007 C 
ENDROOT
BRANCH   1   2
ATOM      2  C   UNL     1      -5.410  -6.598   0.095  0.00  0.00    +0.050 A 
ATOM      3  C   UNL     1      -5.940  -7.522  -0.716  0.00  0.00    +0.282 A 
ATOM      4  N   UNL     1      -7.234  -7.948  -0.542  0.00  0.00    -0.169 N 
ATOM      5  C   UNL     1      -7.942  -7.389   0.487  0.00  0.00    +0.200 A 
ATOM      6  S   UNL     1      -6.768  -6.266   1.207  0.00  0.00    -0.050 S 
ATOM      7  N   UNL     1      -9.143  -7.895   0.520  0.00  0.00    -0.197 NA
ATOM      8  C   UNL     1      -9.274  -8.791  -0.467  0.00  0.00    +0.218 A 
ATOM      9  N   UNL     1      -8.145  -8.859  -1.138  0.00  0.00    -0.138 NA
ATOM     10  O   UNL     1      -5.189  -8.043  -1.724  0.00  0.00    -0.265 OA
BRANCH   8  11
ATOM     11  C   UNL     1     -10.492  -9.577  -0.756  0.00  0.00    +0.173 A 
ATOM     12  C   UNL     1     -11.665  -9.510  -0.072  0.00  0.00    +0.053 A 
ATOM     13  C   UNL     1     -12.545 -10.425  -0.686  0.00  0.00    +0.042 A 
ATOM     14  C   UNL     1     -11.872 -10.999  -1.702  0.00  0.00    +0.196 A 
ATOM     15  O   UNL     1     -10.634 -10.480  -1.745  0.00  0.00    -0.460 OA
ENDBRANCH   8  11
ENDBRANCH   1   2
BRANCH   1  20
ATOM     16  C   UNL     1      -2.881  -2.427   0.017  0.00  0.00    +0.081 C 
ATOM     17  C   UNL     1      -3.647  -1.960  -1.225  0.00  0.00    +0.011 C 
ATOM     18  C   UNL     1      -5.023  -2.632  -1.246  0.00  0.00    -0.018 C 
ATOM     19  C   UNL     1      -4.844  -4.151  -1.211  0.00  0.00    -0.077 C 
ATOM     20  N   UNL     1      -4.129  -4.535   0.011  0.00  0.00    +0.388 N 
ATOM     21  C   UNL     1      -2.781  -3.954   0.005  0.00  0.00    -0.063 C 
ATOM     22  H   UNL     1      -4.635  -4.198   0.816  0.00  0.00    -0.080 HD
BRANCH  16  23
ATOM     23  C   UNL     1      -1.496  -1.832   0.006  0.00  0.00    +0.308 C 
ATOM     24  O   UNL     1      -0.528  -2.555  -0.007  0.00  0.00    -0.251 OA
BRANCH  23  25
ATOM     25  O   UNL     1      -1.339  -0.499   0.012  0.00  0.00    -0.465 OA
BRANCH  25  27
ATOM     26  C   UNL     1      -0.019   1.526   0.010  0.00  0.00    +0.048 C 
ATOM     27  C   UNL     1       0.002  -0.004   0.002  0.00  0.00    +0.229 C 
ENDBRANCH  25  27
ENDBRANCH  23  25
ENDBRANCH  16  23
ENDBRANCH   1  20
BRANCH   1  28
ATOM     28  C   UNL     1      -3.293  -6.396   1.333  0.00  0.00    -0.038 A 
ATOM     29  C   UNL     1      -3.292  -5.553   2.429  0.00  0.00    +0.004 A 
ATOM     30  C   UNL     1      -2.619  -5.917   3.580  0.00  0.00    +0.000 A 
ATOM     31  C   UNL     1      -1.946  -7.123   3.636  0.00  0.00    +0.001 A 
ATOM     32  C   UNL     1      -1.946  -7.966   2.541  0.00  0.00    +0.020 A 
ATOM     33  C   UNL     1      -2.625  -7.606   1.391  0.00  0.00    +0.043 A 
ATOM     34 CL   UNL     1      -2.631  -8.667   0.017  0.00  0.00    -0.083 Cl
ENDBRANCH   1  28
TORSDOF 7
