REMARK  Name = ZINC14473295
REMARK  7 active torsions:
REMARK  status: ('A' for Active; 'I' for Inactive)
REMARK    1  A    between atoms: C_4  and  O_7
REMARK    2  A    between atoms: O_7  and  C_8
REMARK    3  A    between atoms: C_8  and  C_9
REMARK    4  A    between atoms: C_9  and  O_10
REMARK    5  A    between atoms: O_10  and  C_11
REMARK    6  A    between atoms: C_18  and  C_27
REMARK    7  A    between atoms: C_29  and  N_34
REMARK                            x       y       z     vdW  Elec       q    Type
REMARK                         _______ _______ _______ _____ _____    ______ ____
ROOT
ATOM      1  C   UNL     1      -0.059   1.443   0.293  0.00  0.00    +0.142 A 
ATOM      2  C   UNL     1       1.121   2.163   0.296  0.00  0.00    +0.047 A 
ATOM      3  C   UNL     1       2.328   1.503   0.154  0.00  0.00    +0.004 A 
ATOM      4  C   UNL     1       2.353   0.131   0.012  0.00  0.00    +0.006 A 
ATOM      5  C   UNL     1       1.173  -0.604   0.008  0.00  0.00    -0.016 A 
ATOM      6  C   UNL     1      -0.036   0.052   0.147  0.00  0.00    +0.074 A 
ATOM      7  N   UNL     1      -1.257  -0.627   0.144  0.00  0.00    -0.334 N 
ATOM      8  C   UNL     1      -1.119  -2.017   0.579  0.00  0.00    +0.106 C 
ATOM      9  C   UNL     1      -0.118  -2.738  -0.328  0.00  0.00    +0.029 C 
ATOM     10  C   UNL     1       1.273  -2.093  -0.148  0.00  0.00    +0.049 C 
ATOM     11  C   UNL     1       1.813  -2.728   1.112  0.00  0.00    -0.023 C 
ATOM     12  C   UNL     1       1.195  -3.856   1.358  0.00  0.00    -0.030 C 
ATOM     13  C   UNL     1       0.158  -4.138   0.289  0.00  0.00    +0.033 C 
ATOM     14  H   UNL     1      -1.943  -0.140   0.701  0.00  0.00    +0.147 HD
ENDROOT
BRANCH   8  15
ATOM     15  C   UNL     1      -2.457  -2.705   0.498  0.00  0.00    -0.007 A 
ATOM     16  C   UNL     1      -2.900  -3.482   1.551  0.00  0.00    +0.039 A 
ATOM     17  C   UNL     1      -4.130  -4.109   1.479  0.00  0.00    +0.127 A 
ATOM     18  C   UNL     1      -4.913  -3.967   0.348  0.00  0.00    +0.034 A 
ATOM     19  C   UNL     1      -4.469  -3.195  -0.708  0.00  0.00    +0.022 A 
ATOM     20  C   UNL     1      -3.240  -2.563  -0.634  0.00  0.00    +0.046 A 
ATOM     21 CL   UNL     1      -2.681  -1.592  -1.960  0.00  0.00    -0.083 Cl
BRANCH  17  22
ATOM     22  N   UNL     1      -4.606  -4.937   2.610  0.00  0.00    +0.056 N 
ATOM     23  O   UNL     1      -5.688  -5.493   2.544  0.00  0.00    -0.126 OA
ATOM     24  O   UNL     1      -3.917  -5.062   3.606  0.00  0.00    -0.126 OA
ENDBRANCH  17  22
ENDBRANCH   8  15
BRANCH   1  25
ATOM     25  O   UNL     1      -1.248   2.090   0.426  0.00  0.00    -0.487 OA
BRANCH  25  26
ATOM     26  C   UNL     1      -1.201   3.510   0.571  0.00  0.00    +0.270 C 
BRANCH  26  27
ATOM     27  C   UNL     1      -2.623   4.057   0.707  0.00  0.00    +0.270 C 
BRANCH  27  28
ATOM     28  O   UNL     1      -3.206   3.572   1.919  0.00  0.00    -0.489 OA
BRANCH  28  32
ATOM     29  C   UNL     1      -7.064   4.771   2.752  0.00  0.00    +0.000 A 
ATOM     30  C   UNL     1      -6.396   3.937   3.629  0.00  0.00    +0.004 A 
ATOM     31  C   UNL     1      -5.104   3.534   3.353  0.00  0.00    +0.045 A 
ATOM     32  C   UNL     1      -4.477   3.967   2.193  0.00  0.00    +0.121 A 
ATOM     33  C   UNL     1      -5.148   4.808   1.317  0.00  0.00    +0.045 A 
ATOM     34  C   UNL     1      -6.442   5.203   1.595  0.00  0.00    +0.004 A 
ENDBRANCH  28  32
ENDBRANCH  27  28
ENDBRANCH  26  27
ENDBRANCH  25  26
ENDBRANCH   1  25
TORSDOF 7
