REMARK  Name = ZINC40322249
REMARK  10 active torsions:
REMARK  status: ('A' for Active; 'I' for Inactive)
REMARK    1  A    between atoms: C_1  and  C_2
REMARK    2  A    between atoms: C_2  and  C_3
REMARK    3  A    between atoms: C_2  and  C_4
REMARK    4  A    between atoms: C_7  and  C_10
REMARK    5  A    between atoms: C_10  and  C_12
REMARK    6  A    between atoms: C_10  and  N_31
REMARK    7  A    between atoms: C_12  and  N_13
REMARK    8  A    between atoms: C_14  and  C_16
REMARK    9  A    between atoms: C_19  and  S_21
REMARK   10  A    between atoms: S_21  and  C_24
REMARK                            x       y       z     vdW  Elec       q    Type
REMARK                         _______ _______ _______ _____ _____    ______ ____
ROOT
ATOM      1  C   UNL     1       2.253  -3.294  -5.196  0.00  0.00    +0.094 C 
ENDROOT
BRANCH   1   2
ATOM      2  N   UNL     1       0.803  -3.292  -5.407  0.00  0.00    -0.310 N 
ATOM      3  C   UNL     1       0.164  -4.441  -5.702  0.00  0.00    +0.279 C 
ATOM      4  O   UNL     1       0.791  -5.480  -5.793  0.00  0.00    -0.267 OA
ATOM      5  H   UNL     1       0.304  -2.464  -5.335  0.00  0.00    +0.149 HD
BRANCH   3   6
ATOM      6  C   UNL     1      -1.287  -4.439  -5.914  0.00  0.00    +0.192 A 
ATOM      7  C   UNL     1      -2.056  -5.528  -6.211  0.00  0.00    +0.056 A 
ATOM      8  C   UNL     1      -3.378  -5.069  -6.326  0.00  0.00    +0.070 A 
ATOM      9  C   UNL     1      -3.358  -3.737  -6.096  0.00  0.00    +0.246 A 
ATOM     10  O   UNL     1      -2.097  -3.362  -5.843  0.00  0.00    -0.433 OA
BRANCH   9  11
ATOM     11  S   UNL     1      -4.761  -2.671  -6.119  0.00  0.00    +0.058 S 
ATOM     12  O   UNL     1      -4.272  -1.364  -6.390  0.00  0.00    -0.161 OA
ATOM     13  O   UNL     1      -5.738  -3.303  -6.934  0.00  0.00    -0.161 OA
BRANCH  11  14
ATOM     14  C   UNL     1      -5.415  -2.635  -4.484  0.00  0.00    +0.097 A 
ATOM     15  C   UNL     1      -6.372  -3.557  -4.103  0.00  0.00    +0.029 A 
ATOM     16  C   UNL     1      -6.887  -3.530  -2.820  0.00  0.00    +0.022 A 
ATOM     17  C   UNL     1      -6.443  -2.580  -1.917  0.00  0.00    +0.041 A 
ATOM     18  C   UNL     1      -5.485  -1.657  -2.300  0.00  0.00    +0.022 A 
ATOM     19  C   UNL     1      -4.968  -1.689  -3.581  0.00  0.00    +0.029 A 
ATOM     20 CL   UNL     1      -7.089  -2.544  -0.306  0.00  0.00    -0.084 Cl
ENDBRANCH  11  14
ENDBRANCH   9  11
ENDBRANCH   3   6
ENDBRANCH   1   2
BRANCH   1  21
ATOM     21  C   UNL     1       2.705  -1.902  -4.749  0.00  0.00    -0.020 C 
BRANCH  21  22
ATOM     22  N   UNL     1       4.166  -1.888  -4.595  0.00  0.00    +0.385 N 
ATOM     23  C   UNL     1       4.574  -0.569  -4.073  0.00  0.00    -0.078 C 
ATOM     24  C   UNL     1       5.894  -0.730  -3.361  0.00  0.00    -0.019 C 
ATOM     25  C   UNL     1       7.077  -0.375  -4.282  0.00  0.00    -0.002 C 
ATOM     26  C   UNL     1       6.869  -0.911  -5.713  0.00  0.00    -0.002 C 
ATOM     27  C   UNL     1       6.286  -2.301  -5.726  0.00  0.00    -0.019 C 
ATOM     28  C   UNL     1       4.749  -2.201  -5.824  0.00  0.00    -0.078 C 
ATOM     29  H   UNL     1       4.427  -2.595  -3.924  0.00  0.00    -0.081 HD
ENDBRANCH  21  22
BRANCH  21  33
ATOM     30  C   UNL     1       0.869  -0.942  -1.014  0.00  0.00    -0.045 A 
ATOM     31  C   UNL     1       0.351  -0.432  -2.190  0.00  0.00    +0.004 A 
ATOM     32  C   UNL     1       0.945  -0.743  -3.399  0.00  0.00    +0.002 A 
ATOM     33  C   UNL     1       2.058  -1.563  -3.431  0.00  0.00    -0.059 A 
ATOM     34  C   UNL     1       2.576  -2.072  -2.255  0.00  0.00    +0.002 A 
ATOM     35  C   UNL     1       1.984  -1.757  -1.046  0.00  0.00    +0.004 A 
BRANCH  30  37
ATOM     36  C   UNL     1       0.245   0.913   0.509  0.00  0.00    +0.012 C 
ATOM     37  C   UNL     1       0.221  -0.603   0.304  0.00  0.00    +0.013 C 
ATOM     38  C   UNL     1      -1.229  -1.094   0.301  0.00  0.00    +0.012 C 
ENDBRANCH  30  37
ENDBRANCH  21  33
ENDBRANCH   1  21
TORSDOF 8
