REMARK  Name = ZINC33596982
REMARK  7 active torsions:
REMARK  status: ('A' for Active; 'I' for Inactive)
REMARK    1  A    between atoms: C_4  and  C_7
REMARK    2  A    between atoms: C_7  and  N_8
REMARK    3  A    between atoms: C_13  and  C_32
REMARK    4  A    between atoms: C_16  and  C_21
REMARK    5  A    between atoms: C_16  and  C_29
REMARK    6  A    between atoms: C_21  and  C_22
REMARK    7  A    between atoms: C_25  and  O_28
REMARK                            x       y       z     vdW  Elec       q    Type
REMARK                         _______ _______ _______ _____ _____    ______ ____
ROOT
ATOM      1  N   UNL     1       4.293  -0.804   1.299  0.00  0.00    -0.237 N 
ATOM      2  C   UNL     1       5.054  -0.005   2.115  0.00  0.00    +0.225 C 
ATOM      3  O   UNL     1       5.372   1.151   1.933  0.00  0.00    -0.275 OA
ATOM      4  C   UNL     1       5.391  -0.847   3.239  0.00  0.00    +0.078 C 
ATOM      5  C   UNL     1       5.866  -0.741   4.626  0.00  0.00    -0.008 C 
ATOM      6  N   UNL     1       5.513  -2.063   5.241  0.00  0.00    +0.397 N 
ATOM      7  C   UNL     1       4.734  -2.841   4.222  0.00  0.00    +0.052 C 
ATOM      8  C   UNL     1       4.080  -1.717   3.390  0.00  0.00    +0.086 C 
ATOM      9  C   UNL     1       3.877  -1.949   1.918  0.00  0.00    +0.225 C 
ATOM     10  O   UNL     1       3.438  -2.947   1.390  0.00  0.00    -0.275 OA
ATOM     11  H   UNL     1       6.354  -2.563   5.484  0.00  0.00    -0.083 HD
ATOM     12  H   UNL     1       4.949  -1.917   6.065  0.00  0.00    -0.083 HD
ENDROOT
BRANCH   5  13
ATOM     13  C   UNL     1       5.159   0.382   5.340  0.00  0.00    +0.028 A 
ATOM     14  C   UNL     1       5.648   1.670   5.241  0.00  0.00    +0.021 A 
ATOM     15  C   UNL     1       4.990   2.696   5.902  0.00  0.00    +0.003 A 
ATOM     16  C   UNL     1       3.859   2.385   6.642  0.00  0.00    +0.020 A 
ATOM     17  C   UNL     1       3.429   1.073   6.695  0.00  0.00    +0.111 A 
ATOM     18  N   UNL     1       4.077   0.124   6.049  0.00  0.00    -0.262 NA
ENDBRANCH   5  13
BRANCH   7  19
ATOM     19  C   UNL     1       3.679  -3.686   4.888  0.00  0.00    +0.347 C 
ATOM     20  O   UNL     1       3.575  -3.686   6.103  0.00  0.00    -0.248 OA
ATOM     21  O   UNL     1       2.929  -4.369   4.212  0.00  0.00    -0.248 OA
ENDBRANCH   7  19
BRANCH   1  22
ATOM     22  C   UNL     1       3.957  -0.463  -0.086  0.00  0.00    +0.151 C 
BRANCH  22  26
ATOM     23  C   UNL     1       0.311   1.761  -0.162  0.00  0.00    +0.000 A 
ATOM     24  C   UNL     1       1.520   2.420  -0.049  0.00  0.00    +0.000 A 
ATOM     25  C   UNL     1       2.700   1.700  -0.024  0.00  0.00    +0.005 A 
ATOM     26  C   UNL     1       2.670   0.321  -0.112  0.00  0.00    -0.030 A 
ATOM     27  C   UNL     1       1.461  -0.338  -0.225  0.00  0.00    +0.005 A 
ATOM     28  C   UNL     1       0.281   0.382  -0.251  0.00  0.00    +0.000 A 
ENDBRANCH  22  26
ENDBRANCH   1  22
BRANCH   7  29
ATOM     29  C   UNL     1       5.667  -3.706   3.372  0.00  0.00    +0.035 C 
BRANCH  29  30
ATOM     30  C   UNL     1       6.339  -4.731   4.249  0.00  0.00    -0.048 A 
ATOM     31  C   UNL     1       7.543  -4.433   4.861  0.00  0.00    +0.007 A 
ATOM     32  C   UNL     1       8.161  -5.371   5.665  0.00  0.00    +0.045 A 
ATOM     33  C   UNL     1       7.574  -6.613   5.857  0.00  0.00    +0.117 A 
ATOM     34  C   UNL     1       6.366  -6.910   5.242  0.00  0.00    +0.045 A 
ATOM     35  C   UNL     1       5.749  -5.966   4.444  0.00  0.00    +0.007 A 
BRANCH  33  36
ATOM     36  O   UNL     1       8.180  -7.538   6.647  0.00  0.00    -0.507 OA
ATOM     37  H   UNL     1       7.921  -7.491   7.577  0.00  0.00    +0.292 HD
ENDBRANCH  33  36
ENDBRANCH  29  30
ENDBRANCH   7  29
TORSDOF 7
