REMARK  Name = ZINC40570143
REMARK  10 active torsions:
REMARK  status: ('A' for Active; 'I' for Inactive)
REMARK    1  A    between atoms: C_1  and  N_2
REMARK    2  A    between atoms: C_7  and  C_24
REMARK    3  A    between atoms: C_9  and  N_23
REMARK    4  A    between atoms: C_10  and  C_14
REMARK    5  A    between atoms: C_14  and  O_16
REMARK    6  A    between atoms: O_16  and  C_17
REMARK    7  A    between atoms: C_27  and  O_32
REMARK    8  A    between atoms: C_28  and  O_30
REMARK    9  A    between atoms: O_30  and  C_31
REMARK   10  A    between atoms: O_32  and  C_33
REMARK                            x       y       z     vdW  Elec       q    Type
REMARK                         _______ _______ _______ _____ _____    ______ ____
ROOT
ATOM      1  C   UNL     1       2.624   0.679  -1.739  0.00  0.00    +0.105 C 
ATOM      2  N   UNL     1       2.076  -0.624  -1.340  0.00  0.00    -0.301 NA
ATOM      3  C   UNL     1       0.605  -0.607  -1.363  0.00  0.00    +0.090 C 
ATOM      4  C   UNL     1       0.102  -2.049  -1.307  0.00  0.00    +0.069 C 
ATOM      5  C   UNL     1       0.766  -2.782  -0.169  0.00  0.00    +0.023 A 
ATOM      6  C   UNL     1       1.913  -2.301   0.429  0.00  0.00    -0.006 A 
ATOM      7  C   UNL     1       2.502  -3.010   1.474  0.00  0.00    -0.000 A 
ATOM      8  C   UNL     1       1.903  -4.226   1.915  0.00  0.00    +0.035 A 
ATOM      9  C   UNL     1       2.333  -5.122   2.973  0.00  0.00    +0.056 A 
ATOM     10  C   UNL     1       1.581  -6.252   3.220  0.00  0.00    +0.120 A 
ATOM     11  S   UNL     1       0.265  -6.139   2.024  0.00  0.00    -0.062 S 
ATOM     12  C   UNL     1       0.730  -4.620   1.232  0.00  0.00    +0.088 A 
ATOM     13  N   UNL     1       0.218  -3.913   0.250  0.00  0.00    -0.352 N 
ATOM     14  C   UNL     1       2.558  -1.012  -0.011  0.00  0.00    +0.121 C 
ATOM     15  H   UNL     1      -0.589  -4.231  -0.183  0.00  0.00    +0.166 HD
ENDROOT
BRANCH   7  16
ATOM     16  C   UNL     1       3.736  -2.506   2.120  0.00  0.00    -0.013 A 
ATOM     17  C   UNL     1       3.681  -1.391   2.956  0.00  0.00    +0.012 A 
ATOM     18  C   UNL     1       4.831  -0.922   3.557  0.00  0.00    +0.050 A 
ATOM     19  C   UNL     1       6.043  -1.558   3.332  0.00  0.00    +0.162 A 
ATOM     20  C   UNL     1       6.104  -2.672   2.498  0.00  0.00    +0.162 A 
ATOM     21  C   UNL     1       4.954  -3.149   1.897  0.00  0.00    +0.058 A 
BRANCH  20  22
ATOM     22  O   UNL     1       7.294  -3.293   2.278  0.00  0.00    -0.491 OA
ATOM     23  C   UNL     1       7.282  -4.430   1.412  0.00  0.00    +0.277 C 
ENDBRANCH  20  22
BRANCH  19  24
ATOM     24  O   UNL     1       7.174  -1.092   3.925  0.00  0.00    -0.491 OA
ATOM     25  C   UNL     1       7.040   0.054   4.768  0.00  0.00    +0.277 C 
ENDBRANCH  19  24
ENDBRANCH   7  16
BRANCH   9  26
ATOM     26  N   UNL     1       3.471  -4.848   3.718  0.00  0.00    -0.356 N 
ATOM     27  H   UNL     1       3.866  -3.962   3.692  0.00  0.00    +0.142 HD
ATOM     28  H   UNL     1       3.872  -5.541   4.265  0.00  0.00    +0.142 HD
ENDBRANCH   9  26
BRANCH  10  29
ATOM     29  C   UNL     1       1.802  -7.259   4.189  0.00  0.00    +0.353 C 
ATOM     30  O   UNL     1       2.760  -7.184   4.936  0.00  0.00    -0.244 OA
BRANCH  29  31
ATOM     31  O   UNL     1       0.951  -8.302   4.285  0.00  0.00    -0.422 OA
BRANCH  31  32
ATOM     32  C   UNL     1       1.137  -9.186   5.300  0.00  0.00    +0.132 A 
ATOM     33  C   UNL     1       0.733  -8.860   6.587  0.00  0.00    +0.046 A 
ATOM     34  C   UNL     1       0.922  -9.761   7.618  0.00  0.00    +0.004 A 
ATOM     35  C   UNL     1       1.514 -10.985   7.368  0.00  0.00    +0.000 A 
ATOM     36  C   UNL     1       1.918 -11.312   6.086  0.00  0.00    +0.004 A 
ATOM     37  C   UNL     1       1.725 -10.417   5.051  0.00  0.00    +0.046 A 
ENDBRANCH  31  32
ENDBRANCH  29  31
ENDBRANCH  10  29
TORSDOF 7
