REMARK  Name = ZINC36495188
REMARK  15 active torsions:
REMARK  status: ('A' for Active; 'I' for Inactive)
REMARK    1  A    between atoms: C_1  and  C_2
REMARK    2  A    between atoms: C_7  and  C_8
REMARK    3  A    between atoms: C_8  and  C_9
REMARK    4  A    between atoms: N_11  and  C_12
REMARK    5  A    between atoms: N_11  and  C_18
REMARK    6  A    between atoms: C_12  and  C_13
REMARK    7  A    between atoms: C_18  and  C_20
REMARK    8  A    between atoms: C_18  and  C_29
REMARK    9  A    between atoms: C_21  and  O_28
REMARK   10  A    between atoms: C_23  and  O_27
REMARK   11  A    between atoms: C_25  and  O_26
REMARK   12  A    between atoms: N_31  and  C_32
REMARK   13  A    between atoms: C_32  and  C_33
REMARK   14  A    between atoms: C_32  and  C_34
REMARK   15  A    between atoms: C_32  and  C_35
REMARK                            x       y       z     vdW  Elec       q    Type
REMARK                         _______ _______ _______ _____ _____    ______ ____
ROOT
ATOM      1  C   UNL     1      -3.009   1.082   4.308  0.00  0.00    +0.200 C 
ENDROOT
BRANCH   1   2
ATOM      2  C   UNL     1      -2.459   2.377   4.848  0.00  0.00    +0.065 A 
ATOM      3  C   UNL     1      -1.383   2.362   5.723  0.00  0.00    +0.129 A 
ATOM      4  C   UNL     1      -0.877   3.554   6.220  0.00  0.00    +0.091 A 
ATOM      5  C   UNL     1      -1.446   4.761   5.841  0.00  0.00    +0.124 A 
ATOM      6  C   UNL     1      -2.521   4.775   4.964  0.00  0.00    +0.091 A 
ATOM      7  C   UNL     1      -3.024   3.584   4.465  0.00  0.00    +0.129 A 
BRANCH   7   8
ATOM      8  O   UNL     1      -4.075   3.598   3.602  0.00  0.00    -0.506 OA
ATOM      9  H   UNL     1      -4.939   3.557   4.034  0.00  0.00    +0.292 HD
ENDBRANCH   7   8
BRANCH   5  10
ATOM     10  O   UNL     1      -0.951   5.928   6.328  0.00  0.00    -0.507 OA
ATOM     11  H   UNL     1      -0.249   6.315   5.786  0.00  0.00    +0.292 HD
ENDBRANCH   5  10
BRANCH   3  12
ATOM     12  O   UNL     1      -0.826   1.180   6.095  0.00  0.00    -0.506 OA
ATOM     13  H   UNL     1      -0.051   0.929   5.574  0.00  0.00    +0.292 HD
ENDBRANCH   3  12
ENDBRANCH   1   2
BRANCH   1  14
ATOM     14  C   UNL     1      -3.851   0.415   5.365  0.00  0.00    +0.239 C 
ATOM     15  O   UNL     1      -3.320  -0.211   6.258  0.00  0.00    -0.273 OA
ATOM     16  N   UNL     1      -5.194   0.514   5.318  0.00  0.00    -0.309 N 
ATOM     17  H   UNL     1      -5.619   1.015   4.604  0.00  0.00    +0.149 HD
BRANCH  16  18
ATOM     18  C   UNL     1      -6.013  -0.134   6.345  0.00  0.00    +0.026 C 
ATOM     19  C   UNL     1      -5.649   0.431   7.720  0.00  0.00    +0.031 C 
ATOM     20  C   UNL     1      -7.493   0.131   6.061  0.00  0.00    +0.031 C 
ATOM     21  C   UNL     1      -5.753  -1.642   6.328  0.00  0.00    +0.031 C 
ENDBRANCH  16  18
ENDBRANCH   1  14
BRANCH   1  24
ATOM     22  C   UNL     1      -0.945   0.634   3.093  0.00  0.00    +0.221 C 
ATOM     23  O   UNL     1      -1.001   1.758   2.642  0.00  0.00    -0.275 OA
ATOM     24  N   UNL     1      -1.901   0.198   3.937  0.00  0.00    -0.278 N 
BRANCH  22  25
ATOM     25  C   UNL     1       0.195  -0.276   2.711  0.00  0.00    +0.131 C 
BRANCH  25  32
ATOM     26  C   UNL     1       2.276   1.438   3.751  0.00  0.00    +0.044 C 
ATOM     27  C   UNL     1       2.114   1.267   2.262  0.00  0.00    -0.047 A 
ATOM     28  C   UNL     1       2.965   1.925   1.394  0.00  0.00    +0.003 A 
ATOM     29  C   UNL     1       2.817   1.768   0.029  0.00  0.00    +0.000 A 
ATOM     30  C   UNL     1       1.818   0.952  -0.468  0.00  0.00    +0.000 A 
ATOM     31  C   UNL     1       0.968   0.293   0.399  0.00  0.00    +0.004 A 
ATOM     32  C   UNL     1       1.118   0.447   1.765  0.00  0.00    -0.036 A 
ENDBRANCH  25  32
ENDBRANCH  22  25
BRANCH  24  33
ATOM     33  C   UNL     1      -1.833  -1.160   4.482  0.00  0.00    +0.183 C 
BRANCH  33  34
ATOM     34  C   UNL     1      -0.728  -1.236   5.504  0.00  0.00    +0.122 A 
ATOM     35  C   UNL     1      -0.879  -1.126   6.836  0.00  0.00    +0.046 A 
ATOM     36  C   UNL     1       0.408  -1.257   7.407  0.00  0.00    +0.041 A 
ATOM     37  C   UNL     1       1.268  -1.438   6.389  0.00  0.00    +0.195 A 
ATOM     38  O   UNL     1       0.574  -1.431   5.240  0.00  0.00    -0.466 OA
ENDBRANCH  33  34
ENDBRANCH  24  33
ENDBRANCH   1  24
TORSDOF 11
