REMARK  Name = ZINC16608487
REMARK  9 active torsions:
REMARK  status: ('A' for Active; 'I' for Inactive)
REMARK    1  A    between atoms: C_1  and  C_2
REMARK    2  A    between atoms: C_2  and  C_3
REMARK    3  A    between atoms: C_3  and  C_5
REMARK    4  A    between atoms: C_3  and  C_6
REMARK    5  A    between atoms: C_6  and  C_8
REMARK    6  A    between atoms: C_6  and  N_25
REMARK    7  A    between atoms: C_14  and  C_16
REMARK    8  A    between atoms: N_28  and  C_29
REMARK    9  A    between atoms: C_34  and  C_35
REMARK                            x       y       z     vdW  Elec       q    Type
REMARK                         _______ _______ _______ _____ _____    ______ ____
ROOT
ATOM      1  C   UNL     1      -0.212   1.308   0.093  0.00  0.00    +0.163 C 
ENDROOT
BRANCH   1   2
ATOM      2  C   UNL     1      -1.101   1.576  -1.094  0.00  0.00    +0.239 C 
ATOM      3  O   UNL     1      -2.141   2.183  -0.948  0.00  0.00    -0.273 OA
ATOM      4  N   UNL     1      -0.741   1.141  -2.318  0.00  0.00    -0.262 N 
ATOM      5  C   UNL     1      -1.507   1.477  -3.428  0.00  0.00    +0.188 A 
ATOM      6  N   UNL     1      -2.613   2.205  -3.512  0.00  0.00    -0.125 NA
ATOM      7  N   UNL     1      -3.190   2.416  -4.613  0.00  0.00    -0.140 NA
ATOM      8  C   UNL     1      -2.724   1.923  -5.755  0.00  0.00    +0.134 A 
ATOM      9  S   UNL     1      -1.277   1.058  -5.153  0.00  0.00    -0.030 S 
ATOM     10  H   UNL     1       0.052   0.593  -2.423  0.00  0.00    +0.157 HD
BRANCH   8  11
ATOM     11  C   UNL     1      -3.248   2.056  -7.130  0.00  0.00    +0.013 A 
ATOM     12  C   UNL     1      -2.584   1.442  -8.194  0.00  0.00    +0.014 A 
ATOM     13  C   UNL     1      -3.075   1.567  -9.477  0.00  0.00    +0.050 A 
ATOM     14  C   UNL     1      -4.227   2.302  -9.716  0.00  0.00    +0.166 A 
ATOM     15  C   UNL     1      -4.895   2.917  -8.657  0.00  0.00    +0.167 A 
ATOM     16  C   UNL     1      -4.411   2.790  -7.368  0.00  0.00    +0.060 A 
ATOM     17  O   UNL     1      -5.987   3.570  -9.152  0.00  0.00    -0.453 OA
ATOM     18  C   UNL     1      -6.210   3.010 -10.460  0.00  0.00    +0.466 C 
ATOM     19  O   UNL     1      -4.902   2.571 -10.871  0.00  0.00    -0.453 OA
ENDBRANCH   8  11
ENDBRANCH   1   2
BRANCH   1  20
ATOM     20  N   UNL     1      -0.909   1.695   1.322  0.00  0.00    -0.288 N 
ATOM     21  C   UNL     1      -0.577   1.119   2.495  0.00  0.00    +0.304 C 
ATOM     22  O   UNL     1       0.302   0.280   2.532  0.00  0.00    -0.252 OA
ATOM     23  N   UNL     1      -1.218   1.475   3.626  0.00  0.00    -0.269 N 
ATOM     24  H   UNL     1      -1.610   2.365   1.292  0.00  0.00    +0.151 HD
ATOM     25  H   UNL     1      -1.959   2.099   3.587  0.00  0.00    +0.156 HD
BRANCH  23  26
ATOM     26  C   UNL     1      -0.813   0.945   4.856  0.00  0.00    +0.046 A 
ATOM     27  C   UNL     1      -0.197  -0.299   4.909  0.00  0.00    +0.024 A 
ATOM     28  C   UNL     1       0.206  -0.818   6.123  0.00  0.00    +0.002 A 
ATOM     29  C   UNL     1      -0.014  -0.105   7.288  0.00  0.00    +0.001 A 
ATOM     30  C   UNL     1      -0.632   1.131   7.240  0.00  0.00    +0.014 A 
ATOM     31  C   UNL     1      -1.032   1.658   6.027  0.00  0.00    +0.076 A 
BRANCH  31  32
ATOM     32  C   UNL     1      -1.706   3.005   5.975  0.00  0.00    +0.419 C 
ATOM     33  F   UNL     1      -1.814   3.522   7.270  0.00  0.00    -0.166 F 
ATOM     34  F   UNL     1      -0.947   3.876   5.186  0.00  0.00    -0.166 F 
ATOM     35  F   UNL     1      -2.983   2.866   5.420  0.00  0.00    -0.166 F 
ENDBRANCH  31  32
ENDBRANCH  23  26
ENDBRANCH   1  20
BRANCH   1  36
ATOM     36  C   UNL     1       1.076   2.123  -0.041  0.00  0.00    +0.015 C 
ATOM     37  C   UNL     1       0.751   3.613   0.071  0.00  0.00    +0.010 C 
BRANCH  36  39
ATOM     38  C   UNL     1       2.447   0.260   0.905  0.00  0.00    +0.004 C 
ATOM     39  C   UNL     1       2.047   1.728   1.074  0.00  0.00    +0.002 C 
ENDBRANCH  36  39
ENDBRANCH   1  36
TORSDOF 7
