REMARK  Name = ZINC43426386
REMARK  2 active torsions:
REMARK  status: ('A' for Active; 'I' for Inactive)
REMARK    1  A    between atoms: N_9  and  C_13
REMARK    2  A    between atoms: C_13  and  C_14
REMARK                            x       y       z     vdW  Elec       q    Type
REMARK                         _______ _______ _______ _____ _____    ______ ____
ROOT
ATOM      1  C   UNL     1      -0.019   1.527   0.010  0.00  0.00    +0.002 C 
ATOM      2  C   UNL     1       1.414   2.061  -0.000  0.00  0.00    +0.003 C 
ATOM      3  C   UNL     1       2.165   1.549   1.232  0.00  0.00    +0.033 C 
ATOM      4  C   UNL     1       2.186   0.021   1.210  0.00  0.00    +0.135 C 
ATOM      5  C   UNL     1       0.747  -0.504   1.240  0.00  0.00    +0.086 C 
ATOM      6  C   UNL     1       0.002  -0.004   0.002  0.00  0.00    +0.021 C 
ATOM      7  N   UNL     1       0.771  -1.973   1.256  0.00  0.00    -0.286 NA
ATOM      8  C   UNL     1       1.508  -2.462   2.432  0.00  0.00    +0.113 C 
ATOM      9  C   UNL     1       2.934  -1.908   2.408  0.00  0.00    +0.175 C 
ATOM     10  O   UNL     1       2.889  -0.479   2.349  0.00  0.00    -0.374 OA
ENDROOT
BRANCH   7  11
ATOM     11  C   UNL     1      -0.591  -2.522   1.222  0.00  0.00    +0.181 C 
BRANCH  11  12
ATOM     12  C   UNL     1      -0.527  -4.010   0.993  0.00  0.00    +0.230 C 
ATOM     13  O   UNL     1       0.548  -4.559   0.871  0.00  0.00    -0.274 OA
ATOM     14  N   UNL     1      -1.663  -4.731   0.924  0.00  0.00    -0.300 N 
ATOM     15  C   UNL     1      -2.969  -4.074   1.066  0.00  0.00    +0.115 C 
ATOM     16  C   UNL     1      -3.804  -4.359  -0.189  0.00  0.00    +0.093 C 
ATOM     17  C   UNL     1      -3.761  -5.846  -0.464  0.00  0.00    +0.136 C 
ATOM     18  O   UNL     1      -4.780  -6.479  -0.606  0.00  0.00    -0.297 OA
ATOM     19  C   UNL     1      -2.411  -6.522  -0.556  0.00  0.00    +0.093 C 
ATOM     20  C   UNL     1      -1.611  -6.181   0.702  0.00  0.00    +0.115 C 
ENDBRANCH  11  12
ENDBRANCH   7  11
TORSDOF 2
