REMARK  Name = ZINC09550180
REMARK  6 active torsions:
REMARK  status: ('A' for Active; 'I' for Inactive)
REMARK    1  A    between atoms: C_1  and  C_2
REMARK    2  A    between atoms: C_2  and  C_36
REMARK    3  A    between atoms: N_5  and  C_9
REMARK    4  A    between atoms: C_9  and  C_10
REMARK    5  A    between atoms: C_13  and  C_30
REMARK    6  A    between atoms: C_21  and  C_22
REMARK                            x       y       z     vdW  Elec       q    Type
REMARK                         _______ _______ _______ _____ _____    ______ ____
ROOT
ATOM      1  C   UNL     1      -0.365   1.054  -0.197  0.00  0.00    +0.253 C 
ATOM      2  O   UNL     1      -0.409  -0.152  -0.072  0.00  0.00    -0.272 OA
ATOM      3  N   UNL     1      -1.443   1.803   0.106  0.00  0.00    -0.184 N 
ATOM      4  C   UNL     1      -2.745   1.300   0.601  0.00  0.00    +0.140 C 
ATOM      5  C   UNL     1      -3.322   2.553   1.284  0.00  0.00    +0.066 C 
ATOM      6  C   UNL     1      -4.811   2.729   0.978  0.00  0.00    +0.012 C 
ATOM      7  C   UNL     1      -5.255   4.079   1.537  0.00  0.00    +0.005 C 
ATOM      8  C   UNL     1      -4.563   5.258   0.883  0.00  0.00    +0.037 C 
ATOM      9  C   UNL     1      -3.151   4.985   0.463  0.00  0.00    -0.024 C 
ATOM     10  C   UNL     1      -2.389   5.995  -0.006  0.00  0.00    +0.013 C 
ATOM     11  C   UNL     1      -2.595   3.681   0.563  0.00  0.00    +0.068 C 
ATOM     12  N   UNL     1      -1.533   3.197   0.016  0.00  0.00    -0.181 NA
ENDROOT
BRANCH  10  13
ATOM     13  C   UNL     1      -2.991   7.314  -0.261  0.00  0.00    -0.025 A 
ATOM     14  C   UNL     1      -4.230   7.409  -0.901  0.00  0.00    +0.008 A 
ATOM     15  C   UNL     1      -4.789   8.648  -1.132  0.00  0.00    +0.001 A 
ATOM     16  C   UNL     1      -4.123   9.796  -0.741  0.00  0.00    +0.000 A 
ATOM     17  C   UNL     1      -2.893   9.710  -0.112  0.00  0.00    +0.001 A 
ATOM     18  C   UNL     1      -2.323   8.478   0.131  0.00  0.00    +0.008 A 
ENDBRANCH  10  13
BRANCH   4  19
ATOM     19  C   UNL     1      -2.551   0.184   1.594  0.00  0.00    -0.024 A 
ATOM     20  C   UNL     1      -1.512   0.242   2.504  0.00  0.00    +0.005 A 
ATOM     21  C   UNL     1      -1.337  -0.780   3.419  0.00  0.00    +0.000 A 
ATOM     22  C   UNL     1      -2.194  -1.864   3.417  0.00  0.00    +0.000 A 
ATOM     23  C   UNL     1      -3.231  -1.924   2.504  0.00  0.00    +0.000 A 
ATOM     24  C   UNL     1      -3.409  -0.900   1.593  0.00  0.00    +0.005 A 
ENDBRANCH   4  19
BRANCH   1  25
ATOM     25  C   UNL     1       0.894   1.714  -0.698  0.00  0.00    +0.215 C 
BRANCH  25  30
ATOM     26  C   UNL     1       3.498  -2.146  -0.075  0.00  0.00    +0.042 C 
ATOM     27  C   UNL     1       3.642  -0.784  -0.757  0.00  0.00    +0.113 C 
ATOM     28  C   UNL     1       2.806   0.263  -0.049  0.00  0.00    +0.247 C 
ATOM     29  O   UNL     1       2.918   0.636   1.099  0.00  0.00    -0.273 OA
ATOM     30  N   UNL     1       1.910   0.692  -0.960  0.00  0.00    -0.215 N 
ATOM     31  C   UNL     1       2.068   0.073  -2.136  0.00  0.00    +0.310 C 
ATOM     32  O   UNL     1       1.380   0.295  -3.114  0.00  0.00    -0.252 OA
ATOM     33  N   UNL     1       3.072  -0.822  -2.115  0.00  0.00    -0.285 N 
ATOM     34  H   UNL     1       3.364  -1.383  -2.851  0.00  0.00    +0.151 HD
BRANCH  27  35
ATOM     35  C   UNL     1       5.110  -0.355  -0.802  0.00  0.00    +0.021 C 
ATOM     36  C   UNL     1       5.669   0.113  -2.147  0.00  0.00    +0.006 C 
ATOM     37  C   UNL     1       6.083  -1.246  -1.577  0.00  0.00    +0.006 C 
ENDBRANCH  27  35
ENDBRANCH  25  30
ENDBRANCH   1  25
TORSDOF 5
