REMARK  Name = ZINC12498241
REMARK  12 active torsions:
REMARK  status: ('A' for Active; 'I' for Inactive)
REMARK    1  A    between atoms: C_1  and  C_2
REMARK    2  A    between atoms: C_2  and  C_3
REMARK    3  A    between atoms: C_3  and  C_4
REMARK    4  A    between atoms: C_4  and  C_5
REMARK    5  A    between atoms: C_5  and  C_33
REMARK    6  A    between atoms: C_10  and  C_12
REMARK    7  A    between atoms: N_21  and  C_24
REMARK    8  A    between atoms: C_28  and  C_30
REMARK    9  A    between atoms: C_30  and  C_32
REMARK   10  A    between atoms: C_33  and  O_35
REMARK   11  A    between atoms: O_35  and  C_36
REMARK   12  A    between atoms: C_36  and  C_37
REMARK                            x       y       z     vdW  Elec       q    Type
REMARK                         _______ _______ _______ _____ _____    ______ ____
ROOT
ATOM      1  C   UNL     1       2.450   1.925   0.744  0.00  0.00    +0.044 C 
ATOM      2  C   UNL     1       1.140   2.210   0.050  0.00  0.00    +0.086 C 
ATOM      3  C   UNL     1       0.631   3.356   1.011  0.00  0.00    +0.077 C 
ATOM      4  C   UNL     1       1.823   4.241   1.056  0.00  0.00    -0.027 C 
ATOM      5  C   UNL     1      -0.726   3.518   0.495  0.00  0.00    +0.229 C 
ATOM      6  O   UNL     1      -1.361   4.546   0.396  0.00  0.00    -0.275 OA
ATOM      7  N   UNL     1      -1.125   2.252   0.143  0.00  0.00    -0.210 N 
ATOM      8  C   UNL     1      -0.077   1.369   0.088  0.00  0.00    +0.229 C 
ATOM      9  O   UNL     1      -0.136   0.159   0.069  0.00  0.00    -0.275 OA
ATOM     10  N   UNL     1       2.978   3.301   0.991  0.00  0.00    +0.395 N 
ATOM     11  H   UNL     1       3.605   3.574   0.225  0.00  0.00    -0.083 HD
ATOM     12  H   UNL     1       3.493   3.321   1.879  0.00  0.00    -0.083 HD
ENDROOT
BRANCH   4  13
ATOM     13  C   UNL     1       1.832   5.175  -0.126  0.00  0.00    -0.058 A 
ATOM     14  C   UNL     1       1.467   6.499   0.035  0.00  0.00    +0.002 A 
ATOM     15  C   UNL     1       1.475   7.357  -1.049  0.00  0.00    +0.003 A 
ATOM     16  C   UNL     1       1.849   6.892  -2.296  0.00  0.00    +0.038 A 
ATOM     17  C   UNL     1       2.214   5.566  -2.459  0.00  0.00    +0.124 A 
ATOM     18  C   UNL     1       2.211   4.710  -1.371  0.00  0.00    +0.040 A 
ATOM     19  F   UNL     1       2.579   5.111  -3.677  0.00  0.00    -0.205 F 
ENDBRANCH   4  13
BRANCH   7  20
ATOM     20  C   UNL     1      -2.455   1.899  -0.128  0.00  0.00    +0.045 A 
ATOM     21  C   UNL     1      -2.768   0.592  -0.480  0.00  0.00    +0.024 A 
ATOM     22  C   UNL     1      -4.079   0.236  -0.743  0.00  0.00    +0.003 A 
ATOM     23  C   UNL     1      -5.083   1.178  -0.668  0.00  0.00    +0.011 A 
ATOM     24  C   UNL     1      -4.778   2.498  -0.320  0.00  0.00    +0.019 A 
ATOM     25  C   UNL     1      -3.454   2.854  -0.049  0.00  0.00    +0.035 A 
BRANCH  24  26
ATOM     26  C   UNL     1      -5.846   3.507  -0.239  0.00  0.00    +0.160 C 
ATOM     27  O   UNL     1      -5.579   4.650   0.063  0.00  0.00    -0.292 OA
ATOM     28  C   UNL     1      -7.273   3.119  -0.532  0.00  0.00    +0.091 C 
ENDBRANCH  24  26
ENDBRANCH   7  20
BRANCH   1  29
ATOM     29  C   UNL     1       3.372   1.141  -0.153  0.00  0.00    +0.297 C 
ATOM     30  O   UNL     1       2.916   0.453  -1.036  0.00  0.00    -0.252 OA
BRANCH  29  31
ATOM     31  O   UNL     1       4.701   1.206   0.027  0.00  0.00    -0.466 OA
BRANCH  31  32
ATOM     32  C   UNL     1       5.528   0.425  -0.874  0.00  0.00    +0.228 C 
ATOM     33  C   UNL     1       7.002   0.625  -0.517  0.00  0.00    +0.048 C 
ENDBRANCH  31  32
ENDBRANCH  29  31
ENDBRANCH   1  29
BRANCH   1  34
ATOM     34  C   UNL     1       2.217   1.187   2.064  0.00  0.00    -0.001 C 
BRANCH  34  35
ATOM     35  C   UNL     1       3.551   1.004   2.789  0.00  0.00    -0.001 C 
BRANCH  35  37
ATOM     36  C   UNL     1       4.653   0.083   4.834  0.00  0.00    +0.004 C 
ATOM     37  C   UNL     1       3.318   0.266   4.109  0.00  0.00    -0.003 C 
ENDBRANCH  35  37
ENDBRANCH  34  35
ENDBRANCH   1  34
TORSDOF 9
