REMARK  Name = ZINC13033057
REMARK  11 active torsions:
REMARK  status: ('A' for Active; 'I' for Inactive)
REMARK    1  A    between atoms: C_1  and  C_2
REMARK    2  A    between atoms: C_7  and  C_15
REMARK    3  A    between atoms: C_13  and  C_14
REMARK    4  A    between atoms: C_15  and  N_66
REMARK    5  A    between atoms: C_16  and  C_17
REMARK    6  A    between atoms: C_16  and  N_66
REMARK    7  A    between atoms: C_24  and  C_25
REMARK    8  A    between atoms: C_24  and  N_66
REMARK    9  A    between atoms: N_29  and  C_30
REMARK   10  A    between atoms: C_30  and  C_31
REMARK   11  A    between atoms: C_31  and  C_32
REMARK                            x       y       z     vdW  Elec       q    Type
REMARK                         _______ _______ _______ _____ _____    ______ ____
ROOT
ATOM      1  N   UNL     1      -1.173  -2.312  -2.770  0.00  0.00    +0.390 N 
ATOM      2  H   UNL     1      -0.604  -2.663  -1.991  0.00  0.00    -0.080 HD
ENDROOT
BRANCH   1   3
ATOM      3  C   UNL     1      -0.379  -2.384  -4.015  0.00  0.00    -0.036 C 
BRANCH   3  10
ATOM      4  C   UNL     1       6.910   0.542  -2.626  0.00  0.00    +0.044 C 
ATOM      5  C   UNL     1       5.624  -0.217  -2.828  0.00  0.00    -0.046 A 
ATOM      6  C   UNL     1       5.590  -1.585  -2.594  0.00  0.00    +0.004 A 
ATOM      7  C   UNL     1       4.434  -2.292  -2.771  0.00  0.00    +0.010 A 
ATOM      8  C   UNL     1       3.275  -1.632  -3.191  0.00  0.00    -0.001 A 
ATOM      9  C   UNL     1       2.019  -2.358  -3.386  0.00  0.00    +0.017 A 
ATOM     10  C   UNL     1       0.928  -1.666  -3.801  0.00  0.00    +0.001 A 
ATOM     11  C   UNL     1       1.012  -0.276  -4.027  0.00  0.00    +0.251 A 
ATOM     12  O   UNL     1       0.019   0.328  -4.395  0.00  0.00    -0.268 OA
ATOM     13  N   UNL     1       2.161   0.400  -3.846  0.00  0.00    -0.322 N 
ATOM     14  H   UNL     1       2.184   1.356  -4.011  0.00  0.00    +0.169 HD
ATOM     15  C   UNL     1       3.306  -0.245  -3.430  0.00  0.00    +0.052 A 
ATOM     16  C   UNL     1       4.494   0.454  -3.244  0.00  0.00    -0.024 A 
ATOM     17  C   UNL     1       4.546   1.939  -3.495  0.00  0.00    +0.046 C 
ENDBRANCH   3  10
ENDBRANCH   1   3
BRANCH   1  18
ATOM     18  C   UNL     1      -2.386  -3.148  -2.895  0.00  0.00    -0.042 C 
BRANCH  18  19
ATOM     19  C   UNL     1      -1.986  -4.597  -2.795  0.00  0.00    -0.064 A 
ATOM     20  C   UNL     1      -1.706  -5.317  -3.941  0.00  0.00    +0.004 A 
ATOM     21  C   UNL     1      -1.335  -6.646  -3.850  0.00  0.00    +0.038 A 
ATOM     22  C   UNL     1      -1.254  -7.258  -2.611  0.00  0.00    +0.123 A 
ATOM     23  C   UNL     1      -1.539  -6.537  -1.464  0.00  0.00    +0.038 A 
ATOM     24  C   UNL     1      -1.905  -5.207  -1.557  0.00  0.00    +0.004 A 
ATOM     25  F   UNL     1      -0.896  -8.557  -2.521  0.00  0.00    -0.205 F 
ENDBRANCH  18  19
ENDBRANCH   1  18
BRANCH   1  26
ATOM     26  C   UNL     1      -1.552  -0.910  -2.494  0.00  0.00    +0.001 C 
BRANCH  26  27
ATOM     27  C   UNL     1      -2.253  -0.848  -1.161  0.00  0.00    +0.135 A 
ATOM     28  N   UNL     1      -3.548  -0.844  -0.957  0.00  0.00    -0.115 NA
ATOM     29  N   UNL     1      -3.750  -0.784   0.314  0.00  0.00    -0.023 NA
ATOM     30  N   UNL     1      -2.618  -0.756   0.927  0.00  0.00    -0.044 NA
ATOM     31  N   UNL     1      -1.671  -0.788   0.051  0.00  0.00    -0.231 N 
BRANCH  31  32
ATOM     32  C   UNL     1      -0.232  -0.770   0.325  0.00  0.00    +0.152 C 
BRANCH  32  33
ATOM     33  C   UNL     1       0.233   0.676   0.513  0.00  0.00    +0.058 C 
BRANCH  33  34
ATOM     34  C   UNL     1       1.682   0.688   0.927  0.00  0.00    -0.046 A 
ATOM     35  C   UNL     1       2.022   0.567   2.261  0.00  0.00    +0.004 A 
ATOM     36  C   UNL     1       3.351   0.573   2.640  0.00  0.00    +0.000 A 
ATOM     37  C   UNL     1       4.341   0.710   1.685  0.00  0.00    +0.000 A 
ATOM     38  C   UNL     1       4.002   0.836   0.350  0.00  0.00    +0.000 A 
ATOM     39  C   UNL     1       2.672   0.825  -0.029  0.00  0.00    +0.004 A 
ENDBRANCH  33  34
ENDBRANCH  32  33
ENDBRANCH  31  32
ENDBRANCH  26  27
ENDBRANCH   1  26
TORSDOF 9
