REMARK  Name = ZINC32908072
REMARK  5 active torsions:
REMARK  status: ('A' for Active; 'I' for Inactive)
REMARK    1  A    between atoms: C_8  and  C_28
REMARK    2  A    between atoms: N_10  and  C_12
REMARK    3  A    between atoms: C_12  and  C_13
REMARK    4  A    between atoms: C_16  and  C_18
REMARK    5  A    between atoms: N_20  and  C_21
REMARK                            x       y       z     vdW  Elec       q    Type
REMARK                         _______ _______ _______ _____ _____    ______ ____
ROOT
ATOM      1  C   UNL     1      -1.414   8.046   2.024  0.00  0.00    -0.011 C 
ENDROOT
BRANCH   1  10
ATOM      2  C   UNL     1      -0.001   2.634  -1.143  0.00  0.00    +0.000 A 
ATOM      3  C   UNL     1       1.099   3.014  -0.397  0.00  0.00    +0.000 A 
ATOM      4  C   UNL     1       1.025   4.122   0.422  0.00  0.00    +0.002 A 
ATOM      5  C   UNL     1      -0.148   4.859   0.501  0.00  0.00    -0.061 A 
ATOM      6  C   UNL     1      -1.243   4.482  -0.246  0.00  0.00    -0.047 A 
ATOM      7  C   UNL     1      -1.166   3.370  -1.072  0.00  0.00    +0.004 A 
ATOM      8  C   UNL     1      -2.536   5.255  -0.200  0.00  0.00    +0.029 C 
ATOM      9  C   UNL     1      -2.562   6.154   1.036  0.00  0.00    +0.024 C 
ATOM     10  N   UNL     1      -1.311   6.928   1.077  0.00  0.00    +0.394 N 
ATOM     11  C   UNL     1      -0.184   6.054   1.417  0.00  0.00    -0.041 C 
ATOM     12  H   UNL     1      -1.128   7.352   0.079  0.00  0.00    -0.080 HD
BRANCH   9  13
ATOM     13  C   UNL     1      -3.739   7.092   0.955  0.00  0.00    +0.197 C 
ATOM     14  O   UNL     1      -3.635   8.146   0.365  0.00  0.00    -0.278 OA
ATOM     15  N   UNL     1      -4.907   6.759   1.539  0.00  0.00    -0.331 N 
ATOM     16  H   UNL     1      -5.767   7.443   1.480  0.00  0.00    +0.145 HD
ATOM     17  H   UNL     1      -5.002   5.803   2.075  0.00  0.00    +0.145 HD
ENDBRANCH   9  13
ENDBRANCH   1  10
BRANCH   1  18
ATOM     18  C   UNL     1      -1.565   7.508   3.423  0.00  0.00    +0.086 A 
ATOM     19  N   UNL     1      -0.635   7.202   4.311  0.00  0.00    -0.148 NA
ATOM     20  N   UNL     1      -0.923   6.760   5.458  0.00  0.00    -0.137 NA
ATOM     21  C   UNL     1      -2.194   6.575   5.805  0.00  0.00    +0.187 A 
ATOM     22  S   UNL     1      -3.010   7.111   4.306  0.00  0.00    -0.048 S 
BRANCH  21  23
ATOM     23  C   UNL     1      -2.766   6.071   7.065  0.00  0.00    +0.275 C 
ATOM     24  O   UNL     1      -3.972   5.973   7.189  0.00  0.00    -0.268 OA
ATOM     25  N   UNL     1      -1.953   5.719   8.081  0.00  0.00    -0.280 N 
ATOM     26  H   UNL     1      -0.869   5.884   8.000  0.00  0.00    +0.155 HD
BRANCH  25  27
ATOM     27  C   UNL     1      -2.489   5.143   9.238  0.00  0.00    +0.034 A 
ATOM     28  C   UNL     1      -1.901   5.386  10.472  0.00  0.00    +0.026 A 
ATOM     29  C   UNL     1      -2.435   4.820  11.614  0.00  0.00    +0.040 A 
ATOM     30  C   UNL     1      -3.549   4.003  11.527  0.00  0.00    +0.124 A 
ATOM     31  C   UNL     1      -4.135   3.756  10.296  0.00  0.00    +0.040 A 
ATOM     32  C   UNL     1      -3.607   4.323   9.153  0.00  0.00    +0.026 A 
ATOM     33  F   UNL     1      -4.066   3.446  12.644  0.00  0.00    -0.205 F 
ENDBRANCH  25  27
ENDBRANCH  21  23
ENDBRANCH   1  18
TORSDOF 5
