REMARK  Name = ZINC13640488
REMARK  8 active torsions:
REMARK  status: ('A' for Active; 'I' for Inactive)
REMARK    1  A    between atoms: C_1  and  C_2
REMARK    2  A    between atoms: C_2  and  C_3
REMARK    3  A    between atoms: C_3  and  C_5
REMARK    4  A    between atoms: C_3  and  N_6
REMARK    5  A    between atoms: C_7  and  C_9
REMARK    6  A    between atoms: C_22  and  C_25
REMARK    7  A    between atoms: C_28  and  O_32
REMARK    8  A    between atoms: C_30  and  O_31
REMARK                            x       y       z     vdW  Elec       q    Type
REMARK                         _______ _______ _______ _____ _____    ______ ____
ROOT
ATOM      1  C   UNL     1       2.842  -2.157   2.303  0.00  0.00    +0.037 A 
ATOM      2  C   UNL     1       3.746  -1.169   2.707  0.00  0.00    +0.015 A 
ATOM      3  C   UNL     1       3.544   0.134   2.317  0.00  0.00    +0.024 A 
ATOM      4  C   UNL     1       2.448   0.469   1.526  0.00  0.00    +0.031 A 
ATOM      5  C   UNL     1       1.544  -0.505   1.119  0.00  0.00    -0.019 A 
ATOM      6  C   UNL     1       1.746  -1.817   1.511  0.00  0.00    +0.019 A 
ATOM      7  C   UNL     1       0.355  -0.188   0.268  0.00  0.00    +0.049 C 
ATOM      8  C   UNL     1       0.579  -0.639  -1.156  0.00  0.00    -0.023 C 
ATOM      9  C   UNL     1       0.044   0.216  -1.993  0.00  0.00    -0.030 C 
ATOM     10  C   UNL     1      -0.618   1.353  -1.239  0.00  0.00    +0.033 C 
ATOM     11  C   UNL     1       0.088   1.325   0.148  0.00  0.00    +0.029 C 
ATOM     12  C   UNL     1       1.414   2.078  -0.000  0.00  0.00    +0.108 C 
ATOM     13  N   UNL     1       2.267   1.796   1.142  0.00  0.00    -0.336 N 
ATOM     14  H   UNL     1       2.696   2.516   1.629  0.00  0.00    +0.147 HD
ENDROOT
BRANCH  12  15
ATOM     15  C   UNL     1       2.117   1.618  -1.251  0.00  0.00    +0.015 A 
ATOM     16  C   UNL     1       2.981   0.540  -1.202  0.00  0.00    +0.012 A 
ATOM     17  C   UNL     1       3.627   0.116  -2.347  0.00  0.00    +0.046 A 
ATOM     18  C   UNL     1       3.409   0.772  -3.551  0.00  0.00    +0.120 A 
ATOM     19  C   UNL     1       2.544   1.854  -3.603  0.00  0.00    +0.091 A 
ATOM     20  C   UNL     1       1.893   2.274  -2.453  0.00  0.00    +0.125 A 
BRANCH  20  21
ATOM     21  O   UNL     1       1.039   3.330  -2.503  0.00  0.00    -0.506 OA
ATOM     22  H   UNL     1       1.462   4.185  -2.342  0.00  0.00    +0.292 HD
ENDBRANCH  20  21
BRANCH  18  23
ATOM     23  O   UNL     1       4.045   0.355  -4.677  0.00  0.00    -0.507 OA
ATOM     24  H   UNL     1       3.558  -0.312  -5.180  0.00  0.00    +0.292 HD
ENDBRANCH  18  23
ENDBRANCH  12  15
BRANCH   1  26
ATOM     25  N   UNL     1       4.109  -3.887   3.479  0.00  0.00    -0.309 N 
ATOM     26  C   UNL     1       3.049  -3.558   2.714  0.00  0.00    +0.244 C 
ATOM     27  O   UNL     1       2.264  -4.417   2.363  0.00  0.00    -0.270 OA
ATOM     28  H   UNL     1       4.736  -3.202   3.759  0.00  0.00    +0.149 HD
BRANCH  25  29
ATOM     29  C   UNL     1       4.315  -5.279   3.887  0.00  0.00    +0.070 C 
ATOM     30  C   UNL     1       3.500  -5.565   5.150  0.00  0.00    +0.028 C 
BRANCH  29  32
ATOM     31  C   UNL     1       6.601  -5.348   2.881  0.00  0.00    +0.005 C 
ATOM     32  C   UNL     1       5.799  -5.512   4.174  0.00  0.00    +0.018 C 
ENDBRANCH  29  32
ENDBRANCH  25  29
ENDBRANCH   1  26
TORSDOF 6
