REMARK  Name = ZINC40014587
REMARK  14 active torsions:
REMARK  status: ('A' for Active; 'I' for Inactive)
REMARK    1  A    between atoms: C_1  and  C_2
REMARK    2  A    between atoms: C_2  and  C_3
REMARK    3  A    between atoms: C_3  and  C_4
REMARK    4  A    between atoms: C_4  and  N_5
REMARK    5  A    between atoms: N_5  and  C_6
REMARK    6  A    between atoms: N_5  and  C_10
REMARK    7  A    between atoms: C_6  and  C_7
REMARK    8  A    between atoms: C_7  and  C_8
REMARK    9  A    between atoms: C_8  and  C_9
REMARK   10  A    between atoms: C_10  and  C_11
REMARK   11  A    between atoms: C_11  and  C_12
REMARK   12  A    between atoms: C_12  and  N_13
REMARK   13  A    between atoms: C_14  and  C_30
REMARK   14  A    between atoms: C_34  and  N_36
REMARK                            x       y       z     vdW  Elec       q    Type
REMARK                         _______ _______ _______ _____ _____    ______ ____
ROOT
ATOM      1  N   UNL     1      -5.694  -6.708   0.112  0.00  0.00    -0.284 N 
ATOM      2  C   UNL     1      -6.660  -6.857   1.213  0.00  0.00    +0.145 C 
ATOM      3  C   UNL     1      -7.902  -7.407   0.594  0.00  0.00    +0.072 A 
ATOM      4  C   UNL     1      -9.195  -7.773   1.182  0.00  0.00    +0.199 A 
ATOM      5  O   UNL     1      -9.506  -7.502   2.329  0.00  0.00    -0.287 OA
ATOM      6  C   UNL     1     -10.088  -8.504   0.248  0.00  0.00    +0.066 A 
ATOM      7  C   UNL     1     -11.264  -9.092   0.711  0.00  0.00    +0.035 A 
ATOM      8  C   UNL     1     -12.078  -9.771  -0.169  0.00  0.00    +0.042 A 
ATOM      9  C   UNL     1     -11.726  -9.868  -1.509  0.00  0.00    +0.023 A 
ATOM     10  C   UNL     1     -10.568  -9.290  -1.977  0.00  0.00    +0.048 A 
ATOM     11  C   UNL     1      -9.729  -8.595  -1.107  0.00  0.00    +0.140 A 
ATOM     12  O   UNL     1      -8.602  -8.027  -1.595  0.00  0.00    -0.450 OA
ATOM     13  C   UNL     1      -7.670  -7.555  -0.744  0.00  0.00    +0.199 A 
ATOM     14  C   UNL     1      -6.293  -7.113  -1.026  0.00  0.00    +0.283 C 
ATOM     15  O   UNL     1      -5.773  -7.116  -2.124  0.00  0.00    -0.267 OA
ATOM     16 CL   UNL     1     -13.545 -10.507   0.397  0.00  0.00    -0.084 Cl
ENDROOT
BRANCH   2  17
ATOM     17  C   UNL     1      -6.940  -5.517   1.843  0.00  0.00    -0.020 A 
ATOM     18  C   UNL     1      -7.077  -4.394   1.048  0.00  0.00    +0.006 A 
ATOM     19  C   UNL     1      -7.334  -3.165   1.625  0.00  0.00    +0.003 A 
ATOM     20  C   UNL     1      -7.456  -3.058   2.998  0.00  0.00    +0.033 A 
ATOM     21  C   UNL     1      -7.320  -4.181   3.793  0.00  0.00    +0.127 A 
ATOM     22  C   UNL     1      -7.067  -5.411   3.215  0.00  0.00    +0.038 A 
BRANCH  21  23
ATOM     23  N   UNL     1      -7.450  -4.066   5.263  0.00  0.00    +0.056 N 
ATOM     24  O   UNL     1      -7.675  -2.991   5.769  0.00  0.00    -0.126 OA
ATOM     25  O   UNL     1      -7.332  -5.048   5.959  0.00  0.00    -0.126 OA
ENDBRANCH  21  23
ENDBRANCH   2  17
BRANCH   1  26
ATOM     26  C   UNL     1      -4.324  -6.202   0.230  0.00  0.00    +0.107 C 
BRANCH  26  27
ATOM     27  C   UNL     1      -4.323  -4.684   0.043  0.00  0.00    +0.000 C 
BRANCH  27  28
ATOM     28  C   UNL     1      -2.893  -4.155   0.167  0.00  0.00    -0.077 C 
BRANCH  28  29
ATOM     29  N   UNL     1      -2.874  -2.717  -0.134  0.00  0.00    +0.380 N 
ATOM     30  H   UNL     1      -3.287  -2.558  -1.040  0.00  0.00    -0.082 HD
BRANCH  29  31
ATOM     31  C   UNL     1      -3.642  -1.993   0.888  0.00  0.00    -0.079 C 
BRANCH  31  32
ATOM     32  C   UNL     1      -3.728  -0.514   0.508  0.00  0.00    -0.019 C 
BRANCH  32  34
ATOM     33  C   UNL     1      -4.613   1.720   1.192  0.00  0.00    +0.004 C 
ATOM     34  C   UNL     1      -4.528   0.241   1.572  0.00  0.00    -0.005 C 
ENDBRANCH  32  34
ENDBRANCH  31  32
ENDBRANCH  29  31
BRANCH  29  35
ATOM     35  C   UNL     1      -1.486  -2.236  -0.136  0.00  0.00    -0.079 C 
BRANCH  35  36
ATOM     36  C   UNL     1      -0.727  -2.873  -1.301  0.00  0.00    -0.019 C 
BRANCH  36  37
ATOM     37  C   UNL     1       0.737  -2.430  -1.259  0.00  0.00    -0.005 C 
ATOM     38  C   UNL     1       1.496  -3.068  -2.424  0.00  0.00    +0.004 C 
ENDBRANCH  36  37
ENDBRANCH  35  36
ENDBRANCH  29  35
ENDBRANCH  28  29
ENDBRANCH  27  28
ENDBRANCH  26  27
ENDBRANCH   1  26
TORSDOF 12
