REMARK  Name = ZINC48869851
REMARK  6 active torsions:
REMARK  status: ('A' for Active; 'I' for Inactive)
REMARK    1  A    between atoms: C_5  and  C_7
REMARK    2  A    between atoms: C_7  and  N_8
REMARK    3  A    between atoms: N_8  and  S_9
REMARK    4  A    between atoms: S_9  and  C_12
REMARK    5  A    between atoms: C_17  and  N_18
REMARK    6  A    between atoms: N_18  and  N_19
REMARK                            x       y       z     vdW  Elec       q    Type
REMARK                         _______ _______ _______ _____ _____    ______ ____
ROOT
ATOM      1  S   UNL     1       1.083  -4.250   1.754  0.00  0.00    +0.060 S 
ATOM      2  O   UNL     1       1.286  -4.494   3.140  0.00  0.00    -0.153 OA
ATOM      3  O   UNL     1      -0.186  -4.400   1.133  0.00  0.00    -0.153 OA
ENDROOT
BRANCH   1   4
ATOM      4  C   UNL     1       2.196  -5.306   0.888  0.00  0.00    +0.127 A 
ATOM      5  C   UNL     1       1.737  -6.093  -0.149  0.00  0.00    +0.030 A 
ATOM      6  C   UNL     1       2.609  -6.923  -0.829  0.00  0.00    +0.002 A 
ATOM      7  C   UNL     1       3.945  -6.967  -0.473  0.00  0.00    +0.002 A 
ATOM      8  C   UNL     1       4.411  -6.183   0.563  0.00  0.00    +0.026 A 
ATOM      9  C   UNL     1       3.538  -5.344   1.245  0.00  0.00    +0.067 A 
BRANCH   9  10
ATOM     10  N   UNL     1       4.008  -4.545   2.290  0.00  0.00    -0.281 N 
ATOM     11  H   UNL     1       3.415  -3.906   2.715  0.00  0.00    +0.166 HD
BRANCH  10  12
ATOM     12  N   UNL     1       5.301  -4.665   2.713  0.00  0.00    -0.256 NA
ATOM     13  H   UNL     1       5.494  -4.027   3.471  0.00  0.00    +0.140 HD
ATOM     14  H   UNL     1       5.508  -5.616   2.980  0.00  0.00    +0.140 HD
ENDBRANCH  10  12
ENDBRANCH   9  10
ENDBRANCH   1   4
BRANCH   1  15
ATOM     15  N   UNL     1       1.567  -2.692   1.473  0.00  0.00    -0.186 NA
ATOM     16  H   UNL     1       1.885  -2.142   2.206  0.00  0.00    +0.148 HD
BRANCH  15  17
ATOM     17  C   UNL     1       1.516  -2.143   0.115  0.00  0.00    +0.142 C 
BRANCH  17  22
ATOM     18  C   UNL     1       0.581   1.515   0.129  0.00  0.00    +0.000 A 
ATOM     19  C   UNL     1       1.817   2.115   0.287  0.00  0.00    +0.001 A 
ATOM     20  C   UNL     1       2.955   1.338   0.391  0.00  0.00    +0.015 A 
ATOM     21  C   UNL     1       2.858  -0.041   0.335  0.00  0.00    +0.022 A 
ATOM     22  C   UNL     1       1.622  -0.641   0.176  0.00  0.00    -0.018 A 
ATOM     23  C   UNL     1       0.484   0.137   0.073  0.00  0.00    +0.006 A 
ATOM     24 BR   UNL     1       4.415  -1.105   0.476  0.00  0.00    -0.050 Br
ENDBRANCH  17  22
ENDBRANCH  15  17
ENDBRANCH   1  15
TORSDOF 6
