REMARK  Name = ZINC53538867
REMARK  12 active torsions:
REMARK  status: ('A' for Active; 'I' for Inactive)
REMARK    1  A    between atoms: C_1  and  C_2
REMARK    2  A    between atoms: C_2  and  C_3
REMARK    3  A    between atoms: C_3  and  C_4
REMARK    4  A    between atoms: N_6  and  C_7
REMARK    5  A    between atoms: C_11  and  C_13
REMARK    6  A    between atoms: C_13  and  N_14
REMARK    7  A    between atoms: C_15  and  C_17
REMARK    8  A    between atoms: C_17  and  C_19
REMARK    9  A    between atoms: C_17  and  N_24
REMARK   10  A    between atoms: C_19  and  C_21
REMARK   11  A    between atoms: C_19  and  C_22
REMARK   12  A    between atoms: C_22  and  C_23
REMARK                            x       y       z     vdW  Elec       q    Type
REMARK                         _______ _______ _______ _____ _____    ______ ____
ROOT
ATOM      1  N   UNL     1       1.437  -7.148  -5.509  0.00  0.00    -0.310 N 
ATOM      2  C   UNL     1       1.799  -7.833  -6.612  0.00  0.00    +0.234 C 
ATOM      3  O   UNL     1       2.916  -8.298  -6.698  0.00  0.00    -0.274 OA
ATOM      4  H   UNL     1       0.543  -6.776  -5.440  0.00  0.00    +0.149 HD
ENDROOT
BRANCH   1   5
ATOM      5  C   UNL     1       2.393  -6.965  -4.414  0.00  0.00    +0.139 C 
BRANCH   5  10
ATOM      6  C   UNL     1       1.235  -4.061  -2.289  0.00  0.00    +0.034 A 
ATOM      7  C   UNL     1       0.552  -4.719  -1.275  0.00  0.00    +0.023 A 
ATOM      8  C   UNL     1       0.469  -6.098  -1.282  0.00  0.00    +0.002 A 
ATOM      9  C   UNL     1       1.064  -6.823  -2.298  0.00  0.00    +0.005 A 
ATOM     10  C   UNL     1       1.745  -6.171  -3.309  0.00  0.00    -0.029 A 
ATOM     11  C   UNL     1       1.827  -4.792  -3.311  0.00  0.00    +0.028 A 
BRANCH   6  14
ATOM     12  C   UNL     1       1.300  -1.985  -3.448  0.00  0.00    +0.217 C 
ATOM     13  O   UNL     1       1.289  -2.585  -4.502  0.00  0.00    -0.275 OA
ATOM     14  N   UNL     1       1.322  -2.665  -2.285  0.00  0.00    -0.285 N 
ATOM     15  H   UNL     1       1.398  -2.186  -1.445  0.00  0.00    +0.155 HD
BRANCH  12  16
ATOM     16  C   UNL     1       1.288  -0.478  -3.440  0.00  0.00    +0.096 C 
BRANCH  16  18
ATOM     17  C   UNL     1       1.251   1.570  -4.871  0.00  0.00    +0.004 C 
ATOM     18  C   UNL     1       1.263   0.040  -4.880  0.00  0.00    +0.006 C 
ENDBRANCH  16  18
ENDBRANCH  12  16
ENDBRANCH   6  14
ENDBRANCH   5  10
ENDBRANCH   1   5
BRANCH   2  19
ATOM     19  C   UNL     1       0.815  -8.022  -7.738  0.00  0.00    +0.163 C 
BRANCH  19  20
ATOM     20  N   UNL     1       1.445  -8.794  -8.812  0.00  0.00    -0.288 N 
ATOM     21  C   UNL     1       0.684  -9.510  -9.663  0.00  0.00    +0.298 C 
ATOM     22  O   UNL     1      -0.526  -9.516  -9.538  0.00  0.00    -0.253 OA
ATOM     23  N   UNL     1       1.263 -10.221 -10.651  0.00  0.00    -0.313 N 
ATOM     24  H   UNL     1       2.410  -8.789  -8.911  0.00  0.00    +0.151 HD
ATOM     25  H   UNL     1       2.228 -10.216 -10.750  0.00  0.00    +0.146 HD
ATOM     26  H   UNL     1       0.715 -10.736 -11.263  0.00  0.00    +0.146 HD
ENDBRANCH  19  20
BRANCH  19  27
ATOM     27  C   UNL     1       0.388  -6.655  -8.276  0.00  0.00    +0.015 C 
ATOM     28  C   UNL     1      -0.702  -6.841  -9.333  0.00  0.00    +0.010 C 
BRANCH  27  29
ATOM     29  C   UNL     1       1.594  -5.954  -8.905  0.00  0.00    +0.002 C 
ATOM     30  C   UNL     1       1.197  -4.539  -9.330  0.00  0.00    +0.004 C 
ENDBRANCH  27  29
ENDBRANCH  19  27
ENDBRANCH   2  19
TORSDOF 9
