REMARK  Name = ZINC12658414
REMARK  14 active torsions:
REMARK  status: ('A' for Active; 'I' for Inactive)
REMARK    1  A    between atoms: C_1  and  N_69
REMARK    2  A    between atoms: C_2  and  N_69
REMARK    3  A    between atoms: C_8  and  O_35
REMARK    4  A    between atoms: C_9  and  O_33
REMARK    5  A    between atoms: C_10  and  O_31
REMARK    6  A    between atoms: C_17  and  N_20
REMARK    7  A    between atoms: N_20  and  C_21
REMARK    8  A    between atoms: C_21  and  C_22
REMARK    9  A    between atoms: C_22  and  C_23
REMARK   10  A    between atoms: C_28  and  O_29
REMARK   11  A    between atoms: O_29  and  C_30
REMARK   12  A    between atoms: O_31  and  C_32
REMARK   13  A    between atoms: O_33  and  C_34
REMARK   14  A    between atoms: O_35  and  C_36
REMARK                            x       y       z     vdW  Elec       q    Type
REMARK                         _______ _______ _______ _____ _____    ______ ____
ROOT
ATOM      1  C   UNL     1      -0.926   1.974  -8.274  0.00  0.00    -0.040 C 
ATOM      2  C   UNL     1      -1.855   1.014  -8.989  0.00  0.00    -0.007 C 
ATOM      3  C   UNL     1      -3.251   1.040  -8.374  0.00  0.00    +0.035 C 
ATOM      4  C   UNL     1      -3.669   2.467  -8.125  0.00  0.00    -0.033 A 
ATOM      5  C   UNL     1      -4.585   3.076  -8.957  0.00  0.00    +0.054 A 
ATOM      6  C   UNL     1      -4.987   4.382  -8.711  0.00  0.00    +0.165 A 
ATOM      7  C   UNL     1      -4.470   5.085  -7.628  0.00  0.00    +0.204 A 
ATOM      8  C   UNL     1      -3.542   4.480  -6.790  0.00  0.00    +0.173 A 
ATOM      9  C   UNL     1      -3.140   3.166  -7.045  0.00  0.00    +0.031 A 
ATOM     10  C   UNL     1      -2.135   2.513  -6.153  0.00  0.00    -0.012 A 
ATOM     11  C   UNL     1      -1.062   1.870  -6.769  0.00  0.00    -0.050 A 
ATOM     12  C   UNL     1      -0.115   1.157  -6.133  0.00  0.00    +0.055 A 
ATOM     13  C   UNL     1       0.116   0.887  -4.816  0.00  0.00    +0.200 A 
ATOM     14  O   UNL     1       1.062   0.146  -4.584  0.00  0.00    -0.286 OA
ATOM     15  C   UNL     1      -0.586   1.338  -3.700  0.00  0.00    +0.074 A 
ATOM     16  C   UNL     1      -1.703   2.118  -3.733  0.00  0.00    +0.027 A 
ATOM     17  C   UNL     1      -2.361   2.601  -4.803  0.00  0.00    +0.011 A 
ENDROOT
BRANCH   1  19
ATOM     18  C   UNL     1       0.778   2.213  -9.977  0.00  0.00    -0.100 C 
ATOM     19  N   UNL     1       0.468   1.664  -8.644  0.00  0.00    +0.382 N 
ATOM     20  H   UNL     1       1.103   2.077  -7.951  0.00  0.00    -0.085 HD
ATOM     21  H   UNL     1       0.595   0.645  -8.660  0.00  0.00    -0.085 HD
ENDBRANCH   1  19
BRANCH  15  22
ATOM     22  N   UNL     1      -0.105   0.969  -2.455  0.00  0.00    -0.341 N 
ATOM     23  H   UNL     1       0.688   0.415  -2.386  0.00  0.00    +0.146 HD
BRANCH  22  24
ATOM     24  C   UNL     1      -0.794   1.416  -1.242  0.00  0.00    +0.106 C 
BRANCH  24  25
ATOM     25  C   UNL     1      -0.065   0.874  -0.012  0.00  0.00    +0.057 C 
BRANCH  25  26
ATOM     26  C   UNL     1      -0.774   1.333   1.236  0.00  0.00    -0.004 A 
ATOM     27  C   UNL     1      -0.348   2.471   1.894  0.00  0.00    +0.007 A 
ATOM     28  C   UNL     1      -0.998   2.893   3.038  0.00  0.00    +0.000 A 
ATOM     29  C   UNL     1      -2.076   2.179   3.528  0.00  0.00    +0.004 A 
ATOM     30  C   UNL     1      -2.506   1.041   2.874  0.00  0.00    +0.046 A 
ATOM     31  C   UNL     1      -1.858   0.618   1.722  0.00  0.00    +0.123 A 
BRANCH  31  32
ATOM     32  O   UNL     1      -2.283  -0.498   1.073  0.00  0.00    -0.495 OA
ATOM     33  C   UNL     1      -3.405  -1.185   1.630  0.00  0.00    +0.277 C 
ENDBRANCH  31  32
ENDBRANCH  25  26
ENDBRANCH  24  25
ENDBRANCH  22  24
ENDBRANCH  15  22
BRANCH   8  34
ATOM     34  O   UNL     1      -3.031   5.160  -5.730  0.00  0.00    -0.491 OA
ATOM     35  C   UNL     1      -1.841   5.916  -5.958  0.00  0.00    +0.277 C 
ENDBRANCH   8  34
BRANCH   7  36
ATOM     36  O   UNL     1      -4.872   6.363  -7.390  0.00  0.00    -0.488 OA
ATOM     37  C   UNL     1      -6.009   6.538  -6.543  0.00  0.00    +0.277 C 
ENDBRANCH   7  36
BRANCH   6  38
ATOM     38  O   UNL     1      -5.891   4.978  -9.534  0.00  0.00    -0.491 OA
ATOM     39  C   UNL     1      -6.383   4.201 -10.628  0.00  0.00    +0.277 C 
ENDBRANCH   6  38
TORSDOF 9
