REMARK  Name = ZINC56956110
REMARK  10 active torsions:
REMARK  status: ('A' for Active; 'I' for Inactive)
REMARK    1  A    between atoms: C_1  and  C_2
REMARK    2  A    between atoms: C_17  and  C_37
REMARK    3  A    between atoms: C_19  and  O_35
REMARK    4  A    between atoms: C_22  and  C_34
REMARK    5  A    between atoms: C_23  and  C_24
REMARK    6  A    between atoms: C_23  and  O_33
REMARK    7  A    between atoms: C_24  and  C_26
REMARK    8  A    between atoms: C_26  and  C_28
REMARK    9  A    between atoms: C_26  and  O_32
REMARK   10  A    between atoms: C_28  and  C_29
REMARK                            x       y       z     vdW  Elec       q    Type
REMARK                         _______ _______ _______ _____ _____    ______ ____
ROOT
ATOM      1  C   UNL     1       0.276   1.636  -0.139  0.00  0.00    +0.011 C 
ATOM      2  C   UNL     1       0.227   0.108  -0.082  0.00  0.00    +0.026 C 
ATOM      3  C   UNL     1       0.909  -0.487  -1.339  0.00  0.00    +0.011 C 
ATOM      4  C   UNL     1       2.287  -0.952  -0.846  0.00  0.00    +0.005 C 
ATOM      5  C   UNL     1       2.967  -1.975  -1.707  0.00  0.00    +0.034 C 
ATOM      6  C   UNL     1       3.283  -1.490  -3.121  0.00  0.00    +0.011 C 
ATOM      7  C   UNL     1       1.996  -1.149  -3.860  0.00  0.00    +0.032 C 
ATOM      8  C   UNL     1       0.948  -2.206  -3.657  0.00  0.00    -0.053 C 
ATOM      9  C   UNL     1      -0.156  -2.126  -4.436  0.00  0.00    +0.051 C 
ATOM     10  C   UNL     1      -1.199  -3.158  -4.206  0.00  0.00    +0.179 C 
ATOM     11  O   UNL     1      -1.860  -3.635  -5.112  0.00  0.00    -0.288 OA
ATOM     12  C   UNL     1      -1.381  -3.561  -2.787  0.00  0.00    +0.047 C 
ATOM     13  C   UNL     1      -0.259  -3.641  -2.037  0.00  0.00    -0.009 C 
ATOM     14  C   UNL     1       1.055  -3.329  -2.681  0.00  0.00    +0.044 C 
ATOM     15  C   UNL     1       2.248  -3.315  -1.774  0.00  0.00    +0.153 C 
ATOM     16  C   UNL     1       2.002  -3.824  -0.361  0.00  0.00    +0.154 C 
ATOM     17  C   UNL     1       1.232  -2.808   0.474  0.00  0.00    +0.044 C 
ATOM     18  C   UNL     1       1.986  -1.484   0.577  0.00  0.00    +0.010 C 
ATOM     19  C   UNL     1       1.026  -0.402   1.131  0.00  0.00    +0.134 C 
ATOM     20  C   UNL     1       3.257  -1.598   1.421  0.00  0.00    +0.015 C 
ATOM     21  F   UNL     1       3.177  -4.217  -2.355  0.00  0.00    -0.238 F 
ATOM     22  C   UNL     1       1.329  -4.555  -3.574  0.00  0.00    +0.023 C 
ENDROOT
BRANCH  19  23
ATOM     23  C   UNL     1       0.099  -0.954   2.178  0.00  0.00    +0.194 C 
ATOM     24  O   UNL     1      -0.997  -1.351   1.865  0.00  0.00    -0.292 OA
BRANCH  23  25
ATOM     25  C   UNL     1       0.538  -1.012   3.618  0.00  0.00    +0.194 C 
BRANCH  25  26
ATOM     26  O   UNL     1      -0.217  -2.010   4.307  0.00  0.00    -0.384 OA
ATOM     27  H   UNL     1      -1.171  -1.852   4.306  0.00  0.00    +0.210 HD
ENDBRANCH  25  26
BRANCH  25  28
ATOM     28  C   UNL     1       0.306   0.349   4.277  0.00  0.00    +0.164 C 
BRANCH  28  29
ATOM     29  C   UNL     1       0.863   0.331   5.677  0.00  0.00    +0.359 C 
ATOM     30  O   UNL     1       1.397  -0.677   6.108  0.00  0.00    -0.246 OA
ATOM     31  O   UNL     1       0.780   1.325   6.379  0.00  0.00    -0.246 OA
ENDBRANCH  28  29
ENDBRANCH  25  28
ENDBRANCH  23  25
ENDBRANCH  19  23
BRANCH  19  32
ATOM     32  O   UNL     1       1.789   0.677   1.688  0.00  0.00    -0.380 OA
ATOM     33  H   UNL     1       1.250   1.397   2.044  0.00  0.00    +0.211 HD
ENDBRANCH  19  32
BRANCH  16  34
ATOM     34  O   UNL     1       1.333  -5.084  -0.370  0.00  0.00    -0.389 OA
ATOM     35  H   UNL     1       1.157  -5.442   0.511  0.00  0.00    +0.210 HD
ENDBRANCH  16  34
TORSDOF 7
