REMARK  Name = ZINC37055359
REMARK  4 active torsions:
REMARK  status: ('A' for Active; 'I' for Inactive)
REMARK    1  A    between atoms: C_2  and  N_22
REMARK    2  A    between atoms: C_5  and  S_8
REMARK    3  A    between atoms: S_8  and  N_11
REMARK    4  A    between atoms: C_15  and  C_18
REMARK                            x       y       z     vdW  Elec       q    Type
REMARK                         _______ _______ _______ _____ _____    ______ ____
ROOT
ATOM      1  S   UNL     1       1.229  -2.443  -0.024  0.00  0.00    +0.064 S 
ATOM      2  O   UNL     1      -0.017  -2.860  -0.565  0.00  0.00    -0.153 OA
ATOM      3  O   UNL     1       2.474  -2.831  -0.589  0.00  0.00    -0.153 OA
ENDROOT
BRANCH   1   8
ATOM      4  C   UNL     1      -0.017   1.378   0.010  0.00  0.00    +0.044 A 
ATOM      5  C   UNL     1       1.177   2.088   0.002  0.00  0.00    +0.027 A 
ATOM      6  C   UNL     1       2.387   1.406  -0.013  0.00  0.00    +0.044 A 
ATOM      7  C   UNL     1       2.400   0.023  -0.021  0.00  0.00    +0.070 A 
ATOM      8  C   UNL     1       1.209  -0.681  -0.014  0.00  0.00    +0.142 A 
ATOM      9  C   UNL     1       0.002  -0.004   0.002  0.00  0.00    +0.070 A 
ATOM     10 CL   UNL     1      -1.490  -0.892   0.011  0.00  0.00    -0.081 Cl
ATOM     11 CL   UNL     1       3.912  -0.830  -0.040  0.00  0.00    -0.081 Cl
BRANCH   5  12
ATOM     12  N   UNL     1       1.161   3.484   0.009  0.00  0.00    -0.358 N 
ATOM     13  H   UNL     1       0.316   3.959   0.019  0.00  0.00    +0.142 HD
ATOM     14  H   UNL     1       1.996   3.979   0.004  0.00  0.00    +0.142 HD
ENDBRANCH   5  12
ENDBRANCH   1   8
BRANCH   1  15
ATOM     15  N   UNL     1       1.250  -2.941   1.555  0.00  0.00    -0.176 NA
ATOM     16  C   UNL     1       2.523  -3.146   2.259  0.00  0.00    +0.109 C 
ATOM     17  C   UNL     1       2.536  -4.558   2.853  0.00  0.00    +0.018 C 
ATOM     18  C   UNL     1       1.296  -4.750   3.729  0.00  0.00    +0.015 C 
ATOM     19  C   UNL     1       0.036  -4.598   2.873  0.00  0.00    +0.090 C 
ATOM     20  C   UNL     1      -0.005  -3.181   2.281  0.00  0.00    +0.122 C 
BRANCH  19  21
ATOM     21  C   UNL     1      -1.184  -4.820   3.730  0.00  0.00    +0.215 C 
ATOM     22  O   UNL     1      -2.008  -3.938   3.852  0.00  0.00    -0.276 OA
ATOM     23  N   UNL     1      -1.360  -5.998   4.360  0.00  0.00    -0.329 N 
ATOM     24  H   UNL     1      -0.701  -6.703   4.263  0.00  0.00    +0.145 HD
ATOM     25  H   UNL     1      -2.145  -6.141   4.911  0.00  0.00    +0.145 HD
ENDBRANCH  19  21
ENDBRANCH   1  15
TORSDOF 4
