REMARK  Name = ZINC49320570
REMARK  3 active torsions:
REMARK  status: ('A' for Active; 'I' for Inactive)
REMARK    1  A    between atoms: C_3  and  C_9
REMARK    2  A    between atoms: C_9  and  N_10
REMARK    3  A    between atoms: C_14  and  N_17
REMARK                            x       y       z     vdW  Elec       q    Type
REMARK                         _______ _______ _______ _____ _____    ______ ____
ROOT
ATOM      1  N   UNL     1       4.287   2.122   1.305  0.00  0.00    -0.325 N 
ATOM      2  C   UNL     1       5.497   2.764   1.541  0.00  0.00    +0.119 A 
ATOM      3  C   UNL     1       6.115   3.471   0.514  0.00  0.00    +0.046 A 
ATOM      4  C   UNL     1       7.318   4.106   0.763  0.00  0.00    +0.037 A 
ATOM      5  C   UNL     1       7.865   4.013   2.036  0.00  0.00    +0.144 A 
ATOM      6  C   UNL     1       7.198   3.295   3.008  0.00  0.00    +0.145 A 
ATOM      7  N   UNL     1       6.049   2.703   2.744  0.00  0.00    -0.238 NA
ATOM      8  H   UNL     1       3.851   1.631   2.019  0.00  0.00    +0.148 HD
ENDROOT
BRANCH   5   9
ATOM      9  N   UNL     1       9.151   4.676   2.347  0.00  0.00    +0.058 N 
ATOM     10  O   UNL     1       9.731   5.303   1.491  0.00  0.00    -0.126 OA
ATOM     11  O   UNL     1       9.622   4.591   3.458  0.00  0.00    -0.126 OA
ENDBRANCH   5   9
BRANCH   1  12
ATOM     12  C   UNL     1       3.671   2.185  -0.023  0.00  0.00    +0.139 C 
BRANCH  12  15
ATOM     13  C   UNL     1      -0.017   1.379   0.010  0.00  0.00    +0.016 A 
ATOM     14  C   UNL     1       1.171   2.087   0.002  0.00  0.00    +0.008 A 
ATOM     15  C   UNL     1       2.377   1.413  -0.013  0.00  0.00    -0.012 A 
ATOM     16  C   UNL     1       2.397   0.029  -0.021  0.00  0.00    +0.047 A 
ATOM     17  C   UNL     1       1.209  -0.679  -0.013  0.00  0.00    +0.035 A 
ATOM     18  C   UNL     1       0.002  -0.004   0.002  0.00  0.00    +0.019 A 
ATOM     19 BR   UNL     1      -1.623  -0.972   0.013  0.00  0.00    -0.050 Br
ATOM     20 CL   UNL     1       3.913  -0.817  -0.041  0.00  0.00    -0.083 Cl
ENDBRANCH  12  15
ENDBRANCH   1  12
TORSDOF 3
