REMARK  Name = ZINC54410098
REMARK  7 active torsions:
REMARK  status: ('A' for Active; 'I' for Inactive)
REMARK    1  A    between atoms: C_1  and  C_2
REMARK    2  A    between atoms: C_5  and  C_7
REMARK    3  A    between atoms: C_7  and  C_9
REMARK    4  A    between atoms: C_7  and  N_10
REMARK    5  A    between atoms: N_13  and  C_14
REMARK    6  A    between atoms: C_19  and  C_20
REMARK    7  A    between atoms: C_20  and  C_21
REMARK                            x       y       z     vdW  Elec       q    Type
REMARK                         _______ _______ _______ _____ _____    ______ ____
ROOT
ATOM      1  N   UNL     1       2.200  -4.144   0.868  0.00  0.00    -0.292 N 
ATOM      2  C   UNL     1       2.550  -5.327   1.409  0.00  0.00    +0.304 C 
ATOM      3  O   UNL     1       1.896  -6.323   1.168  0.00  0.00    -0.252 OA
ATOM      4  N   UNL     1       3.626  -5.407   2.217  0.00  0.00    -0.269 N 
ATOM      5  H   UNL     1       2.723  -3.349   1.061  0.00  0.00    +0.151 HD
ATOM      6  H   UNL     1       4.195  -4.632   2.345  0.00  0.00    +0.156 HD
ENDROOT
BRANCH   4   7
ATOM      7  C   UNL     1       3.922  -6.608   2.872  0.00  0.00    +0.038 A 
ATOM      8  C   UNL     1       2.913  -7.527   3.129  0.00  0.00    +0.023 A 
ATOM      9  C   UNL     1       3.208  -8.712   3.775  0.00  0.00    +0.002 A 
ATOM     10  C   UNL     1       4.506  -8.983   4.167  0.00  0.00    +0.000 A 
ATOM     11  C   UNL     1       5.513  -8.069   3.913  0.00  0.00    +0.006 A 
ATOM     12  C   UNL     1       5.225  -6.886   3.262  0.00  0.00    -0.017 A 
BRANCH  12  13
ATOM     13  C   UNL     1       6.324  -5.893   2.981  0.00  0.00    +0.132 C 
BRANCH  13  14
ATOM     14  C   UNL     1       6.367  -4.866   4.082  0.00  0.00    +0.215 C 
ATOM     15  O   UNL     1       5.582  -4.933   5.005  0.00  0.00    -0.276 OA
ATOM     16  N   UNL     1       7.277  -3.873   4.042  0.00  0.00    -0.329 N 
ATOM     17  H   UNL     1       7.904  -3.819   3.304  0.00  0.00    +0.145 HD
ATOM     18  H   UNL     1       7.305  -3.211   4.751  0.00  0.00    +0.145 HD
ENDBRANCH  13  14
ENDBRANCH  12  13
ENDBRANCH   4   7
BRANCH   1  19
ATOM     19  C   UNL     1       1.031  -4.057  -0.010  0.00  0.00    +0.108 C 
ATOM     20  C   UNL     1       1.439  -4.423  -1.439  0.00  0.00    +0.033 C 
BRANCH  19  25
ATOM     21  C   UNL     1      -0.058   1.502   0.074  0.00  0.00    +0.051 C 
ATOM     22  C   UNL     1      -0.030  -0.005   0.053  0.00  0.00    -0.013 A 
ATOM     23  C   UNL     1      -1.067  -0.878   0.049  0.00  0.00    +0.011 A 
ATOM     24  C   UNL     1      -0.801  -2.234   0.028  0.00  0.00    +0.013 A 
ATOM     25  C   UNL     1       0.489  -2.651   0.013  0.00  0.00    +0.010 A 
ATOM     26  S   UNL     1       1.377  -1.103   0.021  0.00  0.00    -0.097 S 
ENDBRANCH  19  25
ENDBRANCH   1  19
TORSDOF 5
