REMARK  Name = ZINC23594444
REMARK  15 active torsions:
REMARK  status: ('A' for Active; 'I' for Inactive)
REMARK    1  A    between atoms: C_1  and  C_2
REMARK    2  A    between atoms: C_5  and  N_8
REMARK    3  A    between atoms: C_9  and  C_34
REMARK    4  A    between atoms: C_10  and  N_14
REMARK    5  A    between atoms: C_11  and  C_13
REMARK    6  A    between atoms: C_15  and  C_17
REMARK    7  A    between atoms: C_17  and  O_18
REMARK    8  A    between atoms: O_18  and  C_19
REMARK    9  A    between atoms: C_19  and  C_21
REMARK   10  A    between atoms: C_23  and  O_32
REMARK   11  A    between atoms: C_24  and  O_28
REMARK   12  A    between atoms: O_28  and  C_29
REMARK   13  A    between atoms: C_29  and  C_30
REMARK   14  A    between atoms: C_29  and  C_31
REMARK   15  A    between atoms: O_32  and  C_33
REMARK                            x       y       z     vdW  Elec       q    Type
REMARK                         _______ _______ _______ _____ _____    ______ ____
ROOT
ATOM      1  N   UNL     1       9.918  -4.375  -0.170  0.00  0.00    -0.280 N 
ATOM      2  C   UNL     1       8.655  -3.906  -0.142  0.00  0.00    +0.255 C 
ATOM      3  O   UNL     1       7.754  -4.561  -0.622  0.00  0.00    -0.272 OA
ATOM      4  H   UNL     1      10.748  -3.741   0.175  0.00  0.00    +0.155 HD
ENDROOT
BRANCH   1   7
ATOM      5  N   UNL     1      11.155  -7.411  -1.557  0.00  0.00    -0.235 N 
ATOM      6  C   UNL     1      11.307  -6.091  -1.266  0.00  0.00    +0.063 A 
ATOM      7  C   UNL     1      10.175  -5.676  -0.641  0.00  0.00    +0.078 A 
ATOM      8  C   UNL     1       9.310  -6.776  -0.544  0.00  0.00    +0.082 A 
ATOM      9  N   UNL     1       9.893  -7.810  -1.096  0.00  0.00    -0.170 NA
ATOM     10  C   UNL     1       7.940  -6.769   0.084  0.00  0.00    +0.069 C 
ATOM     11  C   UNL     1      12.513  -5.243  -1.579  0.00  0.00    +0.068 C 
BRANCH   5  16
ATOM     12  C   UNL     1      14.954 -10.716  -4.174  0.00  0.00    +0.044 C 
ATOM     13  C   UNL     1      13.945  -9.839  -3.479  0.00  0.00    -0.050 A 
ATOM     14  C   UNL     1      14.361  -8.942  -2.512  0.00  0.00    +0.005 A 
ATOM     15  C   UNL     1      13.438  -8.136  -1.873  0.00  0.00    +0.028 A 
ATOM     16  C   UNL     1      12.093  -8.228  -2.203  0.00  0.00    +0.066 A 
ATOM     17  C   UNL     1      11.678  -9.133  -3.170  0.00  0.00    +0.028 A 
ATOM     18  C   UNL     1      12.606  -9.932  -3.810  0.00  0.00    +0.005 A 
ENDBRANCH   5  16
ENDBRANCH   1   7
BRANCH   2  19
ATOM     19  C   UNL     1       8.361  -2.568   0.487  0.00  0.00    +0.328 C 
BRANCH  19  20
ATOM     20  O   UNL     1       6.939  -2.291   0.392  0.00  0.00    -0.452 OA
BRANCH  20  21
ATOM     21  C   UNL     1       6.508  -1.124   0.911  0.00  0.00    +0.340 C 
ATOM     22  O   UNL     1       7.298  -0.360   1.429  0.00  0.00    -0.245 OA
BRANCH  21  23
ATOM     23  C   UNL     1       5.076  -0.775   0.851  0.00  0.00    +0.064 A 
ATOM     24  C   UNL     1       4.627   0.435   1.389  0.00  0.00    +0.064 A 
ATOM     25  C   UNL     1       3.286   0.758   1.331  0.00  0.00    +0.164 A 
ATOM     26  C   UNL     1       2.382  -0.122   0.737  0.00  0.00    +0.180 A 
ATOM     27  C   UNL     1       2.827  -1.327   0.207  0.00  0.00    +0.087 A 
ATOM     28  C   UNL     1       4.166  -1.653   0.257  0.00  0.00    +0.039 A 
ATOM     29 CL   UNL     1       1.696  -2.422  -0.525  0.00  0.00    -0.080 Cl
BRANCH  25  30
ATOM     30  O   UNL     1       2.846   1.934   1.853  0.00  0.00    -0.491 OA
ATOM     31  C   UNL     1       3.827   2.787   2.446  0.00  0.00    +0.277 C 
ENDBRANCH  25  30
BRANCH  26  32
ATOM     32  O   UNL     1       1.063   0.197   0.680  0.00  0.00    -0.484 OA
BRANCH  32  33
ATOM     33  C   UNL     1       0.619   0.918  -0.470  0.00  0.00    +0.168 C 
ATOM     34  C   UNL     1       0.733   2.421  -0.206  0.00  0.00    +0.051 C 
ATOM     35  C   UNL     1      -0.840   0.561  -0.764  0.00  0.00    +0.051 C 
ENDBRANCH  32  33
ENDBRANCH  26  32
ENDBRANCH  21  23
ENDBRANCH  20  21
ENDBRANCH  19  20
ENDBRANCH   2  19
TORSDOF 9
