REMARK  Name = ZINC12705586
REMARK  9 active torsions:
REMARK  status: ('A' for Active; 'I' for Inactive)
REMARK    1  A    between atoms: C_1  and  C_2
REMARK    2  A    between atoms: C_5  and  C_7
REMARK    3  A    between atoms: C_7  and  C_9
REMARK    4  A    between atoms: C_7  and  N_18
REMARK    5  A    between atoms: N_11  and  C_12
REMARK    6  A    between atoms: N_18  and  C_19
REMARK    7  A    between atoms: C_25  and  C_27
REMARK    8  A    between atoms: C_27  and  N_28
REMARK    9  A    between atoms: C_30  and  C_33
REMARK                            x       y       z     vdW  Elec       q    Type
REMARK                         _______ _______ _______ _____ _____    ______ ____
ROOT
ATOM      1  N   UNL     1      -4.899   2.026   2.614  0.00  0.00    -0.251 N 
ATOM      2  C   UNL     1      -5.548   1.299   3.544  0.00  0.00    +0.244 C 
ATOM      3  O   UNL     1      -5.142   1.276   4.687  0.00  0.00    -0.273 OA
ENDROOT
BRANCH   1   4
ATOM      4  C   UNL     1      -5.359   2.044   1.292  0.00  0.00    +0.038 A 
ATOM      5  C   UNL     1      -5.032   3.102   0.455  0.00  0.00    +0.023 A 
ATOM      6  C   UNL     1      -5.484   3.114  -0.850  0.00  0.00    +0.002 A 
ATOM      7  C   UNL     1      -6.270   2.078  -1.320  0.00  0.00    +0.000 A 
ATOM      8  C   UNL     1      -6.602   1.025  -0.487  0.00  0.00    +0.002 A 
ATOM      9  C   UNL     1      -6.149   1.005   0.817  0.00  0.00    +0.023 A 
ENDBRANCH   1   4
BRANCH   1  10
ATOM     10  C   UNL     1      -3.711   2.799   2.985  0.00  0.00    +0.233 C 
BRANCH  10  15
ATOM     11  C   UNL     1      -0.924   1.152  -0.883  0.00  0.00    +0.086 C 
ATOM     12  C   UNL     1      -1.317   1.606   0.499  0.00  0.00    +0.102 A 
ATOM     13  C   UNL     1      -0.494   1.703   1.559  0.00  0.00    +0.045 A 
ATOM     14  C   UNL     1      -1.276   2.164   2.643  0.00  0.00    +0.047 A 
ATOM     15  C   UNL     1      -2.529   2.322   2.182  0.00  0.00    +0.135 A 
ATOM     16  O   UNL     1      -2.547   1.988   0.881  0.00  0.00    -0.462 OA
ENDBRANCH  10  15
BRANCH  10  17
ATOM     17  C   UNL     1      -3.953   4.260   2.703  0.00  0.00    +0.242 C 
ATOM     18  O   UNL     1      -5.014   4.620   2.237  0.00  0.00    -0.273 OA
ATOM     19  N   UNL     1      -2.991   5.166   2.969  0.00  0.00    -0.311 N 
ATOM     20  H   UNL     1      -2.143   4.878   3.341  0.00  0.00    +0.149 HD
BRANCH  19  21
ATOM     21  C   UNL     1      -3.227   6.586   2.694  0.00  0.00    +0.073 C 
ATOM     22  C   UNL     1      -2.899   6.883   1.230  0.00  0.00    +0.022 C 
ATOM     23  C   UNL     1      -3.145   8.366   0.943  0.00  0.00    +0.002 C 
ATOM     24  C   UNL     1      -2.251   9.216   1.849  0.00  0.00    +0.000 C 
ATOM     25  C   UNL     1      -2.579   8.918   3.313  0.00  0.00    +0.002 C 
ATOM     26  C   UNL     1      -2.333   7.435   3.600  0.00  0.00    +0.022 C 
ENDBRANCH  19  21
ENDBRANCH  10  17
ENDBRANCH   1  10
BRANCH   2  27
ATOM     27  C   UNL     1      -6.777   0.515   3.165  0.00  0.00    +0.264 C 
BRANCH  27  28
ATOM     28  N   UNL     1      -7.645   0.370   4.336  0.00  0.00    -0.154 N 
ATOM     29  N   UNL     1      -7.598  -0.601   5.183  0.00  0.00    -0.130 NA
ATOM     30  C   UNL     1      -8.525  -0.385   6.095  0.00  0.00    +0.205 A 
ATOM     31  N   UNL     1      -9.140   0.756   5.755  0.00  0.00    -0.108 NA
ATOM     32  N   UNL     1      -8.578   1.189   4.678  0.00  0.00    -0.045 NA
BRANCH  30  33
ATOM     33  C   UNL     1      -8.832  -1.243   7.267  0.00  0.00    +0.023 A 
ATOM     34  C   UNL     1      -8.106  -2.411   7.487  0.00  0.00    +0.014 A 
ATOM     35  C   UNL     1      -8.391  -3.203   8.581  0.00  0.00    +0.039 A 
ATOM     36  C   UNL     1      -9.406  -2.844   9.453  0.00  0.00    +0.123 A 
ATOM     37  C   UNL     1     -10.134  -1.686   9.234  0.00  0.00    +0.039 A 
ATOM     38  C   UNL     1      -9.852  -0.885   8.146  0.00  0.00    +0.014 A 
ATOM     39  F   UNL     1      -9.686  -3.624  10.519  0.00  0.00    -0.205 F 
ENDBRANCH  30  33
ENDBRANCH  27  28
ENDBRANCH   2  27
TORSDOF 8
