REMARK  Name = ZINC20190521
REMARK  14 active torsions:
REMARK  status: ('A' for Active; 'I' for Inactive)
REMARK    1  A    between atoms: C_1  and  C_2
REMARK    2  A    between atoms: C_2  and  S_3
REMARK    3  A    between atoms: S_3  and  C_4
REMARK    4  A    between atoms: C_4  and  C_5
REMARK    5  A    between atoms: C_5  and  O_6
REMARK    6  A    between atoms: O_6  and  C_7
REMARK    7  A    between atoms: C_7  and  C_9
REMARK    8  A    between atoms: C_10  and  C_38
REMARK    9  A    between atoms: C_14  and  C_16
REMARK   10  A    between atoms: C_19  and  C_22
REMARK   11  A    between atoms: C_28  and  C_34
REMARK   12  A    between atoms: C_30  and  C_33
REMARK   13  A    between atoms: C_34  and  O_36
REMARK   14  A    between atoms: O_36  and  C_37
REMARK                            x       y       z     vdW  Elec       q    Type
REMARK                         _______ _______ _______ _____ _____    ______ ____
ROOT
ATOM      1  C   UNL     1       4.587  -0.293   1.222  0.00  0.00    +0.065 C 
ATOM      2  C   UNL     1       5.575   0.604   1.058  0.00  0.00    +0.016 C 
ATOM      3  N   UNL     1       5.840   1.124  -0.177  0.00  0.00    -0.321 N 
ATOM      4  C   UNL     1       5.411   0.485  -1.310  0.00  0.00    +0.016 C 
ATOM      5  C   UNL     1       4.409  -0.417  -1.248  0.00  0.00    +0.025 C 
ATOM      6  C   UNL     1       3.743  -0.742   0.065  0.00  0.00    +0.092 C 
ATOM      7  C   UNL     1       3.956  -1.077  -2.404  0.00  0.00    +0.176 C 
ATOM      8  O   UNL     1       3.061  -1.895  -2.312  0.00  0.00    -0.291 OA
ATOM      9  C   UNL     1       4.558  -0.790  -3.752  0.00  0.00    +0.171 C 
ATOM     10  C   UNL     1       5.084   0.649  -3.766  0.00  0.00    +0.013 C 
ATOM     11  C   UNL     1       6.085   0.811  -2.619  0.00  0.00    +0.055 C 
ATOM     12  C   UNL     1       3.920   1.624  -3.580  0.00  0.00    +0.009 C 
ATOM     13  C   UNL     1       6.396   1.038   2.245  0.00  0.00    +0.061 C 
ATOM     14  H   UNL     1       6.403   2.065  -0.269  0.00  0.00    +0.152 HD
ENDROOT
BRANCH   6  15
ATOM     15  C   UNL     1       2.408  -0.047   0.128  0.00  0.00    -0.035 A 
ATOM     16  C   UNL     1       1.247  -0.790   0.236  0.00  0.00    +0.005 A 
ATOM     17  C   UNL     1       0.021  -0.153   0.293  0.00  0.00    +0.012 A 
ATOM     18  C   UNL     1      -0.043   1.227   0.245  0.00  0.00    +0.055 A 
ATOM     19  C   UNL     1       1.118   1.970   0.139  0.00  0.00    +0.012 A 
ATOM     20  C   UNL     1       2.343   1.333   0.080  0.00  0.00    +0.005 A 
BRANCH  18  21
ATOM     21  C   UNL     1      -1.380   1.921   0.302  0.00  0.00    +0.417 C 
ATOM     22  F   UNL     1      -1.711   2.186   1.635  0.00  0.00    -0.166 F 
ATOM     23  F   UNL     1      -1.311   3.124  -0.409  0.00  0.00    -0.166 F 
ATOM     24  F   UNL     1      -2.357   1.099  -0.267  0.00  0.00    -0.166 F 
ENDBRANCH  18  21
ENDBRANCH   6  15
BRANCH   1  25
ATOM     25  C   UNL     1       4.338  -0.823   2.510  0.00  0.00    +0.338 C 
ATOM     26  O   UNL     1       5.079  -0.548   3.435  0.00  0.00    -0.245 OA
BRANCH  25  27
ATOM     27  O   UNL     1       3.277  -1.633   2.712  0.00  0.00    -0.460 OA
BRANCH  27  28
ATOM     28  C   UNL     1       3.086  -2.132   4.037  0.00  0.00    +0.243 C 
BRANCH  28  29
ATOM     29  C   UNL     1       1.844  -3.026   4.071  0.00  0.00    +0.110 C 
BRANCH  29  30
ATOM     30  S   UNL     1       1.601  -3.659   5.753  0.00  0.00    -0.158 S 
BRANCH  30  32
ATOM     31  C   UNL     1      -0.212  -5.290   6.992  0.00  0.00    +0.015 C 
ATOM     32  C   UNL     1       0.111  -4.686   5.624  0.00  0.00    +0.066 C 
ENDBRANCH  30  32
ENDBRANCH  29  30
ENDBRANCH  28  29
ENDBRANCH  27  28
ENDBRANCH  25  27
ENDBRANCH   1  25
BRANCH   9  33
ATOM     33  C   UNL     1       3.507  -0.953  -4.820  0.00  0.00    +0.318 C 
ATOM     34  O   UNL     1       3.214  -0.018  -5.527  0.00  0.00    -0.250 OA
BRANCH  33  35
ATOM     35  O   UNL     1       2.896  -2.137  -4.985  0.00  0.00    -0.467 OA
ATOM     36  C   UNL     1       1.894  -2.221  -6.032  0.00  0.00    +0.280 C 
ENDBRANCH  33  35
ENDBRANCH   9  33
TORSDOF 10
