REMARK  Name = ZINC14932300
REMARK  8 active torsions:
REMARK  status: ('A' for Active; 'I' for Inactive)
REMARK    1  A    between atoms: C_1  and  C_2
REMARK    2  A    between atoms: C_2  and  C_4
REMARK    3  A    between atoms: C_2  and  N_11
REMARK    4  A    between atoms: N_11  and  C_12
REMARK    5  A    between atoms: C_12  and  C_14
REMARK    6  A    between atoms: C_12  and  C_15
REMARK    7  A    between atoms: N_17  and  C_18
REMARK    8  A    between atoms: C_19  and  C_26
REMARK                            x       y       z     vdW  Elec       q    Type
REMARK                         _______ _______ _______ _____ _____    ______ ____
ROOT
ATOM      1  C   UNL     1      -3.428  -0.492  -1.289  0.00  0.00    +0.234 C 
ATOM      2  O   UNL     1      -3.988  -0.391  -0.218  0.00  0.00    -0.274 OA
ATOM      3  N   UNL     1      -4.151  -0.531  -2.426  0.00  0.00    -0.278 N 
ATOM      4  H   UNL     1      -3.703  -0.612  -3.283  0.00  0.00    +0.155 HD
ENDROOT
BRANCH   3   5
ATOM      5  C   UNL     1      -5.534  -0.454  -2.371  0.00  0.00    +0.084 A 
ATOM      6  C   UNL     1      -6.430  -0.483  -3.424  0.00  0.00    +0.068 A 
ATOM      7  C   UNL     1      -7.851  -0.386  -3.097  0.00  0.00    -0.023 A 
ATOM      8  C   UNL     1      -8.105  -0.277  -1.781  0.00  0.00    -0.004 A 
ATOM      9  S   UNL     1      -6.506  -0.312  -1.012  0.00  0.00    -0.077 S 
ATOM     10  C   UNL     1      -9.580  -0.175  -1.501  0.00  0.00    +0.043 C 
ATOM     11  C   UNL     1     -10.211   0.195  -2.861  0.00  0.00    +0.010 C 
ATOM     12  C   UNL     1      -9.178  -0.376  -3.854  0.00  0.00    +0.037 C 
BRANCH   6  13
ATOM     13  C   UNL     1      -5.972  -0.607  -4.812  0.00  0.00    +0.244 C 
ATOM     14  O   UNL     1      -5.837  -1.708  -5.312  0.00  0.00    -0.270 OA
ATOM     15  N   UNL     1      -5.702   0.499  -5.533  0.00  0.00    -0.325 N 
ATOM     16  H   UNL     1      -5.809   1.377  -5.134  0.00  0.00    +0.145 HD
ATOM     17  H   UNL     1      -5.399   0.417  -6.451  0.00  0.00    +0.145 HD
ENDBRANCH   6  13
ENDBRANCH   3   5
BRANCH   1  18
ATOM     18  C   UNL     1      -1.924  -0.575  -1.349  0.00  0.00    +0.138 C 
ATOM     19  C   UNL     1      -1.512  -1.895  -2.005  0.00  0.00    +0.034 C 
BRANCH  18  20
ATOM     20  N   UNL     1      -1.376  -0.512   0.012  0.00  0.00    -0.299 NA
ATOM     21  H   UNL     1      -1.426  -1.413   0.464  0.00  0.00    +0.123 HD
BRANCH  20  23
ATOM     22  C   UNL     1      -0.019   1.526   0.010  0.00  0.00    +0.029 C 
ATOM     23  C   UNL     1       0.002  -0.004   0.002  0.00  0.00    +0.083 C 
BRANCH  23  24
ATOM     24  C   UNL     1       0.731  -0.503   1.223  0.00  0.00    -0.012 A 
ATOM     25  C   UNL     1       0.018  -0.951   2.319  0.00  0.00    +0.006 A 
ATOM     26  C   UNL     1       0.686  -1.409   3.439  0.00  0.00    +0.000 A 
ATOM     27  C   UNL     1       2.068  -1.419   3.463  0.00  0.00    +0.001 A 
ATOM     28  C   UNL     1       2.783  -0.972   2.368  0.00  0.00    +0.020 A 
ATOM     29  C   UNL     1       2.114  -0.519   1.245  0.00  0.00    +0.046 A 
ATOM     30 CL   UNL     1       3.011   0.037  -0.134  0.00  0.00    -0.083 Cl
ENDBRANCH  23  24
ENDBRANCH  20  23
ENDBRANCH  18  20
ENDBRANCH   1  18
TORSDOF 6
