REMARK  Name = ZINC27917167
REMARK  7 active torsions:
REMARK  status: ('A' for Active; 'I' for Inactive)
REMARK    1  A    between atoms: C_1  and  C_2
REMARK    2  A    between atoms: C_2  and  C_3
REMARK    3  A    between atoms: C_4  and  C_25
REMARK    4  A    between atoms: C_6  and  N_11
REMARK    5  A    between atoms: C_7  and  C_8
REMARK    6  A    between atoms: C_12  and  C_14
REMARK    7  A    between atoms: C_14  and  C_15
REMARK                            x       y       z     vdW  Elec       q    Type
REMARK                         _______ _______ _______ _____ _____    ______ ____
ROOT
ATOM      1  N   UNL     1      -1.210   3.359  -2.461  0.00  0.00    -0.279 N 
ATOM      2  C   UNL     1      -1.222   4.232  -3.488  0.00  0.00    +0.222 C 
ATOM      3  O   UNL     1      -1.238   5.425  -3.270  0.00  0.00    -0.275 OA
ATOM      4  H   UNL     1      -1.195   2.277  -2.658  0.00  0.00    +0.155 HD
ENDROOT
BRANCH   1   8
ATOM      5  C   UNL     1      -1.212   3.840   1.258  0.00  0.00    -0.024 A 
ATOM      6  C   UNL     1      -1.230   5.182   1.160  0.00  0.00    -0.008 A 
ATOM      7  S   UNL     1      -1.242   5.465  -0.598  0.00  0.00    -0.078 S 
ATOM      8  C   UNL     1      -1.217   3.825  -1.155  0.00  0.00    +0.084 A 
ATOM      9  C   UNL     1      -1.207   3.090   0.025  0.00  0.00    +0.068 A 
ATOM     10  C   UNL     1      -1.239   6.200   2.271  0.00  0.00    +0.052 C 
BRANCH   9  11
ATOM     11  C   UNL     1      -1.187   1.624   0.017  0.00  0.00    +0.244 C 
ATOM     12  O   UNL     1      -2.233   1.001   0.018  0.00  0.00    -0.270 OA
ATOM     13  N   UNL     1      -0.011   0.966   0.007  0.00  0.00    -0.325 N 
ATOM     14  H   UNL     1       0.004  -0.134   0.001  0.00  0.00    +0.145 HD
ATOM     15  H   UNL     1       0.934   1.529   0.006  0.00  0.00    +0.145 HD
ENDBRANCH   9  11
BRANCH   5  17
ATOM     16  C   UNL     1       0.251   2.936   3.044  0.00  0.00    +0.009 C 
ATOM     17  C   UNL     1      -1.196   3.150   2.597  0.00  0.00    +0.033 C 
ENDBRANCH   5  17
ENDBRANCH   1   8
BRANCH   2  18
ATOM     18  C   UNL     1      -1.214   3.725  -4.907  0.00  0.00    +0.133 C 
BRANCH  18  19
ATOM     19  C   UNL     1      -1.230   4.894  -5.858  0.00  0.00    -0.014 A 
ATOM     20  C   UNL     1      -2.312   5.436  -6.439  0.00  0.00    +0.087 A 
ATOM     21  N   UNL     1      -1.938   6.483  -7.237  0.00  0.00    -0.360 N 
ATOM     22  H   UNL     1      -2.699   7.053  -7.790  0.00  0.00    +0.165 HD
ATOM     23  C   UNL     1      -0.570   6.639  -7.193  0.00  0.00    +0.047 A 
ATOM     24  C   UNL     1      -0.067   5.651  -6.328  0.00  0.00    +0.003 A 
ATOM     25  C   UNL     1       1.306   5.568  -6.088  0.00  0.00    +0.010 A 
ATOM     26  C   UNL     1       2.155   6.449  -6.697  0.00  0.00    +0.001 A 
ATOM     27  C   UNL     1       1.664   7.425  -7.552  0.00  0.00    +0.002 A 
ATOM     28  C   UNL     1       0.312   7.525  -7.802  0.00  0.00    +0.026 A 
ENDBRANCH  18  19
ENDBRANCH   2  18
TORSDOF 5
