REMARK  Name = ZINC14913971
REMARK  12 active torsions:
REMARK  status: ('A' for Active; 'I' for Inactive)
REMARK    1  A    between atoms: C_1  and  C_2
REMARK    2  A    between atoms: C_2  and  C_3
REMARK    3  A    between atoms: C_3  and  C_4
REMARK    4  A    between atoms: C_7  and  C_10
REMARK    5  A    between atoms: C_11  and  C_30
REMARK    6  A    between atoms: C_16  and  C_18
REMARK    7  A    between atoms: C_21  and  O_28
REMARK    8  A    between atoms: C_22  and  O_26
REMARK    9  A    between atoms: C_23  and  O_24
REMARK   10  A    between atoms: O_24  and  C_25
REMARK   11  A    between atoms: O_26  and  C_27
REMARK   12  A    between atoms: O_28  and  C_29
REMARK                            x       y       z     vdW  Elec       q    Type
REMARK                         _______ _______ _______ _____ _____    ______ ____
ROOT
ATOM      1  C   UNL     1       0.944   0.333   7.061  0.00  0.00    +0.083 A 
ATOM      2  C   UNL     1       0.921   1.686   6.868  0.00  0.00    +0.016 A 
ATOM      3  S   UNL     1       0.703   1.764   5.095  0.00  0.00    -0.057 S 
ATOM      4  C   UNL     1       0.655   0.002   4.798  0.00  0.00    +0.165 A 
ATOM      5  N   UNL     1       0.810  -0.474   6.019  0.00  0.00    -0.224 NA
ATOM      6  N   UNL     1       0.502  -0.683   3.600  0.00  0.00    -0.261 N 
ATOM      7  C   UNL     1       0.356  -0.000   2.447  0.00  0.00    +0.253 C 
ATOM      8  O   UNL     1       0.358   1.216   2.456  0.00  0.00    -0.270 OA
ATOM      9  C   UNL     1       1.050   2.803   7.872  0.00  0.00    +0.054 C 
ATOM     10  H   UNL     1       0.501  -1.653   3.593  0.00  0.00    +0.157 HD
ENDROOT
BRANCH   1  14
ATOM     11  C   UNL     1       1.438  -1.270  10.968  0.00  0.00    -0.047 A 
ATOM     12  C   UNL     1       0.628  -1.919  10.055  0.00  0.00    +0.004 A 
ATOM     13  C   UNL     1       0.464  -1.404   8.785  0.00  0.00    +0.010 A 
ATOM     14  C   UNL     1       1.116  -0.226   8.424  0.00  0.00    +0.001 A 
ATOM     15  C   UNL     1       1.936   0.421   9.347  0.00  0.00    +0.010 A 
ATOM     16  C   UNL     1       2.088  -0.101  10.616  0.00  0.00    +0.004 A 
BRANCH  11  17
ATOM     17  C   UNL     1       1.613  -1.837  12.353  0.00  0.00    +0.035 C 
BRANCH  17  19
ATOM     18  C   UNL     1       2.982  -3.374  13.770  0.00  0.00    +0.004 C 
ATOM     19  C   UNL     1       2.804  -2.797  12.364  0.00  0.00    +0.001 C 
ENDBRANCH  17  19
ENDBRANCH  11  17
ENDBRANCH   1  14
BRANCH   7  20
ATOM     20  C   UNL     1       0.194  -0.727   1.177  0.00  0.00    +0.083 A 
ATOM     21  C   UNL     1       0.192  -2.126   1.164  0.00  0.00    +0.020 A 
ATOM     22  C   UNL     1       0.040  -2.803  -0.025  0.00  0.00    +0.050 A 
ATOM     23  C   UNL     1      -0.111  -2.103  -1.217  0.00  0.00    +0.165 A 
ATOM     24  C   UNL     1      -0.115  -0.713  -1.216  0.00  0.00    +0.204 A 
ATOM     25  C   UNL     1       0.042  -0.019  -0.024  0.00  0.00    +0.177 A 
BRANCH  25  26
ATOM     26  O   UNL     1       0.043   1.338  -0.020  0.00  0.00    -0.491 OA
ATOM     27  C   UNL     1       1.284   1.987  -0.305  0.00  0.00    +0.277 C 
ENDBRANCH  25  26
BRANCH  24  28
ATOM     28  O   UNL     1      -0.269  -0.032  -2.385  0.00  0.00    -0.488 OA
ATOM     29  C   UNL     1      -1.597   0.359  -2.738  0.00  0.00    +0.277 C 
ENDBRANCH  24  28
BRANCH  23  30
ATOM     30  O   UNL     1      -0.259  -2.780  -2.385  0.00  0.00    -0.491 OA
ATOM     31  C   UNL     1      -0.251  -4.207  -2.313  0.00  0.00    +0.277 C 
ENDBRANCH  23  30
ENDBRANCH   7  20
TORSDOF 7
