REMARK  Name = ZINC48969432
REMARK  6 active torsions:
REMARK  status: ('A' for Active; 'I' for Inactive)
REMARK    1  A    between atoms: C_3  and  N_11
REMARK    2  A    between atoms: C_4  and  C_8
REMARK    3  A    between atoms: C_6  and  N_7
REMARK    4  A    between atoms: N_11  and  C_12
REMARK    5  A    between atoms: N_11  and  C_18
REMARK    6  A    between atoms: C_12  and  C_13
REMARK                            x       y       z     vdW  Elec       q    Type
REMARK                         _______ _______ _______ _____ _____    ______ ____
ROOT
ATOM      1  C   UNL     1      -0.279   2.053   0.468  0.00  0.00    +0.024 A 
ATOM      2  C   UNL     1       1.017   2.518   0.389  0.00  0.00    +0.026 A 
ATOM      3  C   UNL     1       2.068   1.629   0.210  0.00  0.00    +0.043 A 
ATOM      4  C   UNL     1       1.808   0.253   0.110  0.00  0.00    +0.059 A 
ATOM      5  C   UNL     1       0.492  -0.209   0.191  0.00  0.00    +0.037 A 
ATOM      6  C   UNL     1      -0.544   0.691   0.369  0.00  0.00    +0.025 A 
ENDROOT
BRANCH   4   7
ATOM      7  C   UNL     1       2.918  -0.699  -0.080  0.00  0.00    +0.243 C 
ATOM      8  O   UNL     1       4.062  -0.293  -0.150  0.00  0.00    -0.270 OA
ATOM      9  N   UNL     1       2.664  -2.019  -0.176  0.00  0.00    -0.325 N 
ATOM     10  H   UNL     1       1.751  -2.343  -0.119  0.00  0.00    +0.145 HD
ATOM     11  H   UNL     1       3.394  -2.645  -0.301  0.00  0.00    +0.145 HD
ENDBRANCH   4   7
BRANCH   6  12
ATOM     12  N   UNL     1      -1.863   0.229   0.451  0.00  0.00    -0.358 N 
ATOM     13  H   UNL     1      -2.591   0.858   0.576  0.00  0.00    +0.142 HD
ATOM     14  H   UNL     1      -2.050  -0.721   0.382  0.00  0.00    +0.142 HD
ENDBRANCH   6  12
BRANCH   3  15
ATOM     15  N   UNL     1       3.375   2.099   0.130  0.00  0.00    -0.322 N 
BRANCH  15  16
ATOM     16  C   UNL     1       3.946   2.461  -1.170  0.00  0.00    +0.074 C 
ATOM     17  C   UNL     1       5.407   2.913  -1.199  0.00  0.00    +0.024 C 
ATOM     18  C   UNL     1       4.286   3.933  -1.407  0.00  0.00    +0.024 C 
ENDBRANCH  15  16
BRANCH  15  19
ATOM     19  C   UNL     1       4.181   2.234   1.347  0.00  0.00    +0.141 C 
BRANCH  19  20
ATOM     20  C   UNL     1       3.979   3.607   1.933  0.00  0.00    -0.023 A 
ATOM     21  C   UNL     1       4.862   4.630   1.644  0.00  0.00    +0.013 A 
ATOM     22  C   UNL     1       4.652   5.854   2.189  0.00  0.00    +0.045 A 
ATOM     23  S   UNL     1       3.169   5.583   3.144  0.00  0.00    -0.105 S 
ATOM     24  C   UNL     1       2.926   3.859   2.749  0.00  0.00    +0.050 A 
ENDBRANCH  19  20
ENDBRANCH  15  19
ENDBRANCH   3  15
TORSDOF 6
