REMARK  Name = ZINC23517033
REMARK  7 active torsions:
REMARK  status: ('A' for Active; 'I' for Inactive)
REMARK    1  A    between atoms: C_7  and  C_11
REMARK    2  A    between atoms: C_14  and  S_23
REMARK    3  A    between atoms: N_15  and  C_16
REMARK    4  A    between atoms: C_16  and  C_17
REMARK    5  A    between atoms: S_23  and  C_24
REMARK    6  A    between atoms: C_24  and  C_25
REMARK    7  A    between atoms: N_27  and  C_28
REMARK                            x       y       z     vdW  Elec       q    Type
REMARK                         _______ _______ _______ _____ _____    ______ ____
ROOT
ATOM      1  C   UNL     1      -2.672   1.284   0.088  0.00  0.00    +0.167 A 
ATOM      2  N   UNL     1      -3.769   1.998   0.196  0.00  0.00    -0.128 NA
ATOM      3  N   UNL     1      -4.799   1.232   0.140  0.00  0.00    -0.122 NA
ATOM      4  C   UNL     1      -4.425  -0.018   0.001  0.00  0.00    +0.192 A 
ATOM      5  N   UNL     1      -3.057  -0.030  -0.037  0.00  0.00    -0.300 N 
ENDROOT
BRANCH   1  12
ATOM      6  C   UNL     1      -0.516   4.579   2.612  0.00  0.00    +0.001 A 
ATOM      7  C   UNL     1       0.820   4.725   2.269  0.00  0.00    +0.002 A 
ATOM      8  C   UNL     1       1.382   3.943   1.284  0.00  0.00    +0.026 A 
ATOM      9  C   UNL     1       0.603   2.998   0.624  0.00  0.00    +0.047 A 
ATOM     10  C   UNL     1      -0.750   2.855   0.975  0.00  0.00    +0.010 A 
ATOM     11  C   UNL     1      -1.299   3.656   1.975  0.00  0.00    +0.011 A 
ATOM     12  C   UNL     1      -1.286   1.796   0.104  0.00  0.00    +0.044 A 
ATOM     13  C   UNL     1      -0.259   1.378  -0.679  0.00  0.00    +0.095 A 
ATOM     14  N   UNL     1       0.867   2.090  -0.379  0.00  0.00    -0.360 N 
ATOM     15  H   UNL     1       1.877   2.026  -0.811  0.00  0.00    +0.165 HD
ENDBRANCH   1  12
BRANCH   5  16
ATOM     16  C   UNL     1      -2.185  -1.199  -0.182  0.00  0.00    +0.157 C 
BRANCH  16  17
ATOM     17  C   UNL     1      -1.940  -1.825   1.192  0.00  0.00    +0.138 C 
ATOM     18  C   UNL     1      -0.927  -2.983   1.067  0.00  0.00    +0.035 C 
ATOM     19  C   UNL     1      -1.511  -4.038   2.048  0.00  0.00    +0.031 C 
ATOM     20  C   UNL     1      -3.031  -3.790   1.877  0.00  0.00    +0.160 C 
ATOM     21  O   UNL     1      -3.162  -2.370   1.703  0.00  0.00    -0.375 OA
ENDBRANCH  16  17
ENDBRANCH   5  16
BRANCH   4  22
ATOM     22  S   UNL     1      -5.486  -1.420  -0.115  0.00  0.00    -0.077 S 
BRANCH  22  23
ATOM     23  C   UNL     1      -7.097  -0.606   0.012  0.00  0.00    +0.173 C 
BRANCH  23  24
ATOM     24  C   UNL     1      -8.190  -1.641  -0.065  0.00  0.00    +0.228 C 
ATOM     25  O   UNL     1      -7.907  -2.813  -0.194  0.00  0.00    -0.275 OA
ATOM     26  N   UNL     1      -9.482  -1.263   0.009  0.00  0.00    -0.283 N 
ATOM     27  H   UNL     1      -9.742  -0.195   0.030  0.00  0.00    +0.155 HD
BRANCH  26  28
ATOM     28  C   UNL     1     -10.490  -2.229   0.058  0.00  0.00    +0.062 A 
ATOM     29  C   UNL     1     -10.217  -3.475   0.533  0.00  0.00    +0.025 A 
ATOM     30  C   UNL     1     -11.201  -4.460   0.597  0.00  0.00    +0.004 A 
ATOM     31  C   UNL     1     -12.471  -4.223   0.188  0.00  0.00    +0.031 A 
ATOM     32  C   UNL     1     -12.831  -2.947  -0.320  0.00  0.00    +0.102 A 
ATOM     33  C   UNL     1     -11.806  -1.909  -0.383  0.00  0.00    +0.121 A 
ATOM     34  N   UNL     1     -12.278  -0.770  -0.883  0.00  0.00    -0.189 NA
ATOM     35  S   UNL     1     -13.793  -1.024  -1.196  0.00  0.00    +0.117 S 
ATOM     36  N   UNL     1     -14.008  -2.515  -0.768  0.00  0.00    -0.191 NA
ENDBRANCH  26  28
ENDBRANCH  23  24
ENDBRANCH  22  23
ENDBRANCH   4  22
TORSDOF 7
