REMARK  Name = ZINC04305696
REMARK  10 active torsions:
REMARK  status: ('A' for Active; 'I' for Inactive)
REMARK    1  A    between atoms: C_1  and  C_2
REMARK    2  A    between atoms: C_2  and  C_3
REMARK    3  A    between atoms: C_2  and  C_4
REMARK    4  A    between atoms: C_7  and  N_10
REMARK    5  A    between atoms: N_10  and  C_11
REMARK    6  A    between atoms: C_11  and  N_13
REMARK    7  A    between atoms: N_13  and  N_14
REMARK    8  A    between atoms: N_14  and  C_15
REMARK    9  A    between atoms: C_15  and  N_17
REMARK   10  A    between atoms: N_17  and  C_18
REMARK                            x       y       z     vdW  Elec       q    Type
REMARK                         _______ _______ _______ _____ _____    ______ ____
ROOT
ATOM      1  N   UNL     1       3.492   5.918  -0.203  0.00  0.00    -0.246 N 
ATOM      2  H   UNL     1       3.478   6.885  -0.271  0.00  0.00    +0.172 HD
ENDROOT
BRANCH   1   3
ATOM      3  C   UNL     1       2.336   5.233  -0.094  0.00  0.00    +0.151 C 
ATOM      4  S   UNL     1       0.843   6.071  -0.077  0.00  0.00    -0.017 S 
BRANCH   3   5
ATOM      5  N   UNL     1       2.355   3.889   0.001  0.00  0.00    -0.296 N 
ATOM      6  H   UNL     1       3.201   3.420   0.072  0.00  0.00    +0.154 HD
BRANCH   5  10
ATOM      7  C   UNL     1      -1.220   1.750  -0.010  0.00  0.00    -0.045 A 
ATOM      8  C   UNL     1      -1.047   2.809  -0.883  0.00  0.00    +0.006 A 
ATOM      9  C   UNL     1       0.137   3.521  -0.881  0.00  0.00    +0.023 A 
ATOM     10  C   UNL     1       1.155   3.170  -0.004  0.00  0.00    +0.033 A 
ATOM     11  C   UNL     1       0.980   2.103   0.868  0.00  0.00    +0.023 A 
ATOM     12  C   UNL     1      -0.206   1.395   0.861  0.00  0.00    +0.006 A 
BRANCH   7  14
ATOM     13  C   UNL     1      -2.234  -0.488  -0.341  0.00  0.00    +0.012 C 
ATOM     14  C   UNL     1      -2.515   0.979  -0.011  0.00  0.00    +0.013 C 
ATOM     15  C   UNL     1      -3.167   1.076   1.370  0.00  0.00    +0.012 C 
ENDBRANCH   7  14
ENDBRANCH   5  10
ENDBRANCH   3   5
ENDBRANCH   1   3
BRANCH   1  16
ATOM     16  N   UNL     1       4.713   5.232  -0.217  0.00  0.00    -0.247 N 
ATOM     17  H   UNL     1       4.727   4.264  -0.149  0.00  0.00    +0.172 HD
BRANCH  16  18
ATOM     18  C   UNL     1       5.869   5.917  -0.325  0.00  0.00    +0.147 C 
ATOM     19  S   UNL     1       7.362   5.079  -0.343  0.00  0.00    -0.017 S 
BRANCH  18  20
ATOM     20  N   UNL     1       5.850   7.261  -0.420  0.00  0.00    -0.322 N 
ATOM     21  H   UNL     1       5.004   7.736  -0.410  0.00  0.00    +0.148 HD
BRANCH  20  22
ATOM     22  C   UNL     1       7.106   8.005  -0.538  0.00  0.00    +0.075 C 
ATOM     23  C   UNL     1       7.646   8.377   0.862  0.00  0.00    +0.026 C 
ATOM     24  C   UNL     1       7.677   9.936   0.871  0.00  0.00    -0.009 C 
ATOM     25  C   UNL     1       8.832  10.309  -0.108  0.00  0.00    +0.004 C 
ATOM     26  C   UNL     1       8.293   9.937  -1.508  0.00  0.00    +0.005 C 
ATOM     27  C   UNL     1       6.862   9.374  -1.243  0.00  0.00    +0.010 C 
ATOM     28  C   UNL     1       6.426  10.257  -0.021  0.00  0.00    +0.009 C 
ENDBRANCH  20  22
ENDBRANCH  18  20
ENDBRANCH  16  18
ENDBRANCH   1  16
TORSDOF 8
