REMARK  Name = ZINC36735722
REMARK  15 active torsions:
REMARK  status: ('A' for Active; 'I' for Inactive)
REMARK    1  A    between atoms: C_1  and  C_2
REMARK    2  A    between atoms: C_3  and  C_8
REMARK    3  A    between atoms: C_4  and  C_7
REMARK    4  A    between atoms: C_8  and  O_9
REMARK    5  A    between atoms: O_9  and  C_10
REMARK    6  A    between atoms: C_13  and  C_18
REMARK    7  A    between atoms: C_15  and  O_16
REMARK    8  A    between atoms: O_16  and  C_17
REMARK    9  A    between atoms: C_19  and  C_20
REMARK   10  A    between atoms: N_22  and  C_23
REMARK   11  A    between atoms: C_23  and  C_24
REMARK   12  A    between atoms: C_24  and  C_26
REMARK   13  A    between atoms: C_24  and  N_33
REMARK   14  A    between atoms: N_33  and  C_34
REMARK   15  A    between atoms: N_33  and  C_35
REMARK                            x       y       z     vdW  Elec       q    Type
REMARK                         _______ _______ _______ _____ _____    ______ ____
ROOT
ATOM      1  C   UNL     1       2.682   2.675  -8.586  0.00  0.00    +0.013 C 
ATOM      2  C   UNL     1       1.502   2.727  -9.241  0.00  0.00    +0.068 C 
ENDROOT
BRANCH   1   6
ATOM      3  C   UNL     1       2.745   2.070  -4.385  0.00  0.00    +0.162 A 
ATOM      4  C   UNL     1       1.533   2.123  -5.060  0.00  0.00    +0.050 A 
ATOM      5  C   UNL     1       1.507   2.320  -6.423  0.00  0.00    +0.012 A 
ATOM      6  C   UNL     1       2.706   2.466  -7.131  0.00  0.00    -0.021 A 
ATOM      7  C   UNL     1       3.927   2.412  -6.450  0.00  0.00    +0.057 A 
ATOM      8  C   UNL     1       3.943   2.220  -5.083  0.00  0.00    +0.162 A 
BRANCH   8   9
ATOM      9  O   UNL     1       5.128   2.172  -4.417  0.00  0.00    -0.491 OA
ATOM     10  C   UNL     1       6.316   2.333  -5.194  0.00  0.00    +0.277 C 
ENDBRANCH   8   9
BRANCH   3  11
ATOM     11  O   UNL     1       2.764   1.876  -3.041  0.00  0.00    -0.484 OA
BRANCH  11  12
ATOM     12  C   UNL     1       1.501   1.729  -2.389  0.00  0.00    +0.270 C 
BRANCH  12  15
ATOM     13  C   UNL     1       1.666   4.018  -0.194  0.00  0.00    +0.069 C 
ATOM     14  C   UNL     1       1.792   2.538   0.060  0.00  0.00    +0.087 A 
ATOM     15  C   UNL     1       1.718   1.524  -0.912  0.00  0.00    +0.054 A 
ATOM     16  C   UNL     1       1.877   0.339  -0.293  0.00  0.00    +0.141 A 
ATOM     17  O   UNL     1       2.044   0.574   1.017  0.00  0.00    -0.359 OA
ATOM     18  N   UNL     1       1.992   1.974   1.218  0.00  0.00    -0.083 NA
ATOM     19  C   UNL     1       1.867  -1.015  -0.956  0.00  0.00    +0.089 C 
ENDBRANCH  12  15
ENDBRANCH  11  12
ENDBRANCH   3  11
ENDBRANCH   1   6
BRANCH   2  20
ATOM     20  C   UNL     1       1.478   2.935 -10.688  0.00  0.00    +0.237 C 
ATOM     21  O   UNL     1       2.522   3.062 -11.303  0.00  0.00    -0.271 OA
ATOM     22  N   UNL     1       0.301   2.986 -11.343  0.00  0.00    -0.313 N 
ATOM     23  H   UNL     1      -0.530   2.885 -10.853  0.00  0.00    +0.149 HD
BRANCH  22  24
ATOM     24  C   UNL     1       0.277   3.194 -12.792  0.00  0.00    +0.094 C 
BRANCH  24  25
ATOM     25  C   UNL     1      -1.163   3.091 -13.299  0.00  0.00    -0.020 C 
BRANCH  25  26
ATOM     26  C   UNL     1      -1.670   1.688 -13.087  0.00  0.00    -0.041 A 
ATOM     27  C   UNL     1      -2.488   1.404 -12.009  0.00  0.00    +0.003 A 
ATOM     28  C   UNL     1      -2.953   0.117 -11.814  0.00  0.00    +0.000 A 
ATOM     29  C   UNL     1      -2.602  -0.887 -12.697  0.00  0.00    +0.001 A 
ATOM     30  C   UNL     1      -1.785  -0.604 -13.776  0.00  0.00    +0.020 A 
ATOM     31  C   UNL     1      -1.323   0.685 -13.974  0.00  0.00    +0.043 A 
ATOM     32 CL   UNL     1      -0.302   1.042 -15.332  0.00  0.00    -0.083 Cl
ENDBRANCH  25  26
BRANCH  25  33
ATOM     33  N   UNL     1      -2.011   4.035 -12.559  0.00  0.00    +0.382 N 
ATOM     34  C   UNL     1      -1.441   5.386 -12.658  0.00  0.00    -0.096 C 
ATOM     35  C   UNL     1      -3.364   4.032 -13.133  0.00  0.00    -0.096 C 
ATOM     36  H   UNL     1      -2.056   3.759 -11.590  0.00  0.00    -0.082 HD
ENDBRANCH  25  33
ENDBRANCH  24  25
ENDBRANCH  22  24
ENDBRANCH   2  20
TORSDOF 10
