REMARK  Name = ZINC35853838
REMARK  8 active torsions:
REMARK  status: ('A' for Active; 'I' for Inactive)
REMARK    1  A    between atoms: C_1  and  C_2
REMARK    2  A    between atoms: C_2  and  C_4
REMARK    3  A    between atoms: C_2  and  N_10
REMARK    4  A    between atoms: C_11  and  C_13
REMARK    5  A    between atoms: C_16  and  C_18
REMARK    6  A    between atoms: C_18  and  N_19
REMARK    7  A    between atoms: N_22  and  C_25
REMARK    8  A    between atoms: C_25  and  C_26
REMARK                            x       y       z     vdW  Elec       q    Type
REMARK                         _______ _______ _______ _____ _____    ______ ____
ROOT
ATOM      1  C   UNL     1       2.325  -2.306   5.851  0.00  0.00    +0.147 C 
ENDROOT
BRANCH   1   2
ATOM      2  N   UNL     1       2.058  -3.751   5.822  0.00  0.00    -0.300 NA
ATOM      3  C   UNL     1       3.302  -4.513   5.643  0.00  0.00    +0.066 C 
ATOM      4  C   UNL     1       2.974  -6.005   5.559  0.00  0.00    -0.063 C 
ATOM      5  N   UNL     1       2.294  -6.428   6.790  0.00  0.00    +0.384 N 
ATOM      6  C   UNL     1       1.041  -5.675   6.942  0.00  0.00    -0.063 C 
ATOM      7  C   UNL     1       1.353  -4.180   7.038  0.00  0.00    +0.066 C 
ATOM      8  H   UNL     1       2.892  -6.249   7.583  0.00  0.00    -0.081 HD
BRANCH   5   9
ATOM      9  C   UNL     1       1.996  -7.864   6.716  0.00  0.00    -0.043 C 
BRANCH   9  10
ATOM     10  C   UNL     1       1.409  -8.324   8.026  0.00  0.00    -0.060 A 
ATOM     11  C   UNL     1       2.241  -8.777   9.033  0.00  0.00    +0.005 A 
ATOM     12  C   UNL     1       1.708  -9.199  10.236  0.00  0.00    +0.050 A 
ATOM     13  C   UNL     1       0.337  -9.169  10.436  0.00  0.00    +0.166 A 
ATOM     14  C   UNL     1      -0.501  -8.712   9.422  0.00  0.00    +0.166 A 
ATOM     15  C   UNL     1       0.041  -8.285   8.220  0.00  0.00    +0.051 A 
ATOM     16  O   UNL     1      -1.792  -8.779   9.859  0.00  0.00    -0.453 OA
ATOM     17  C   UNL     1      -1.767  -9.663  10.996  0.00  0.00    +0.466 C 
ATOM     18  O   UNL     1      -0.429  -9.523  11.509  0.00  0.00    -0.453 OA
ENDBRANCH   9  10
ENDBRANCH   5   9
ENDBRANCH   1   2
BRANCH   1  22
ATOM     19  C   UNL     1       2.766  -1.088   2.367  0.00  0.00    +0.133 A 
ATOM     20  C   UNL     1       4.129  -1.210   2.397  0.00  0.00    +0.080 A 
ATOM     21  S   UNL     1       4.405  -1.792   3.949  0.00  0.00    -0.078 S 
ATOM     22  C   UNL     1       2.821  -1.860   4.499  0.00  0.00    +0.093 A 
ATOM     23  N   UNL     1       2.120  -1.432   3.485  0.00  0.00    -0.238 NA
BRANCH  19  25
ATOM     24  N   UNL     1       0.711  -0.489   1.189  0.00  0.00    -0.304 N 
ATOM     25  C   UNL     1       2.054  -0.600   1.174  0.00  0.00    +0.263 C 
ATOM     26  O   UNL     1       2.678  -0.296   0.175  0.00  0.00    -0.268 OA
ATOM     27  H   UNL     1       0.213  -0.731   1.986  0.00  0.00    +0.150 HD
BRANCH  24  29
ATOM     28  C   UNL     1      -0.019   1.526   0.010  0.00  0.00    +0.033 C 
ATOM     29  C   UNL     1       0.002  -0.004   0.002  0.00  0.00    +0.100 C 
BRANCH  29  30
ATOM     30  C   UNL     1      -1.412  -0.526   0.013  0.00  0.00    -0.027 A 
ATOM     31  C   UNL     1      -2.123  -0.571   1.197  0.00  0.00    +0.005 A 
ATOM     32  C   UNL     1      -3.420  -1.049   1.207  0.00  0.00    +0.000 A 
ATOM     33  C   UNL     1      -4.006  -1.482   0.032  0.00  0.00    +0.000 A 
ATOM     34  C   UNL     1      -3.295  -1.436  -1.153  0.00  0.00    +0.000 A 
ATOM     35  C   UNL     1      -2.000  -0.954  -1.163  0.00  0.00    +0.005 A 
ENDBRANCH  29  30
ENDBRANCH  24  29
ENDBRANCH  19  25
ENDBRANCH   1  22
TORSDOF 7
