REMARK  Name = ZINC13027358
REMARK  10 active torsions:
REMARK  status: ('A' for Active; 'I' for Inactive)
REMARK    1  A    between atoms: C_4  and  C_7
REMARK    2  A    between atoms: C_7  and  N_8
REMARK    3  A    between atoms: N_8  and  C_9
REMARK    4  A    between atoms: C_9  and  C_11
REMARK    5  A    between atoms: C_9  and  C_18
REMARK    6  A    between atoms: N_20  and  C_21
REMARK    7  A    between atoms: C_27  and  C_29
REMARK    8  A    between atoms: C_29  and  C_30
REMARK    9  A    between atoms: C_30  and  C_31
REMARK   10  A    between atoms: C_31  and  C_32
REMARK                            x       y       z     vdW  Elec       q    Type
REMARK                         _______ _______ _______ _____ _____    ______ ____
ROOT
ATOM      1  N   UNL     1       4.558  12.890   1.508  0.00  0.00    -0.282 N 
ATOM      2  C   UNL     1       5.804  13.365   1.314  0.00  0.00    +0.217 C 
ATOM      3  O   UNL     1       6.644  13.234   2.178  0.00  0.00    -0.276 OA
ENDROOT
BRANCH   1   4
ATOM      4  C   UNL     1       3.502  13.184   0.536  0.00  0.00    +0.144 C 
BRANCH   4   8
ATOM      5  C   UNL     1       2.774  17.393   0.455  0.00  0.00    +0.000 A 
ATOM      6  C   UNL     1       2.610  16.641  -0.693  0.00  0.00    +0.000 A 
ATOM      7  C   UNL     1       2.846  15.279  -0.667  0.00  0.00    +0.005 A 
ATOM      8  C   UNL     1       3.245  14.669   0.507  0.00  0.00    -0.030 A 
ATOM      9  C   UNL     1       3.403  15.420   1.657  0.00  0.00    +0.005 A 
ATOM     10  C   UNL     1       3.173  16.783   1.630  0.00  0.00    +0.000 A 
ENDBRANCH   4   8
ENDBRANCH   1   4
BRANCH   1  11
ATOM     11  C   UNL     1       4.259  12.079   2.691  0.00  0.00    +0.192 C 
BRANCH  11  12
ATOM     12  C   UNL     1       4.038  10.647   2.276  0.00  0.00    -0.018 A 
ATOM     13  C   UNL     1       3.263  10.361   1.167  0.00  0.00    +0.009 A 
ATOM     14  C   UNL     1       3.063   9.049   0.783  0.00  0.00    +0.038 A 
ATOM     15  C   UNL     1       3.632   8.020   1.514  0.00  0.00    +0.123 A 
ATOM     16  C   UNL     1       4.404   8.307   2.627  0.00  0.00    +0.038 A 
ATOM     17  C   UNL     1       4.606   9.620   3.007  0.00  0.00    +0.009 A 
ATOM     18  F   UNL     1       3.434   6.736   1.142  0.00  0.00    -0.205 F 
ENDBRANCH  11  12
BRANCH  11  19
ATOM     19  C   UNL     1       3.015  12.605   3.360  0.00  0.00    +0.238 C 
ATOM     20  O   UNL     1       1.990  12.727   2.724  0.00  0.00    -0.273 OA
ATOM     21  N   UNL     1       3.043  12.942   4.665  0.00  0.00    -0.311 N 
ATOM     22  H   UNL     1       3.863  12.845   5.173  0.00  0.00    +0.149 HD
BRANCH  21  23
ATOM     23  C   UNL     1       1.834  13.454   5.315  0.00  0.00    +0.073 C 
ATOM     24  C   UNL     1       1.728  14.961   5.080  0.00  0.00    +0.022 C 
ATOM     25  C   UNL     1       0.466  15.496   5.759  0.00  0.00    +0.002 C 
ATOM     26  C   UNL     1       0.538  15.218   7.261  0.00  0.00    +0.000 C 
ATOM     27  C   UNL     1       0.644  13.710   7.497  0.00  0.00    +0.002 C 
ATOM     28  C   UNL     1       1.907  13.176   6.818  0.00  0.00    +0.022 C 
ENDBRANCH  21  23
ENDBRANCH  11  19
ENDBRANCH   1  11
BRANCH   2  29
ATOM     29  C   UNL     1       6.153  14.059   0.022  0.00  0.00    +0.096 C 
BRANCH  29  30
ATOM     30  C   UNL     1       7.657  14.337  -0.016  0.00  0.00    +0.018 C 
BRANCH  30  31
ATOM     31  C   UNL     1       8.012  15.041  -1.327  0.00  0.00    +0.096 C 
BRANCH  31  32
ATOM     32  C   UNL     1       9.493  15.315  -1.366  0.00  0.00    +0.218 C 
ATOM     33  O   UNL     1      10.196  14.980  -0.436  0.00  0.00    -0.275 OA
ATOM     34  N   UNL     1      10.037  15.933  -2.433  0.00  0.00    -0.270 N 
ATOM     35  C   UNL     1      11.421  16.078  -2.525  0.00  0.00    +0.125 A 
ATOM     36  C   UNL     1      11.982  16.623  -3.674  0.00  0.00    +0.044 A 
ATOM     37  C   UNL     1      13.356  16.761  -3.752  0.00  0.00    +0.005 A 
ATOM     38  C   UNL     1      14.125  16.348  -2.672  0.00  0.00    +0.020 A 
ATOM     39  C   UNL     1      13.501  15.811  -1.564  0.00  0.00    +0.113 A 
ATOM     40  N   UNL     1      12.188  15.695  -1.516  0.00  0.00    -0.240 NA
ATOM     41  H   UNL     1       9.466  16.276  -3.138  0.00  0.00    +0.156 HD
ENDBRANCH  31  32
ENDBRANCH  30  31
ENDBRANCH  29  30
ENDBRANCH   2  29
TORSDOF 10
