REMARK  Name = ZINC35001594
REMARK  11 active torsions:
REMARK  status: ('A' for Active; 'I' for Inactive)
REMARK    1  A    between atoms: C_1  and  C_2
REMARK    2  A    between atoms: C_2  and  N_3
REMARK    3  A    between atoms: N_6  and  C_7
REMARK    4  A    between atoms: N_6  and  C_25
REMARK    5  A    between atoms: C_7  and  C_8
REMARK    6  A    between atoms: C_10  and  N_22
REMARK    7  A    between atoms: C_13  and  S_14
REMARK    8  A    between atoms: S_14  and  C_15
REMARK    9  A    between atoms: C_18  and  C_21
REMARK   10  A    between atoms: N_28  and  C_31
REMARK   11  A    between atoms: C_31  and  C_32
REMARK                            x       y       z     vdW  Elec       q    Type
REMARK                         _______ _______ _______ _____ _____    ______ ____
ROOT
ATOM      1  N   UNL     1      -1.673  -0.330   0.330  0.00  0.00    -0.299 N 
ATOM      2  C   UNL     1      -1.721  -1.675   0.264  0.00  0.00    +0.303 C 
ATOM      3  O   UNL     1      -0.698  -2.325   0.359  0.00  0.00    -0.253 OA
ATOM      4  N   UNL     1      -2.903  -2.300   0.092  0.00  0.00    -0.278 N 
ATOM      5  H   UNL     1      -2.476   0.192   0.174  0.00  0.00    +0.150 HD
ENDROOT
BRANCH   4   6
ATOM      6  C   UNL     1      -4.122  -1.515  -0.121  0.00  0.00    +0.074 C 
ATOM      7  C   UNL     1      -4.378  -0.627   1.100  0.00  0.00    +0.004 C 
ATOM      8  C   UNL     1      -5.607   0.247   0.838  0.00  0.00    -0.077 C 
ATOM      9  N   UNL     1      -5.371   1.089  -0.341  0.00  0.00    +0.382 N 
ATOM     10  C   UNL     1      -5.196   0.244  -1.529  0.00  0.00    -0.077 C 
ATOM     11  C   UNL     1      -3.951  -0.630  -1.358  0.00  0.00    +0.004 C 
ATOM     12  H   UNL     1      -4.540   1.642  -0.197  0.00  0.00    -0.081 HD
BRANCH   9  13
ATOM     13  C   UNL     1      -6.521   1.981  -0.542  0.00  0.00    -0.043 C 
BRANCH  13  14
ATOM     14  C   UNL     1      -6.229   2.929  -1.677  0.00  0.00    -0.064 A 
ATOM     15  C   UNL     1      -5.619   4.143  -1.423  0.00  0.00    +0.002 A 
ATOM     16  C   UNL     1      -5.352   5.013  -2.464  0.00  0.00    +0.000 A 
ATOM     17  C   UNL     1      -5.693   4.668  -3.758  0.00  0.00    +0.000 A 
ATOM     18  C   UNL     1      -6.303   3.453  -4.012  0.00  0.00    +0.000 A 
ATOM     19  C   UNL     1      -6.566   2.582  -2.972  0.00  0.00    +0.002 A 
ENDBRANCH  13  14
ENDBRANCH   9  13
ENDBRANCH   4   6
BRANCH   1  21
ATOM     20  C   UNL     1      -0.628   1.858   0.650  0.00  0.00    +0.024 C 
ATOM     21  C   UNL     1      -0.409   0.344   0.635  0.00  0.00    +0.102 C 
ENDBRANCH   1  21
BRANCH   4  22
ATOM     22  C   UNL     1      -2.968  -3.763   0.119  0.00  0.00    +0.146 C 
BRANCH  22  23
ATOM     23  C   UNL     1      -3.055  -4.236   1.547  0.00  0.00    -0.014 A 
ATOM     24  C   UNL     1      -1.912  -4.630   2.215  0.00  0.00    +0.039 A 
ATOM     25  C   UNL     1      -1.990  -5.065   3.525  0.00  0.00    +0.127 A 
ATOM     26  C   UNL     1      -3.213  -5.106   4.172  0.00  0.00    +0.034 A 
ATOM     27  C   UNL     1      -4.359  -4.713   3.510  0.00  0.00    +0.017 A 
ATOM     28  C   UNL     1      -4.283  -4.271   2.195  0.00  0.00    +0.018 A 
BRANCH  25  29
ATOM     29  N   UNL     1      -0.764  -5.488   4.238  0.00  0.00    +0.056 N 
ATOM     30  O   UNL     1       0.305  -5.453   3.674  0.00  0.00    -0.126 OA
ATOM     31  O   UNL     1      -0.831  -5.868   5.383  0.00  0.00    -0.126 OA
ENDBRANCH  25  29
BRANCH  28  32
ATOM     32  S   UNL     1      -5.743  -3.761   1.349  0.00  0.00    -0.089 S 
BRANCH  32  33
ATOM     33  C   UNL     1      -7.002  -3.854   2.578  0.00  0.00    +0.013 A 
ATOM     34  C   UNL     1      -7.344  -2.724   3.312  0.00  0.00    +0.015 A 
ATOM     35  C   UNL     1      -8.331  -2.800   4.274  0.00  0.00    +0.004 A 
ATOM     36  C   UNL     1      -8.980  -3.999   4.508  0.00  0.00    -0.050 A 
ATOM     37  C   UNL     1      -8.642  -5.125   3.780  0.00  0.00    +0.004 A 
ATOM     38  C   UNL     1      -7.660  -5.055   2.813  0.00  0.00    +0.015 A 
ATOM     39  C   UNL     1     -10.056  -4.078   5.560  0.00  0.00    +0.044 C 
ENDBRANCH  32  33
ENDBRANCH  28  32
ENDBRANCH  22  23
ENDBRANCH   4  22
TORSDOF 9
