REMARK  Name = ZINC39486699
REMARK  9 active torsions:
REMARK  status: ('A' for Active; 'I' for Inactive)
REMARK    1  A    between atoms: C_1  and  C_2
REMARK    2  A    between atoms: C_2  and  C_31
REMARK    3  A    between atoms: N_4  and  S_22
REMARK    4  A    between atoms: N_7  and  C_8
REMARK    5  A    between atoms: C_8  and  C_9
REMARK    6  A    between atoms: C_9  and  C_16
REMARK    7  A    between atoms: N_12  and  O_15
REMARK    8  A    between atoms: S_22  and  C_25
REMARK    9  A    between atoms: C_31  and  C_32
REMARK                            x       y       z     vdW  Elec       q    Type
REMARK                         _______ _______ _______ _____ _____    ______ ____
ROOT
ATOM      1  C   UNL     1      -0.399   1.053   0.077  0.00  0.00    +0.034 C 
ATOM      2  C   UNL     1      -0.256  -0.438   0.388  0.00  0.00    +0.058 C 
ATOM      3  C   UNL     1      -1.563  -0.994   0.986  0.00  0.00    +0.162 C 
ATOM      4  N   UNL     1      -1.170  -1.460   2.323  0.00  0.00    -0.153 N 
ATOM      5  C   UNL     1       0.138  -1.229   2.503  0.00  0.00    +0.325 C 
ATOM      6  O   UNL     1       0.727  -1.518   3.526  0.00  0.00    -0.251 OA
ATOM      7  N   UNL     1       0.736  -0.651   1.453  0.00  0.00    -0.276 N 
ENDROOT
BRANCH   4   8
ATOM      8  S   UNL     1      -2.181  -2.160   3.432  0.00  0.00    +0.078 S 
ATOM      9  O   UNL     1      -1.596  -1.945   4.709  0.00  0.00    -0.150 OA
ATOM     10  O   UNL     1      -3.496  -1.724   3.114  0.00  0.00    -0.150 OA
BRANCH   8  11
ATOM     11  C   UNL     1      -2.144  -3.898   3.147  0.00  0.00    +0.109 A 
ATOM     12  C   UNL     1      -3.039  -4.473   2.264  0.00  0.00    +0.029 A 
ATOM     13  C   UNL     1      -3.010  -5.837   2.040  0.00  0.00    +0.002 A 
ATOM     14  C   UNL     1      -2.086  -6.626   2.699  0.00  0.00    +0.000 A 
ATOM     15  C   UNL     1      -1.190  -6.051   3.581  0.00  0.00    +0.002 A 
ATOM     16  C   UNL     1      -1.216  -4.686   3.801  0.00  0.00    +0.029 A 
ENDBRANCH   8  11
ENDBRANCH   4   8
BRANCH   7  17
ATOM     17  C   UNL     1       2.153  -0.287   1.378  0.00  0.00    +0.117 C 
BRANCH  17  18
ATOM     18  C   UNL     1       2.415   0.933   2.263  0.00  0.00    -0.008 C 
ATOM     19  C   UNL     1       3.915   1.237   2.285  0.00  0.00    +0.026 C 
ATOM     20  C   UNL     1       4.663   0.050   2.896  0.00  0.00    +0.115 C 
ATOM     21  N   UNL     1       4.174  -0.188   4.260  0.00  0.00    -0.191 NA
ATOM     22  C   UNL     1       2.745  -0.529   4.260  0.00  0.00    +0.115 C 
ATOM     23  C   UNL     1       1.940   0.641   3.690  0.00  0.00    +0.026 C 
BRANCH  18  24
ATOM     24  C   UNL     1       1.655   2.139   1.708  0.00  0.00    -0.003 C 
ATOM     25  C   UNL     1       2.285   2.574   0.384  0.00  0.00    +0.004 C 
ATOM     26  C   UNL     1       1.525   3.780  -0.171  0.00  0.00    +0.000 C 
ATOM     27  C   UNL     1       1.598   4.934   0.831  0.00  0.00    +0.000 C 
ATOM     28  C   UNL     1       0.968   4.500   2.156  0.00  0.00    +0.000 C 
ATOM     29  C   UNL     1       1.728   3.293   2.711  0.00  0.00    +0.004 C 
ENDBRANCH  18  24
BRANCH  21  30
ATOM     30  O   UNL     1       4.960  -1.227   4.926  0.00  0.00    -0.312 OA
ATOM     31  H   UNL     1       4.674  -1.419   5.829  0.00  0.00    +0.237 HD
ENDBRANCH  21  30
ENDBRANCH  17  18
ENDBRANCH   7  17
BRANCH   2  32
ATOM     32  C   UNL     1       0.135  -1.213  -0.872  0.00  0.00    +0.062 C 
BRANCH  32  33
ATOM     33  C   UNL     1      -0.921  -1.018  -1.929  0.00  0.00    -0.045 A 
ATOM     34  C   UNL     1      -1.996  -1.886  -2.001  0.00  0.00    +0.004 A 
ATOM     35  C   UNL     1      -2.964  -1.707  -2.971  0.00  0.00    +0.000 A 
ATOM     36  C   UNL     1      -2.859  -0.660  -3.868  0.00  0.00    +0.000 A 
ATOM     37  C   UNL     1      -1.786   0.208  -3.795  0.00  0.00    +0.000 A 
ATOM     38  C   UNL     1      -0.819   0.031  -2.823  0.00  0.00    +0.004 A 
ENDBRANCH  32  33
ENDBRANCH   2  32
TORSDOF 8
