REMARK  Name = ZINC51596844
REMARK  6 active torsions:
REMARK  status: ('A' for Active; 'I' for Inactive)
REMARK    1  A    between atoms: C_1  and  C_2
REMARK    2  A    between atoms: C_5  and  C_17
REMARK    3  A    between atoms: C_6  and  N_8
REMARK    4  A    between atoms: N_8  and  C_9
REMARK    5  A    between atoms: C_9  and  C_10
REMARK    6  A    between atoms: C_17  and  N_19
REMARK                            x       y       z     vdW  Elec       q    Type
REMARK                         _______ _______ _______ _____ _____    ______ ____
ROOT
ATOM      1  C   UNL     1      -0.013   1.503   0.005  0.00  0.00    +0.044 C 
ATOM      2  C   UNL     1       0.005  -0.004  -0.001  0.00  0.00    -0.049 A 
ATOM      3  C   UNL     1       0.004  -0.688  -1.206  0.00  0.00    +0.004 A 
ATOM      4  C   UNL     1       0.021  -2.066  -1.224  0.00  0.00    +0.012 A 
ATOM      5  C   UNL     1       0.038  -2.779  -0.023  0.00  0.00    +0.024 A 
ATOM      6  C   UNL     1       0.038  -2.083   1.196  0.00  0.00    +0.037 A 
ATOM      7  C   UNL     1       0.027  -0.694   1.194  0.00  0.00    +0.027 A 
ENDROOT
BRANCH   6   8
ATOM      8  N   UNL     1       0.056  -2.779   2.399  0.00  0.00    -0.339 N 
ATOM      9  H   UNL     1       0.142  -3.745   2.398  0.00  0.00    +0.146 HD
BRANCH   8  10
ATOM     10  C   UNL     1      -0.057  -2.055   3.667  0.00  0.00    +0.137 C 
BRANCH  10  11
ATOM     11  C   UNL     1      -0.012  -3.034   4.811  0.00  0.00    -0.029 A 
ATOM     12  C   UNL     1      -1.183  -3.595   5.287  0.00  0.00    +0.005 A 
ATOM     13  C   UNL     1      -1.143  -4.494   6.337  0.00  0.00    +0.001 A 
ATOM     14  C   UNL     1       0.069  -4.832   6.910  0.00  0.00    +0.015 A 
ATOM     15  C   UNL     1       1.240  -4.272   6.434  0.00  0.00    +0.018 A 
ATOM     16  C   UNL     1       1.200  -3.377   5.380  0.00  0.00    +0.020 A 
ATOM     17 BR   UNL     1       2.897  -4.735   7.219  0.00  0.00    -0.050 Br
ENDBRANCH  10  11
ENDBRANCH   8  10
ENDBRANCH   6   8
BRANCH   5  18
ATOM     18  C   UNL     1       0.055  -4.251  -0.035  0.00  0.00    +0.079 C 
ATOM     19  S   UNL     1       1.541  -5.089  -0.180  0.00  0.00    -0.035 S 
BRANCH  18  20
ATOM     20  N   UNL     1      -1.099  -4.940   0.068  0.00  0.00    -0.352 N 
ATOM     21  H   UNL     1      -1.941  -4.465   0.150  0.00  0.00    +0.143 HD
ATOM     22  H   UNL     1      -1.087  -5.910   0.060  0.00  0.00    +0.143 HD
ENDBRANCH  18  20
ENDBRANCH   5  18
TORSDOF 5
