REMARK  Name = ZINC36643473
REMARK  10 active torsions:
REMARK  status: ('A' for Active; 'I' for Inactive)
REMARK    1  A    between atoms: C_1  and  C_2
REMARK    2  A    between atoms: N_8  and  S_9
REMARK    3  A    between atoms: S_9  and  C_12
REMARK    4  A    between atoms: C_15  and  C_18
REMARK    5  A    between atoms: N_20  and  C_21
REMARK    6  A    between atoms: C_21  and  C_22
REMARK    7  A    between atoms: C_22  and  C_23
REMARK    8  A    between atoms: C_23  and  N_24
REMARK    9  A    between atoms: N_24  and  C_25
REMARK   10  A    between atoms: N_24  and  C_26
REMARK                            x       y       z     vdW  Elec       q    Type
REMARK                         _______ _______ _______ _____ _____    ______ ____
ROOT
ATOM      1  C   UNL     1      -2.340   1.496   6.992  0.00  0.00    +0.252 C 
ATOM      2  O   UNL     1      -3.104   2.440   6.938  0.00  0.00    -0.270 OA
ATOM      3  N   UNL     1      -2.241   0.773   8.125  0.00  0.00    -0.246 N 
ATOM      4  C   UNL     1      -3.102   1.019   9.181  0.00  0.00    +0.168 A 
ATOM      5  N   UNL     1      -3.100   0.495  10.384  0.00  0.00    -0.221 NA
ATOM      6  C   UNL     1      -4.011   0.832  11.324  0.00  0.00    +0.115 A 
ATOM      7  C   UNL     1      -4.120   0.345  12.649  0.00  0.00    +0.150 A 
ATOM      8  C   UNL     1      -5.114   0.797  13.481  0.00  0.00    +0.040 A 
ATOM      9  C   UNL     1      -6.041   1.739  13.058  0.00  0.00    +0.004 A 
ATOM     10  C   UNL     1      -5.963   2.235  11.770  0.00  0.00    +0.017 A 
ATOM     11  C   UNL     1      -4.972   1.790  10.930  0.00  0.00    +0.044 A 
ATOM     12  S   UNL     1      -4.495   2.138   9.254  0.00  0.00    -0.052 S 
ATOM     13  F   UNL     1      -3.237  -0.573  13.099  0.00  0.00    -0.203 F 
ENDROOT
BRANCH   1  17
ATOM     14  C   UNL     1       0.020   0.480   3.610  0.00  0.00    +0.106 A 
ATOM     15  C   UNL     1      -1.323   0.769   3.450  0.00  0.00    +0.029 A 
ATOM     16  C   UNL     1      -2.096   1.099   4.545  0.00  0.00    +0.015 A 
ATOM     17  C   UNL     1      -1.519   1.142   5.815  0.00  0.00    +0.037 A 
ATOM     18  C   UNL     1      -0.162   0.849   5.969  0.00  0.00    +0.015 A 
ATOM     19  C   UNL     1       0.597   0.515   4.867  0.00  0.00    +0.029 A 
BRANCH  14  20
ATOM     20  S   UNL     1       0.999   0.058   2.207  0.00  0.00    +0.061 S 
ATOM     21  O   UNL     1       2.357   0.192   2.604  0.00  0.00    -0.153 OA
ATOM     22  O   UNL     1       0.455   0.768   1.103  0.00  0.00    -0.153 OA
BRANCH  20  29
ATOM     23  C   UNL     1       2.516  -1.908   3.567  0.00  0.00    +0.026 C 
ATOM     24  C   UNL     1       1.475  -2.577   2.666  0.00  0.00    +0.077 C 
ATOM     25  C   UNL     1       2.176  -3.522   1.686  0.00  0.00    +0.020 C 
ATOM     26  C   UNL     1       1.148  -4.081   0.699  0.00  0.00    +0.003 C 
ATOM     27  C   UNL     1       0.527  -2.932  -0.098  0.00  0.00    +0.017 C 
ATOM     28  C   UNL     1      -0.193  -1.980   0.862  0.00  0.00    +0.110 C 
ATOM     29  N   UNL     1       0.752  -1.551   1.903  0.00  0.00    -0.174 NA
ENDBRANCH  20  29
ENDBRANCH  14  20
ENDBRANCH   1  17
BRANCH   3  30
ATOM     30  C   UNL     1      -1.223  -0.274   8.239  0.00  0.00    +0.114 C 
BRANCH  30  31
ATOM     31  C   UNL     1      -0.018   0.268   9.011  0.00  0.00    +0.001 C 
BRANCH  31  32
ATOM     32  C   UNL     1       1.106  -0.769   8.997  0.00  0.00    -0.078 C 
BRANCH  32  33
ATOM     33  N   UNL     1       2.262  -0.249   9.739  0.00  0.00    +0.376 N 
ATOM     34  C   UNL     1       3.296  -1.289   9.828  0.00  0.00    -0.097 C 
ATOM     35  C   UNL     1       2.806   0.923   9.039  0.00  0.00    -0.097 C 
ATOM     36  H   UNL     1       1.973   0.019  10.668  0.00  0.00    -0.083 HD
ENDBRANCH  32  33
ENDBRANCH  31  32
ENDBRANCH  30  31
ENDBRANCH   3  30
TORSDOF 7
