REMARK  Name = ZINC36643467
REMARK  13 active torsions:
REMARK  status: ('A' for Active; 'I' for Inactive)
REMARK    1  A    between atoms: C_1  and  N_2
REMARK    2  A    between atoms: N_2  and  C_3
REMARK    3  A    between atoms: N_2  and  C_4
REMARK    4  A    between atoms: C_4  and  C_5
REMARK    5  A    between atoms: C_5  and  C_6
REMARK    6  A    between atoms: C_6  and  N_7
REMARK    7  A    between atoms: C_18  and  C_20
REMARK    8  A    between atoms: C_23  and  S_26
REMARK    9  A    between atoms: S_26  and  N_29
REMARK   10  A    between atoms: N_29  and  C_30
REMARK   11  A    between atoms: N_29  and  C_33
REMARK   12  A    between atoms: C_30  and  C_31
REMARK   13  A    between atoms: C_33  and  C_34
REMARK                            x       y       z     vdW  Elec       q    Type
REMARK                         _______ _______ _______ _____ _____    ______ ____
ROOT
ATOM      1  N   UNL     1      -2.980  -4.008  -0.379  0.00  0.00    -0.246 N 
ATOM      2  C   UNL     1      -3.021  -4.882   0.694  0.00  0.00    +0.168 A 
ATOM      3  N   UNL     1      -3.227  -4.619   1.963  0.00  0.00    -0.221 NA
ATOM      4  C   UNL     1      -3.241  -5.582   2.911  0.00  0.00    +0.115 A 
ATOM      5  C   UNL     1      -3.450  -5.434   4.304  0.00  0.00    +0.150 A 
ATOM      6  C   UNL     1      -3.431  -6.526   5.135  0.00  0.00    +0.040 A 
ATOM      7  C   UNL     1      -3.207  -7.805   4.645  0.00  0.00    +0.004 A 
ATOM      8  C   UNL     1      -2.999  -7.985   3.290  0.00  0.00    +0.017 A 
ATOM      9  C   UNL     1      -3.017  -6.898   2.450  0.00  0.00    +0.044 A 
ATOM     10  S   UNL     1      -2.812  -6.657   0.702  0.00  0.00    -0.052 S 
ATOM     11  F   UNL     1      -3.670  -4.205   4.820  0.00  0.00    -0.203 F 
ATOM     12  C   UNL     1      -2.758  -4.477  -1.623  0.00  0.00    +0.252 C 
ATOM     13  O   UNL     1      -2.664  -5.673  -1.813  0.00  0.00    -0.270 OA
ENDROOT
BRANCH  12  14
ATOM     14  C   UNL     1      -2.629  -3.536  -2.755  0.00  0.00    +0.037 A 
ATOM     15  C   UNL     1      -2.023  -2.292  -2.568  0.00  0.00    +0.015 A 
ATOM     16  C   UNL     1      -1.906  -1.419  -3.629  0.00  0.00    +0.029 A 
ATOM     17  C   UNL     1      -2.388  -1.773  -4.877  0.00  0.00    +0.106 A 
ATOM     18  C   UNL     1      -2.989  -3.004  -5.070  0.00  0.00    +0.029 A 
ATOM     19  C   UNL     1      -3.107  -3.889  -4.018  0.00  0.00    +0.015 A 
BRANCH  17  20
ATOM     20  S   UNL     1      -2.235  -0.651  -6.227  0.00  0.00    +0.061 S 
ATOM     21  O   UNL     1      -3.251  -0.996  -7.159  0.00  0.00    -0.153 OA
ATOM     22  O   UNL     1      -2.128   0.649  -5.664  0.00  0.00    -0.153 OA
BRANCH  20  23
ATOM     23  N   UNL     1      -0.787  -0.968  -6.966  0.00  0.00    -0.169 NA
BRANCH  23  24
ATOM     24  C   UNL     1      -0.719  -1.947  -8.054  0.00  0.00    +0.136 C 
BRANCH  24  25
ATOM     25  C   UNL     1      -0.829  -1.234  -9.378  0.00  0.00    -0.018 C 
ATOM     26  C   UNL     1       0.097  -1.401 -10.290  0.00  0.00    +0.005 C 
ENDBRANCH  24  25
ENDBRANCH  23  24
BRANCH  23  27
ATOM     27  C   UNL     1       0.425  -0.270  -6.532  0.00  0.00    +0.136 C 
BRANCH  27  28
ATOM     28  C   UNL     1       1.161  -1.120  -5.528  0.00  0.00    -0.018 C 
ATOM     29  C   UNL     1       2.418  -1.431  -5.729  0.00  0.00    +0.005 C 
ENDBRANCH  27  28
ENDBRANCH  23  27
ENDBRANCH  20  23
ENDBRANCH  17  20
ENDBRANCH  12  14
BRANCH   1  30
ATOM     30  C   UNL     1      -3.178  -2.572  -0.162  0.00  0.00    +0.114 C 
BRANCH  30  31
ATOM     31  C   UNL     1      -1.926  -1.976   0.485  0.00  0.00    +0.001 C 
BRANCH  31  32
ATOM     32  C   UNL     1      -2.070  -0.456   0.569  0.00  0.00    -0.078 C 
BRANCH  32  34
ATOM     33  C   UNL     1      -0.953   1.583   1.162  0.00  0.00    -0.097 C 
ATOM     34  N   UNL     1      -0.868   0.117   1.190  0.00  0.00    +0.376 N 
ATOM     35  C   UNL     1      -0.770  -0.342   2.582  0.00  0.00    -0.097 C 
ATOM     36  H   UNL     1      -0.051  -0.182   0.679  0.00  0.00    -0.083 HD
ENDBRANCH  32  34
ENDBRANCH  31  32
ENDBRANCH  30  31
ENDBRANCH   1  30
TORSDOF 11
