REMARK  Name = ZINC20842193
REMARK  12 active torsions:
REMARK  status: ('A' for Active; 'I' for Inactive)
REMARK    1  A    between atoms: C_1  and  C_2
REMARK    2  A    between atoms: C_2  and  C_3
REMARK    3  A    between atoms: C_2  and  C_4
REMARK    4  A    between atoms: C_2  and  C_5
REMARK    5  A    between atoms: C_8  and  S_11
REMARK    6  A    between atoms: N_9  and  N_10
REMARK    7  A    between atoms: S_11  and  C_12
REMARK    8  A    between atoms: C_12  and  C_13
REMARK    9  A    between atoms: N_15  and  C_16
REMARK   10  A    between atoms: C_19  and  S_22
REMARK   11  A    between atoms: S_22  and  N_25
REMARK   12  A    between atoms: N_25  and  C_26
REMARK                            x       y       z     vdW  Elec       q    Type
REMARK                         _______ _______ _______ _____ _____    ______ ____
ROOT
ATOM      1  C   UNL     1      -1.267   8.537  -0.525  0.00  0.00    +0.227 C 
ATOM      2  O   UNL     1      -1.874   9.448  -1.047  0.00  0.00    -0.275 OA
ATOM      3  N   UNL     1      -0.070   8.768   0.050  0.00  0.00    -0.285 N 
ATOM      4  H   UNL     1       0.446   7.959   0.590  0.00  0.00    +0.155 HD
ENDROOT
BRANCH   3   5
ATOM      5  C   UNL     1       0.517  10.035  -0.038  0.00  0.00    +0.034 A 
ATOM      6  C   UNL     1       1.897  10.157  -0.140  0.00  0.00    +0.025 A 
ATOM      7  C   UNL     1       2.472  11.409  -0.234  0.00  0.00    +0.030 A 
ATOM      8  C   UNL     1       1.677  12.540  -0.214  0.00  0.00    +0.105 A 
ATOM      9  C   UNL     1       0.304  12.422  -0.107  0.00  0.00    +0.030 A 
ATOM     10  C   UNL     1      -0.279  11.173  -0.019  0.00  0.00    +0.025 A 
BRANCH   8  11
ATOM     11  S   UNL     1       2.416  14.136  -0.327  0.00  0.00    +0.059 S 
ATOM     12  O   UNL     1       3.672  13.958  -0.968  0.00  0.00    -0.153 OA
ATOM     13  O   UNL     1       1.419  15.011  -0.836  0.00  0.00    -0.153 OA
BRANCH  11  14
ATOM     14  N   UNL     1       2.740  14.635   1.218  0.00  0.00    -0.187 NA
ATOM     15  H   UNL     1       2.102  15.402   1.681  0.00  0.00    +0.148 HD
BRANCH  14  16
ATOM     16  C   UNL     1       3.721  13.912   2.031  0.00  0.00    +0.077 C 
ATOM     17  C   UNL     1       3.000  12.883   2.905  0.00  0.00    +0.020 C 
ATOM     18  C   UNL     1       4.024  12.128   3.754  0.00  0.00    +0.002 C 
ATOM     19  C   UNL     1       4.776  13.117   4.647  0.00  0.00    +0.000 C 
ATOM     20  C   UNL     1       5.497  14.146   3.773  0.00  0.00    +0.002 C 
ATOM     21  C   UNL     1       4.473  14.902   2.924  0.00  0.00    +0.020 C 
ENDBRANCH  14  16
ENDBRANCH  11  14
ENDBRANCH   8  11
ENDBRANCH   3   5
BRANCH   1  22
ATOM     22  C   UNL     1      -1.851   7.148  -0.520  0.00  0.00    +0.173 C 
BRANCH  22  23
ATOM     23  S   UNL     1      -3.453   7.164  -1.362  0.00  0.00    -0.075 S 
BRANCH  23  27
ATOM     24  C   UNL     1      -4.940   3.558  -1.335  0.00  0.00    +0.156 A 
ATOM     25  N   UNL     1      -3.811   3.402  -0.702  0.00  0.00    -0.131 NA
ATOM     26  N   UNL     1      -3.187   4.523  -0.632  0.00  0.00    -0.121 NA
ATOM     27  C   UNL     1      -3.893   5.464  -1.213  0.00  0.00    +0.209 A 
ATOM     28  N   UNL     1      -5.035   4.878  -1.679  0.00  0.00    -0.227 N 
BRANCH  24  30
ATOM     29  C   UNL     1      -6.151   2.363  -3.139  0.00  0.00    +0.019 C 
ATOM     30  C   UNL     1      -5.956   2.483  -1.626  0.00  0.00    +0.024 C 
ATOM     31  C   UNL     1      -5.460   1.148  -1.069  0.00  0.00    +0.019 C 
ATOM     32  C   UNL     1      -7.288   2.848  -0.968  0.00  0.00    +0.019 C 
ENDBRANCH  24  30
BRANCH  28  33
ATOM     33  N   UNL     1      -6.059   5.483  -2.351  0.00  0.00    -0.295 N 
ATOM     34  H   UNL     1      -6.013   6.561  -2.567  0.00  0.00    +0.163 HD
ATOM     35  H   UNL     1      -6.929   4.894  -2.675  0.00  0.00    +0.163 HD
ENDBRANCH  28  33
ENDBRANCH  23  27
ENDBRANCH  22  23
ENDBRANCH   1  22
TORSDOF 9
