REMARK  Name = ZINC10751440
REMARK  10 active torsions:
REMARK  status: ('A' for Active; 'I' for Inactive)
REMARK    1  A    between atoms: C_1  and  C_2
REMARK    2  A    between atoms: C_2  and  C_3
REMARK    3  A    between atoms: N_12  and  C_13
REMARK    4  A    between atoms: C_13  and  C_14
REMARK    5  A    between atoms: C_14  and  N_63
REMARK    6  A    between atoms: C_15  and  N_63
REMARK    7  A    between atoms: C_16  and  N_63
REMARK    8  A    between atoms: C_17  and  C_19
REMARK    9  A    between atoms: N_24  and  S_26
REMARK   10  A    between atoms: S_26  and  C_29
REMARK                            x       y       z     vdW  Elec       q    Type
REMARK                         _______ _______ _______ _____ _____    ______ ____
ROOT
ATOM      1  C   UNL     1       3.739   2.840  -1.625  0.00  0.00    -0.046 A 
ATOM      2  C   UNL     1       4.150   1.560  -1.969  0.00  0.00    +0.006 A 
ATOM      3  C   UNL     1       3.318   0.480  -1.831  0.00  0.00    +0.029 A 
ATOM      4  C   UNL     1       2.005   0.638  -1.330  0.00  0.00    +0.080 A 
ATOM      5  C   UNL     1       1.622   1.956  -0.990  0.00  0.00    +0.041 A 
ATOM      6  C   UNL     1       2.462   3.032  -1.131  0.00  0.00    +0.021 A 
ATOM      7  S   UNL     1      -0.046   1.728  -0.419  0.00  0.00    -0.052 S 
ATOM      8  C   UNL     1      -0.126  -0.041  -0.660  0.00  0.00    +0.168 A 
ATOM      9  N   UNL     1       1.067  -0.313  -1.135  0.00  0.00    -0.224 NA
ATOM     10  N   UNL     1      -1.180  -0.904  -0.410  0.00  0.00    -0.252 N 
ATOM     11  C   UNL     1      -2.383  -0.414  -0.050  0.00  0.00    +0.226 C 
ATOM     12  O   UNL     1      -3.275  -1.170   0.272  0.00  0.00    -0.275 OA
ENDROOT
BRANCH  11  13
ATOM     13  C   UNL     1      -2.619   1.074  -0.046  0.00  0.00    +0.091 C 
ATOM     14  C   UNL     1      -2.175   1.659   1.296  0.00  0.00    +0.015 C 
ATOM     15  C   UNL     1      -2.384   3.175   1.288  0.00  0.00    +0.018 C 
ATOM     16  C   UNL     1      -3.873   3.480   1.097  0.00  0.00    +0.109 C 
ATOM     17  N   UNL     1      -4.343   2.800  -0.118  0.00  0.00    -0.175 NA
ATOM     18  C   UNL     1      -4.111   1.356  -0.253  0.00  0.00    +0.122 C 
BRANCH  17  19
ATOM     19  S   UNL     1      -5.119   3.646  -1.311  0.00  0.00    +0.067 S 
ATOM     20  O   UNL     1      -5.910   2.706  -2.026  0.00  0.00    -0.152 OA
ATOM     21  O   UNL     1      -5.676   4.799  -0.696  0.00  0.00    -0.152 OA
BRANCH  19  22
ATOM     22  C   UNL     1      -3.885   4.219  -2.431  0.00  0.00    +0.143 A 
ATOM     23  C   UNL     1      -3.386   3.612  -3.535  0.00  0.00    +0.036 A 
ATOM     24  C   UNL     1      -2.410   4.257  -4.272  0.00  0.00    +0.010 A 
ATOM     25  C   UNL     1      -1.981   5.478  -3.868  0.00  0.00    +0.047 A 
ATOM     26  S   UNL     1      -2.973   5.753  -2.409  0.00  0.00    -0.077 S 
ENDBRANCH  19  22
ENDBRANCH  17  19
ENDBRANCH  11  13
BRANCH   1  28
ATOM     27  C   UNL     1       5.480   4.202  -0.501  0.00  0.00    +0.009 C 
ATOM     28  C   UNL     1       4.675   4.010  -1.788  0.00  0.00    +0.032 C 
ENDBRANCH   1  28
BRANCH  10  29
ATOM     29  C   UNL     1      -0.987  -2.351  -0.537  0.00  0.00    +0.097 C 
BRANCH  29  30
ATOM     30  C   UNL     1      -0.440  -2.910   0.778  0.00  0.00    -0.060 C 
BRANCH  30  33
ATOM     31  C   UNL     1       0.495  -4.896   1.801  0.00  0.00    -0.097 C 
ATOM     32  C   UNL     1      -1.533  -5.051   0.486  0.00  0.00    -0.097 C 
ATOM     33  N   UNL     1      -0.231  -4.365   0.627  0.00  0.00    +0.377 N 
ATOM     34  H   UNL     1       0.329  -4.536  -0.216  0.00  0.00    -0.083 HD
ENDBRANCH  30  33
ENDBRANCH  29  30
ENDBRANCH  10  29
TORSDOF 7
