REMARK  Name = ZINC65096110
REMARK  7 active torsions:
REMARK  status: ('A' for Active; 'I' for Inactive)
REMARK    1  A    between atoms: C_1  and  C_2
REMARK    2  A    between atoms: C_2  and  C_3
REMARK    3  A    between atoms: C_3  and  C_4
REMARK    4  A    between atoms: C_4  and  C_5
REMARK    5  A    between atoms: C_8  and  N_11
REMARK    6  A    between atoms: C_13  and  C_24
REMARK    7  A    between atoms: C_20  and  C_23
REMARK                            x       y       z     vdW  Elec       q    Type
REMARK                         _______ _______ _______ _____ _____    ______ ____
ROOT
ATOM      1  N   UNL     1       3.394  -3.858  -5.932  0.00  0.00    -0.272 N 
ATOM      2  C   UNL     1       3.234  -3.118  -7.055  0.00  0.00    +0.119 C 
ATOM      3  C   UNL     1       4.070  -3.150  -8.108  0.00  0.00    +0.184 C 
ATOM      4  S   UNL     1       5.465  -4.234  -8.056  0.00  0.00    +0.038 S 
ATOM      5  O   UNL     1       5.432  -5.008  -9.246  0.00  0.00    -0.164 OA
ATOM      6  O   UNL     1       6.588  -3.444  -7.686  0.00  0.00    -0.164 OA
ATOM      7  C   UNL     1       5.149  -5.338  -6.715  0.00  0.00    +0.116 A 
ATOM      8  C   UNL     1       4.148  -5.018  -5.807  0.00  0.00    +0.064 A 
ATOM      9  C   UNL     1       3.897  -5.889  -4.750  0.00  0.00    +0.029 A 
ATOM     10  C   UNL     1       4.641  -7.043  -4.610  0.00  0.00    -0.049 A 
ATOM     11  C   UNL     1       5.641  -7.343  -5.517  0.00  0.00    +0.005 A 
ATOM     12  C   UNL     1       5.886  -6.492  -6.574  0.00  0.00    +0.029 A 
ATOM     13  C   UNL     1       4.362  -7.980  -3.464  0.00  0.00    +0.044 C 
ENDROOT
BRANCH   1  17
ATOM     14  C   UNL     1       1.445  -2.513  -2.505  0.00  0.00    -0.047 A 
ATOM     15  C   UNL     1       0.764  -3.288  -3.426  0.00  0.00    +0.005 A 
ATOM     16  C   UNL     1       1.407  -3.735  -4.564  0.00  0.00    +0.024 A 
ATOM     17  C   UNL     1       2.739  -3.406  -4.782  0.00  0.00    +0.038 A 
ATOM     18  C   UNL     1       3.420  -2.627  -3.854  0.00  0.00    +0.024 A 
ATOM     19  C   UNL     1       2.769  -2.179  -2.721  0.00  0.00    +0.005 A 
BRANCH  14  20
ATOM     20  C   UNL     1       0.740  -2.027  -1.265  0.00  0.00    +0.035 C 
BRANCH  20  21
ATOM     21  C   UNL     1       0.086  -0.673  -1.547  0.00  0.00    +0.004 C 
BRANCH  21  23
ATOM     22  C   UNL     1      -1.283   1.175  -0.571  0.00  0.00    +0.004 C 
ATOM     23  C   UNL     1      -0.629  -0.179  -0.288  0.00  0.00    -0.003 C 
ENDBRANCH  21  23
ENDBRANCH  20  21
ENDBRANCH  14  20
ENDBRANCH   1  17
BRANCH   3  24
ATOM     24  C   UNL     1       3.833  -2.322  -9.252  0.00  0.00    +0.120 C 
ATOM     25  N   UNL     1       3.646  -1.664 -10.159  0.00  0.00    -0.189 NA
ENDBRANCH   3  24
TORSDOF 5
