REMARK  Name = ZINC19892495
REMARK  17 active torsions:
REMARK  status: ('A' for Active; 'I' for Inactive)
REMARK    1  A    between atoms: C_1  and  C_2
REMARK    2  A    between atoms: C_2  and  C_3
REMARK    3  A    between atoms: C_3  and  C_4
REMARK    4  A    between atoms: C_4  and  O_5
REMARK    5  A    between atoms: O_5  and  C_6
REMARK    6  A    between atoms: C_6  and  C_8
REMARK    7  A    between atoms: C_9  and  C_41
REMARK    8  A    between atoms: C_13  and  C_15
REMARK    9  A    between atoms: C_20  and  O_21
REMARK   10  A    between atoms: O_21  and  C_22
REMARK   11  A    between atoms: C_22  and  C_23
REMARK   12  A    between atoms: C_22  and  C_24
REMARK   13  A    between atoms: C_28  and  C_31
REMARK   14  A    between atoms: C_34  and  O_39
REMARK   15  A    between atoms: C_35  and  O_37
REMARK   16  A    between atoms: O_37  and  C_38
REMARK   17  A    between atoms: O_39  and  C_40
REMARK                            x       y       z     vdW  Elec       q    Type
REMARK                         _______ _______ _______ _____ _____    ______ ____
ROOT
ATOM      1  C   UNL     1      -3.242   2.783   3.973  0.00  0.00    +0.065 C 
ATOM      2  C   UNL     1      -3.849   3.599   4.851  0.00  0.00    +0.016 C 
ATOM      3  N   UNL     1      -3.137   4.567   5.503  0.00  0.00    -0.321 N 
ATOM      4  C   UNL     1      -1.773   4.484   5.598  0.00  0.00    +0.016 C 
ATOM      5  C   UNL     1      -1.074   3.705   4.746  0.00  0.00    +0.024 C 
ATOM      6  C   UNL     1      -1.777   2.910   3.674  0.00  0.00    +0.096 C 
ATOM      7  C   UNL     1       0.326   3.611   4.832  0.00  0.00    +0.162 C 
ATOM      8  O   UNL     1       0.925   2.889   4.059  0.00  0.00    -0.292 OA
ATOM      9  C   UNL     1       1.097   4.388   5.864  0.00  0.00    +0.088 C 
ATOM     10  C   UNL     1       0.325   5.667   6.203  0.00  0.00    +0.032 C 
ATOM     11  C   UNL     1      -1.077   5.277   6.676  0.00  0.00    +0.059 C 
ATOM     12  C   UNL     1      -5.324   3.447   5.119  0.00  0.00    +0.061 C 
ATOM     13  H   UNL     1      -3.659   5.422   5.957  0.00  0.00    +0.152 HD
ENDROOT
BRANCH   6  14
ATOM     14  C   UNL     1      -1.601   3.604   2.348  0.00  0.00    +0.006 A 
ATOM     15  C   UNL     1      -2.091   4.884   2.167  0.00  0.00    +0.008 A 
ATOM     16  C   UNL     1      -1.936   5.519   0.949  0.00  0.00    +0.001 A 
ATOM     17  C   UNL     1      -1.284   4.878  -0.089  0.00  0.00    +0.004 A 
ATOM     18  C   UNL     1      -0.787   3.602   0.089  0.00  0.00    +0.046 A 
ATOM     19  C   UNL     1      -0.942   2.962   1.310  0.00  0.00    +0.125 A 
BRANCH  19  20
ATOM     20  O   UNL     1      -0.455   1.706   1.488  0.00  0.00    -0.489 OA
BRANCH  20  21
ATOM     21  C   UNL     1       0.201   1.101   0.372  0.00  0.00    +0.167 C 
ATOM     22  C   UNL     1       0.141  -0.422   0.509  0.00  0.00    +0.051 C 
ATOM     23  C   UNL     1       1.663   1.552   0.333  0.00  0.00    +0.051 C 
ENDBRANCH  20  21
ENDBRANCH  19  20
ENDBRANCH   6  14
BRANCH  10  24
ATOM     24  C   UNL     1       1.039   6.414   7.300  0.00  0.00    -0.040 A 
ATOM     25  C   UNL     1       1.253   5.806   8.523  0.00  0.00    +0.008 A 
ATOM     26  C   UNL     1       1.913   6.485   9.530  0.00  0.00    +0.049 A 
ATOM     27  C   UNL     1       2.352   7.783   9.319  0.00  0.00    +0.161 A 
ATOM     28  C   UNL     1       2.131   8.397   8.090  0.00  0.00    +0.162 A 
ATOM     29  C   UNL     1       1.474   7.708   7.082  0.00  0.00    +0.053 A 
BRANCH  28  30
ATOM     30  O   UNL     1       2.561   9.670   7.877  0.00  0.00    -0.491 OA
ATOM     31  C   UNL     1       2.300  10.236   6.591  0.00  0.00    +0.277 C 
ENDBRANCH  28  30
BRANCH  27  32
ATOM     32  O   UNL     1       2.996   8.454  10.310  0.00  0.00    -0.491 OA
ATOM     33  C   UNL     1       3.187   7.761  11.545  0.00  0.00    +0.277 C 
ENDBRANCH  27  32
ENDBRANCH  10  24
BRANCH   1  34
ATOM     34  C   UNL     1      -3.999   1.783   3.317  0.00  0.00    +0.338 C 
ATOM     35  O   UNL     1      -3.918   0.624   3.679  0.00  0.00    -0.245 OA
BRANCH  34  36
ATOM     36  O   UNL     1      -4.811   2.115   2.292  0.00  0.00    -0.461 OA
BRANCH  36  37
ATOM     37  C   UNL     1      -5.545   1.055   1.676  0.00  0.00    +0.232 C 
BRANCH  37  38
ATOM     38  C   UNL     1      -6.404   1.620   0.543  0.00  0.00    +0.041 C 
BRANCH  38  40
ATOM     39  C   UNL     1      -8.049   1.051  -1.250  0.00  0.00    +0.004 C 
ATOM     40  C   UNL     1      -7.190   0.485  -0.116  0.00  0.00    -0.000 C 
ENDBRANCH  38  40
ENDBRANCH  37  38
ENDBRANCH  36  37
ENDBRANCH  34  36
ENDBRANCH   1  34
TORSDOF 11
