REMARK  Name = ZINC36057025
REMARK  14 active torsions:
REMARK  status: ('A' for Active; 'I' for Inactive)
REMARK    1  A    between atoms: C_1  and  C_2
REMARK    2  A    between atoms: C_2  and  C_3
REMARK    3  A    between atoms: C_3  and  C_4
REMARK    4  A    between atoms: C_3  and  C_5
REMARK    5  A    between atoms: C_3  and  N_17
REMARK    6  A    between atoms: N_7  and  C_8
REMARK    7  A    between atoms: C_11  and  N_14
REMARK    8  A    between atoms: N_14  and  C_15
REMARK    9  A    between atoms: N_14  and  C_16
REMARK   10  A    between atoms: N_17  and  C_18
REMARK   11  A    between atoms: C_18  and  C_19
REMARK   12  A    between atoms: C_24  and  C_25
REMARK   13  A    between atoms: C_26  and  C_28
REMARK   14  A    between atoms: C_28  and  N_29
REMARK                            x       y       z     vdW  Elec       q    Type
REMARK                         _______ _______ _______ _____ _____    ______ ____
ROOT
ATOM      1  N   UNL     1       1.978  -0.174   1.943  0.00  0.00    -0.282 N 
ATOM      2  C   UNL     1       2.390   0.315   0.756  0.00  0.00    +0.234 C 
ATOM      3  O   UNL     1       1.877  -0.075  -0.271  0.00  0.00    -0.274 OA
ENDROOT
BRANCH   1   4
ATOM      4  C   UNL     1       0.982  -1.247   1.987  0.00  0.00    +0.111 C 
ATOM      5  C   UNL     1       0.376  -1.322   3.390  0.00  0.00    +0.042 C 
BRANCH   4   6
ATOM      6  C   UNL     1      -0.106  -0.964   0.984  0.00  0.00    +0.241 C 
ATOM      7  O   UNL     1      -0.666  -1.881   0.421  0.00  0.00    -0.273 OA
ATOM      8  N   UNL     1      -0.458   0.309   0.712  0.00  0.00    -0.284 N 
ATOM      9  H   UNL     1       0.019   1.043   1.130  0.00  0.00    +0.155 HD
BRANCH   8  10
ATOM     10  C   UNL     1      -1.511   0.571  -0.174  0.00  0.00    +0.034 A 
ATOM     11  C   UNL     1      -2.383  -0.448  -0.537  0.00  0.00    +0.025 A 
ATOM     12  C   UNL     1      -3.421  -0.190  -1.410  0.00  0.00    +0.025 A 
ATOM     13  C   UNL     1      -3.593   1.088  -1.925  0.00  0.00    +0.029 A 
ATOM     14  C   UNL     1      -2.721   2.107  -1.563  0.00  0.00    +0.025 A 
ATOM     15  C   UNL     1      -1.686   1.850  -0.686  0.00  0.00    +0.025 A 
BRANCH  13  16
ATOM     16  N   UNL     1      -4.644   1.350  -2.810  0.00  0.00    -0.336 N 
ATOM     17  C   UNL     1      -5.564   0.276  -3.193  0.00  0.00    +0.129 C 
ATOM     18  C   UNL     1      -4.826   2.698  -3.354  0.00  0.00    +0.129 C 
ENDBRANCH  13  16
ENDBRANCH   8  10
ENDBRANCH   4   6
BRANCH   4  20
ATOM     19  C   UNL     1       2.284  -2.495   0.258  0.00  0.00    +0.006 C 
ATOM     20  C   UNL     1       1.653  -2.580   1.649  0.00  0.00    +0.032 C 
ENDBRANCH   4  20
ENDBRANCH   1   4
BRANCH   1  21
ATOM     21  C   UNL     1       2.527   0.368   3.188  0.00  0.00    +0.144 C 
BRANCH  21  22
ATOM     22  C   UNL     1       2.457   1.873   3.155  0.00  0.00    -0.027 A 
ATOM     23  C   UNL     1       3.621   2.618   3.099  0.00  0.00    +0.005 A 
ATOM     24  C   UNL     1       3.557   3.998   3.069  0.00  0.00    +0.000 A 
ATOM     25  C   UNL     1       2.329   4.635   3.093  0.00  0.00    +0.000 A 
ATOM     26  C   UNL     1       1.166   3.890   3.147  0.00  0.00    +0.003 A 
ATOM     27  C   UNL     1       1.230   2.509   3.174  0.00  0.00    -0.046 A 
ATOM     28  C   UNL     1      -0.038   1.697   3.228  0.00  0.00    +0.044 C 
ENDBRANCH  21  22
ENDBRANCH   1  21
BRANCH   2  29
ATOM     29  C   UNL     1       3.489   1.345   0.706  0.00  0.00    +0.210 C 
BRANCH  29  30
ATOM     30  N   UNL     1       3.894   1.560  -0.685  0.00  0.00    -0.255 N 
ATOM     31  C   UNL     1       4.894   0.837  -1.332  0.00  0.00    +0.048 A 
ATOM     32  C   UNL     1       5.715  -0.192  -0.889  0.00  0.00    +0.024 A 
ATOM     33  C   UNL     1       6.647  -0.753  -1.742  0.00  0.00    +0.002 A 
ATOM     34  C   UNL     1       6.777  -0.300  -3.044  0.00  0.00    +0.001 A 
ATOM     35  C   UNL     1       5.972   0.721  -3.505  0.00  0.00    +0.014 A 
ATOM     36  C   UNL     1       5.028   1.294  -2.653  0.00  0.00    +0.048 A 
ATOM     37  C   UNL     1       4.038   2.374  -2.827  0.00  0.00    +0.250 C 
ATOM     38  O   UNL     1       3.829   3.033  -3.825  0.00  0.00    -0.282 OA
ATOM     39  C   UNL     1       3.344   2.475  -1.502  0.00  0.00    +0.292 C 
ATOM     40  O   UNL     1       2.449   3.244  -1.217  0.00  0.00    -0.266 OA
ENDBRANCH  29  30
ENDBRANCH   2  29
TORSDOF 9
