REMARK  Name = ZINC36637334
REMARK  14 active torsions:
REMARK  status: ('A' for Active; 'I' for Inactive)
REMARK    1  A    between atoms: C_1  and  C_2
REMARK    2  A    between atoms: C_2  and  C_3
REMARK    3  A    between atoms: C_3  and  N_4
REMARK    4  A    between atoms: N_4  and  C_5
REMARK    5  A    between atoms: N_4  and  S_8
REMARK    6  A    between atoms: C_5  and  C_6
REMARK    7  A    between atoms: C_6  and  C_7
REMARK    8  A    between atoms: S_8  and  C_11
REMARK    9  A    between atoms: C_14  and  C_17
REMARK   10  A    between atoms: N_19  and  C_20
REMARK   11  A    between atoms: C_20  and  C_21
REMARK   12  A    between atoms: C_21  and  N_22
REMARK   13  A    between atoms: N_22  and  C_23
REMARK   14  A    between atoms: N_22  and  C_24
REMARK                            x       y       z     vdW  Elec       q    Type
REMARK                         _______ _______ _______ _____ _____    ______ ____
ROOT
ATOM      1  C   UNL     1       1.225  -3.704   4.776  0.00  0.00    +0.252 C 
ATOM      2  O   UNL     1       0.150  -4.248   4.931  0.00  0.00    -0.270 OA
ATOM      3  N   UNL     1       1.926  -3.279   5.846  0.00  0.00    -0.248 N 
ATOM      4  C   UNL     1       1.481  -3.570   7.125  0.00  0.00    +0.168 A 
ATOM      5  N   UNL     1       2.017  -3.242   8.277  0.00  0.00    -0.224 NA
ATOM      6  C   UNL     1       1.468  -3.597   9.460  0.00  0.00    +0.080 A 
ATOM      7  C   UNL     1       1.941  -3.311  10.762  0.00  0.00    +0.030 A 
ATOM      8  C   UNL     1       1.259  -3.750  11.866  0.00  0.00    +0.022 A 
ATOM      9  C   UNL     1       0.088  -4.487  11.750  0.00  0.00    +0.042 A 
ATOM     10  C   UNL     1      -0.403  -4.785  10.491  0.00  0.00    +0.037 A 
ATOM     11  C   UNL     1       0.274  -4.349   9.380  0.00  0.00    +0.042 A 
ATOM     12  S   UNL     1       0.027  -4.481   7.625  0.00  0.00    -0.052 S 
ATOM     13 CL   UNL     1      -0.751  -5.030  13.170  0.00  0.00    -0.084 Cl
ENDROOT
BRANCH   1  17
ATOM     14  C   UNL     1       2.777  -3.139   0.863  0.00  0.00    +0.106 A 
ATOM     15  C   UNL     1       2.818  -2.100   1.776  0.00  0.00    +0.029 A 
ATOM     16  C   UNL     1       2.315  -2.277   3.049  0.00  0.00    +0.015 A 
ATOM     17  C   UNL     1       1.765  -3.507   3.414  0.00  0.00    +0.037 A 
ATOM     18  C   UNL     1       1.727  -4.550   2.487  0.00  0.00    +0.015 A 
ATOM     19  C   UNL     1       2.228  -4.358   1.217  0.00  0.00    +0.029 A 
BRANCH  14  20
ATOM     20  S   UNL     1       3.421  -2.904  -0.760  0.00  0.00    +0.061 S 
ATOM     21  O   UNL     1       3.755  -4.194  -1.255  0.00  0.00    -0.153 OA
ATOM     22  O   UNL     1       4.372  -1.852  -0.672  0.00  0.00    -0.153 OA
BRANCH  20  23
ATOM     23  N   UNL     1       2.180  -2.343  -1.703  0.00  0.00    -0.177 NA
BRANCH  23  24
ATOM     24  C   UNL     1       1.946  -0.902  -1.823  0.00  0.00    +0.109 C 
BRANCH  24  26
ATOM     25  C   UNL     1       0.640   1.034  -0.934  0.00  0.00    +0.005 C 
ATOM     26  C   UNL     1       0.885  -0.471  -0.808  0.00  0.00    +0.014 C 
ENDBRANCH  24  26
ENDBRANCH  23  24
BRANCH  23  27
ATOM     27  C   UNL     1       1.317  -3.287  -2.417  0.00  0.00    +0.109 C 
BRANCH  27  28
ATOM     28  C   UNL     1       1.834  -3.471  -3.845  0.00  0.00    +0.014 C 
ATOM     29  C   UNL     1       0.932  -4.457  -4.590  0.00  0.00    +0.005 C 
ENDBRANCH  27  28
ENDBRANCH  23  27
ENDBRANCH  20  23
ENDBRANCH  14  20
ENDBRANCH   1  17
BRANCH   3  30
ATOM     30  C   UNL     1       3.158  -2.509   5.657  0.00  0.00    +0.097 C 
BRANCH  30  31
ATOM     31  C   UNL     1       2.855  -1.017   5.808  0.00  0.00    -0.060 C 
BRANCH  31  32
ATOM     32  N   UNL     1       4.059  -0.238   5.489  0.00  0.00    +0.377 N 
ATOM     33  C   UNL     1       3.738   1.195   5.518  0.00  0.00    -0.097 C 
ATOM     34  C   UNL     1       5.105  -0.525   6.481  0.00  0.00    -0.097 C 
ATOM     35  H   UNL     1       4.390  -0.491   4.570  0.00  0.00    -0.083 HD
ENDBRANCH  31  32
ENDBRANCH  30  31
ENDBRANCH   3  30
TORSDOF 10
