REMARK  Name = ZINC59491217
REMARK  9 active torsions:
REMARK  status: ('A' for Active; 'I' for Inactive)
REMARK    1  A    between atoms: C_1  and  C_2
REMARK    2  A    between atoms: C_2  and  O_3
REMARK    3  A    between atoms: O_3  and  C_4
REMARK    4  A    between atoms: C_7  and  N_10
REMARK    5  A    between atoms: C_14  and  S_18
REMARK    6  A    between atoms: S_18  and  C_19
REMARK    7  A    between atoms: N_20  and  C_21
REMARK    8  A    between atoms: N_28  and  C_29
REMARK    9  A    between atoms: C_29  and  C_30
REMARK                            x       y       z     vdW  Elec       q    Type
REMARK                         _______ _______ _______ _____ _____    ______ ____
ROOT
ATOM      1  C   UNL     1       1.441  -8.418  -5.544  0.00  0.00    +0.155 C 
ATOM      2  N   UNL     1       2.721  -8.125  -5.568  0.00  0.00    -0.226 NA
ATOM      3  N   UNL     1       0.757  -8.608  -6.721  0.00  0.00    -0.320 N 
ATOM      4  H   UNL     1       1.200  -8.450  -7.569  0.00  0.00    +0.148 HD
ENDROOT
BRANCH   2   5
ATOM      5  C   UNL     1       3.400  -8.118  -6.759  0.00  0.00    +0.067 A 
ATOM      6  C   UNL     1       3.399  -9.252  -7.572  0.00  0.00    +0.030 A 
ATOM      7  C   UNL     1       4.084  -9.240  -8.770  0.00  0.00    +0.040 A 
ATOM      8  C   UNL     1       4.773  -8.104  -9.165  0.00  0.00    +0.124 A 
ATOM      9  C   UNL     1       4.778  -6.976  -8.361  0.00  0.00    +0.040 A 
ATOM     10  C   UNL     1       4.091  -6.975  -7.165  0.00  0.00    +0.030 A 
ATOM     11  F   UNL     1       5.442  -8.098 -10.339  0.00  0.00    -0.205 F 
ENDBRANCH   2   5
BRANCH   1  12
ATOM     12  S   UNL     1       0.600  -8.568  -4.003  0.00  0.00    -0.077 S 
BRANCH  12  17
ATOM     13  N   UNL     1       2.011  -6.239  -1.584  0.00  0.00    -0.209 N 
ATOM     14  C   UNL     1       1.479  -7.091  -0.699  0.00  0.00    +0.228 C 
ATOM     15  O   UNL     1       1.161  -6.815   0.438  0.00  0.00    -0.275 OA
ATOM     16  C   UNL     1       1.339  -8.453  -1.342  0.00  0.00    +0.120 C 
ATOM     17  C   UNL     1       1.887  -8.238  -2.768  0.00  0.00    +0.149 C 
ATOM     18  C   UNL     1       2.275  -6.775  -2.781  0.00  0.00    +0.240 C 
ATOM     19  O   UNL     1       2.751  -6.184  -3.727  0.00  0.00    -0.274 OA
BRANCH  13  23
ATOM     20  C   UNL     1       2.767  -2.235  -0.688  0.00  0.00    +0.121 A 
ATOM     21  C   UNL     1       1.778  -2.566  -1.604  0.00  0.00    +0.047 A 
ATOM     22  C   UNL     1       1.528  -3.891  -1.901  0.00  0.00    +0.027 A 
ATOM     23  C   UNL     1       2.265  -4.892  -1.283  0.00  0.00    +0.044 A 
ATOM     24  C   UNL     1       3.254  -4.560  -0.367  0.00  0.00    +0.027 A 
ATOM     25  C   UNL     1       3.507  -3.234  -0.074  0.00  0.00    +0.047 A 
BRANCH  20  26
ATOM     26  O   UNL     1       3.013  -0.930  -0.396  0.00  0.00    -0.492 OA
BRANCH  26  28
ATOM     27  C   UNL     1       2.632   1.447  -0.613  0.00  0.00    +0.048 C 
ATOM     28  C   UNL     1       2.212   0.047  -1.065  0.00  0.00    +0.225 C 
ENDBRANCH  26  28
ENDBRANCH  20  26
ENDBRANCH  13  23
ENDBRANCH  12  17
ENDBRANCH   1  12
BRANCH   3  29
ATOM     29  C   UNL     1      -0.639  -9.048  -6.694  0.00  0.00    +0.138 C 
BRANCH  29  30
ATOM     30  C   UNL     1      -1.122  -9.275  -8.103  0.00  0.00    -0.030 A 
ATOM     31  C   UNL     1      -1.699  -8.238  -8.811  0.00  0.00    +0.006 A 
ATOM     32  C   UNL     1      -2.142  -8.445 -10.104  0.00  0.00    +0.020 A 
ATOM     33  C   UNL     1      -2.008  -9.692 -10.689  0.00  0.00    +0.041 A 
ATOM     34  C   UNL     1      -1.431 -10.730  -9.979  0.00  0.00    +0.020 A 
ATOM     35  C   UNL     1      -0.983 -10.519  -8.689  0.00  0.00    +0.006 A 
ATOM     36 CL   UNL     1      -2.565  -9.954 -12.312  0.00  0.00    -0.084 Cl
ENDBRANCH  29  30
ENDBRANCH   3  29
TORSDOF 8
