REMARK  Name = ZINC38547672
REMARK  11 active torsions:
REMARK  status: ('A' for Active; 'I' for Inactive)
REMARK    1  A    between atoms: C_1  and  C_2
REMARK    2  A    between atoms: C_3  and  C_34
REMARK    3  A    between atoms: C_5  and  N_26
REMARK    4  A    between atoms: C_6  and  C_7
REMARK    5  A    between atoms: C_7  and  C_9
REMARK    6  A    between atoms: C_7  and  N_19
REMARK    7  A    between atoms: C_12  and  O_17
REMARK    8  A    between atoms: C_14  and  O_15
REMARK    9  A    between atoms: O_15  and  C_16
REMARK   10  A    between atoms: O_17  and  C_18
REMARK   11  A    between atoms: C_27  and  C_29
REMARK                            x       y       z     vdW  Elec       q    Type
REMARK                         _______ _______ _______ _____ _____    ______ ____
ROOT
ATOM      1  C   UNL     1       0.202   0.022   2.475  0.00  0.00    +0.138 C 
ENDROOT
BRANCH   1   2
ATOM      2  N   UNL     1       1.264  -0.644   3.233  0.00  0.00    -0.319 N 
ATOM      3  C   UNL     1       1.821  -0.020   4.343  0.00  0.00    +0.097 A 
ATOM      4  C   UNL     1       1.289   1.183   4.797  0.00  0.00    +0.041 A 
ATOM      5  C   UNL     1       1.853   1.793   5.903  0.00  0.00    +0.005 A 
ATOM      6  C   UNL     1       2.934   1.178   6.520  0.00  0.00    +0.018 A 
ATOM      7  C   UNL     1       3.411  -0.015   6.016  0.00  0.00    +0.084 A 
ATOM      8  N   UNL     1       2.849  -0.578   4.962  0.00  0.00    -0.350 N 
ATOM      9  H   UNL     1       1.578  -1.520   2.961  0.00  0.00    +0.148 HD
ATOM     10  H   UNL     1       3.201  -1.419   4.631  0.00  0.00    +0.166 HD
ENDBRANCH   1   2
BRANCH   1  16
ATOM     11  C   UNL     1       0.171   1.806   0.171  0.00  0.00    +0.045 C 
ATOM     12  C   UNL     1       0.146   0.311  -0.019  0.00  0.00    -0.033 A 
ATOM     13  C   UNL     1       0.114  -0.222  -1.264  0.00  0.00    -0.008 A 
ATOM     14  S   UNL     1       0.096  -1.973  -0.919  0.00  0.00    -0.078 S 
ATOM     15  C   UNL     1       0.132  -1.881   0.864  0.00  0.00    +0.078 A 
ATOM     16  C   UNL     1       0.160  -0.535   1.075  0.00  0.00    +0.009 A 
ATOM     17  C   UNL     1       0.098   0.482  -2.596  0.00  0.00    +0.052 C 
BRANCH  15  18
ATOM     18  N   UNL     1       0.135  -2.918   1.798  0.00  0.00    -0.273 N 
ATOM     19  C   UNL     1       0.198  -4.199   1.384  0.00  0.00    +0.284 C 
ATOM     20  O   UNL     1       0.332  -4.449   0.200  0.00  0.00    -0.266 OA
ATOM     21  H   UNL     1       0.091  -2.717   2.746  0.00  0.00    +0.156 HD
BRANCH  19  22
ATOM     22  C   UNL     1       0.107  -5.290   2.358  0.00  0.00    +0.189 A 
ATOM     23  C   UNL     1       0.253  -6.621   2.089  0.00  0.00    +0.054 A 
ATOM     24  C   UNL     1       0.088  -7.300   3.306  0.00  0.00    +0.042 A 
ATOM     25  C   UNL     1      -0.149  -6.366   4.253  0.00  0.00    +0.196 A 
ATOM     26  O   UNL     1      -0.131  -5.156   3.679  0.00  0.00    -0.458 OA
ENDBRANCH  19  22
ENDBRANCH  15  18
ENDBRANCH   1  16
BRANCH   1  27
ATOM     27  C   UNL     1      -1.124  -0.218   3.150  0.00  0.00    +0.019 A 
ATOM     28  C   UNL     1      -1.265  -1.263   4.043  0.00  0.00    +0.013 A 
ATOM     29  C   UNL     1      -2.479  -1.485   4.664  0.00  0.00    +0.046 A 
ATOM     30  C   UNL     1      -3.561  -0.659   4.391  0.00  0.00    +0.124 A 
ATOM     31  C   UNL     1      -3.422   0.390   3.495  0.00  0.00    +0.091 A 
ATOM     32  C   UNL     1      -2.201   0.614   2.878  0.00  0.00    +0.129 A 
BRANCH  32  33
ATOM     33  O   UNL     1      -2.060   1.645   2.004  0.00  0.00    -0.495 OA
ATOM     34  C   UNL     1      -3.210   2.461   1.772  0.00  0.00    +0.277 C 
ENDBRANCH  32  33
BRANCH  30  35
ATOM     35  O   UNL     1      -4.755  -0.878   5.002  0.00  0.00    -0.495 OA
ATOM     36  C   UNL     1      -4.825  -1.977   5.913  0.00  0.00    +0.277 C 
ENDBRANCH  30  35
ENDBRANCH   1  27
TORSDOF 7
