REMARK  Name = ZINC04080132
REMARK  4 active torsions:
REMARK  status: ('A' for Active; 'I' for Inactive)
REMARK    1  A    between atoms: C_4  and  C_7
REMARK    2  A    between atoms: C_18  and  N_20
REMARK    3  A    between atoms: N_20  and  C_21
REMARK    4  A    between atoms: C_21  and  C_22
REMARK                            x       y       z     vdW  Elec       q    Type
REMARK                         _______ _______ _______ _____ _____    ______ ____
ROOT
ATOM      1  C   UNL     1       3.698  -0.688  -0.037  0.00  0.00    +0.163 A 
ATOM      2  N   UNL     1       3.697  -2.013  -0.050  0.00  0.00    -0.223 NA
ATOM      3  C   UNL     1       4.842  -2.688  -0.066  0.00  0.00    +0.122 A 
ATOM      4  C   UNL     1       5.205  -4.115  -0.082  0.00  0.00    +0.046 A 
ATOM      5  C   UNL     1       4.473  -5.299  -0.088  0.00  0.00    +0.014 A 
ATOM      6  C   UNL     1       5.131  -6.510  -0.105  0.00  0.00    +0.001 A 
ATOM      7  C   UNL     1       6.517  -6.549  -0.116  0.00  0.00    +0.004 A 
ATOM      8  C   UNL     1       7.253  -5.383  -0.111  0.00  0.00    +0.047 A 
ATOM      9  C   UNL     1       6.607  -4.152  -0.094  0.00  0.00    +0.138 A 
ATOM     10  O   UNL     1       7.068  -2.882  -0.085  0.00  0.00    -0.450 OA
ATOM     11  C   UNL     1       6.056  -1.990  -0.069  0.00  0.00    +0.194 A 
ATOM     12  C   UNL     1       6.010  -0.590  -0.056  0.00  0.00    +0.166 A 
ATOM     13  N   UNL     1       4.826   0.012  -0.045  0.00  0.00    -0.209 NA
ENDROOT
BRANCH   1  17
ATOM     14  C   UNL     1      -0.017   1.379   0.010  0.00  0.00    +0.000 A 
ATOM     15  C   UNL     1       1.169   2.092   0.002  0.00  0.00    +0.001 A 
ATOM     16  C   UNL     1       2.377   1.426  -0.013  0.00  0.00    +0.011 A 
ATOM     17  C   UNL     1       2.402   0.033  -0.021  0.00  0.00    +0.019 A 
ATOM     18  C   UNL     1       1.205  -0.680  -0.013  0.00  0.00    +0.011 A 
ATOM     19  C   UNL     1       0.002  -0.004   0.002  0.00  0.00    +0.001 A 
ENDBRANCH   1  17
BRANCH  12  20
ATOM     20  N   UNL     1       7.179   0.155  -0.058  0.00  0.00    -0.322 N 
ATOM     21  H   UNL     1       8.039  -0.293  -0.069  0.00  0.00    +0.148 HD
BRANCH  20  22
ATOM     22  C   UNL     1       7.115   1.619  -0.044  0.00  0.00    +0.140 C 
BRANCH  22  23
ATOM     23  C   UNL     1       8.513   2.182  -0.050  0.00  0.00    -0.012 A 
ATOM     24  C   UNL     1       9.176   2.429   1.143  0.00  0.00    +0.008 A 
ATOM     25  C   UNL     1      10.460   2.947   1.089  0.00  0.00    +0.020 A 
ATOM     26  C   UNL     1      11.034   3.200  -0.143  0.00  0.00    +0.111 A 
ATOM     27  N   UNL     1      10.373   2.954  -1.257  0.00  0.00    -0.263 NA
ATOM     28  C   UNL     1       9.153   2.455  -1.244  0.00  0.00    +0.115 A 
ENDBRANCH  22  23
ENDBRANCH  20  22
ENDBRANCH  12  20
TORSDOF 4
