REMARK  Name = ZINC13064918
REMARK  15 active torsions:
REMARK  status: ('A' for Active; 'I' for Inactive)
REMARK    1  A    between atoms: C_1  and  C_2
REMARK    2  A    between atoms: C_2  and  C_3
REMARK    3  A    between atoms: C_3  and  C_5
REMARK    4  A    between atoms: C_3  and  N_71
REMARK    5  A    between atoms: N_9  and  C_10
REMARK    6  A    between atoms: C_10  and  C_11
REMARK    7  A    between atoms: C_10  and  C_12
REMARK    8  A    between atoms: C_10  and  C_13
REMARK    9  A    between atoms: C_14  and  C_15
REMARK   10  A    between atoms: C_14  and  N_71
REMARK   11  A    between atoms: C_18  and  C_21
REMARK   12  A    between atoms: C_22  and  C_23
REMARK   13  A    between atoms: C_22  and  N_71
REMARK   14  A    between atoms: C_26  and  C_36
REMARK   15  A    between atoms: C_28  and  C_35
REMARK                            x       y       z     vdW  Elec       q    Type
REMARK                         _______ _______ _______ _____ _____    ______ ____
ROOT
ATOM      1  N   UNL     1       4.243   4.832  -0.791  0.00  0.00    +0.392 N 
ATOM      2  H   UNL     1       3.781   5.653  -1.201  0.00  0.00    -0.080 HD
ENDROOT
BRANCH   1   3
ATOM      3  C   UNL     1       3.854   3.630  -1.558  0.00  0.00    +0.003 C 
BRANCH   3   4
ATOM      4  C   UNL     1       3.632   4.028  -2.995  0.00  0.00    +0.139 A 
ATOM      5  N   UNL     1       4.283   4.950  -3.661  0.00  0.00    -0.115 NA
ATOM      6  N   UNL     1       3.802   4.991  -4.856  0.00  0.00    -0.023 NA
ATOM      7  N   UNL     1       2.862   4.119  -4.969  0.00  0.00    -0.043 NA
ATOM      8  N   UNL     1       2.731   3.501  -3.844  0.00  0.00    -0.226 N 
BRANCH   8   9
ATOM      9  C   UNL     1       1.777   2.429  -3.546  0.00  0.00    +0.059 C 
ATOM     10  C   UNL     1       0.767   2.920  -2.507  0.00  0.00    +0.036 C 
ATOM     11  C   UNL     1       1.040   2.033  -4.827  0.00  0.00    +0.036 C 
ATOM     12  C   UNL     1       2.529   1.216  -2.994  0.00  0.00    +0.036 C 
ENDBRANCH   8   9
ENDBRANCH   3   4
BRANCH   3  14
ATOM     13  C   UNL     1       5.085   2.064  -0.049  0.00  0.00    +0.002 C 
ATOM     14  C   UNL     1       4.957   2.572  -1.487  0.00  0.00    -0.011 C 
ENDBRANCH   3  14
ENDBRANCH   1   3
BRANCH   1  15
ATOM     15  C   UNL     1       5.708   5.022  -0.858  0.00  0.00    -0.042 C 
BRANCH  15  16
ATOM     16  C   UNL     1       6.063   5.568  -2.217  0.00  0.00    -0.064 A 
ATOM     17  C   UNL     1       6.711   4.764  -3.137  0.00  0.00    +0.002 A 
ATOM     18  C   UNL     1       7.032   5.264  -4.385  0.00  0.00    +0.003 A 
ATOM     19  C   UNL     1       6.715   6.569  -4.711  0.00  0.00    -0.050 A 
ATOM     20  C   UNL     1       6.071   7.374  -3.789  0.00  0.00    +0.003 A 
ATOM     21  C   UNL     1       5.745   6.873  -2.543  0.00  0.00    +0.002 A 
ATOM     22  C   UNL     1       7.070   7.115  -6.070  0.00  0.00    +0.044 C 
ENDBRANCH  15  16
ENDBRANCH   1  15
BRANCH   1  23
ATOM     23  C   UNL     1       3.816   4.694   0.617  0.00  0.00    -0.036 C 
BRANCH  23  24
ATOM     24  C   UNL     1       2.317   4.835   0.684  0.00  0.00    +0.001 A 
ATOM     25  C   UNL     1       1.538   3.730   0.787  0.00  0.00    +0.017 A 
ATOM     26  C   UNL     1       0.085   3.902   0.850  0.00  0.00    +0.002 A 
ATOM     27  C   UNL     1      -0.770   2.800   0.958  0.00  0.00    -0.041 A 
ATOM     28  C   UNL     1      -2.121   2.994   1.015  0.00  0.00    +0.007 A 
ATOM     29  C   UNL     1      -2.653   4.276   0.966  0.00  0.00    -0.048 A 
ATOM     30  C   UNL     1      -1.830   5.376   0.860  0.00  0.00    +0.029 A 
ATOM     31  C   UNL     1      -0.451   5.203   0.801  0.00  0.00    +0.050 A 
ATOM     32  N   UNL     1       0.396   6.285   0.695  0.00  0.00    -0.322 N 
ATOM     33  H   UNL     1       0.025   7.181   0.661  0.00  0.00    +0.169 HD
ATOM     34  C   UNL     1       1.729   6.118   0.638  0.00  0.00    +0.251 A 
ATOM     35  O   UNL     1       2.448   7.098   0.544  0.00  0.00    -0.268 OA
ATOM     36  C   UNL     1      -4.147   4.465   1.030  0.00  0.00    +0.044 C 
ATOM     37  C   UNL     1      -0.203   1.405   1.011  0.00  0.00    +0.044 C 
ENDBRANCH  23  24
ENDBRANCH   1  23
TORSDOF 8
