REMARK  Name = ZINC01894676
REMARK  11 active torsions:
REMARK  status: ('A' for Active; 'I' for Inactive)
REMARK    1  A    between atoms: C_1  and  C_2
REMARK    2  A    between atoms: C_2  and  C_39
REMARK    3  A    between atoms: C_12  and  S_24
REMARK    4  A    between atoms: C_14  and  S_16
REMARK    5  A    between atoms: S_16  and  C_17
REMARK    6  A    between atoms: C_17  and  C_18
REMARK    7  A    between atoms: S_24  and  C_25
REMARK    8  A    between atoms: C_25  and  C_26
REMARK    9  A    between atoms: N_28  and  C_29
REMARK   10  A    between atoms: C_29  and  C_30
REMARK   11  A    between atoms: C_30  and  C_31
REMARK                            x       y       z     vdW  Elec       q    Type
REMARK                         _______ _______ _______ _____ _____    ______ ____
ROOT
ATOM      1  C   UNL     1      -0.019   1.526   0.010  0.00  0.00    +0.041 C 
ATOM      2  C   UNL     1       0.002  -0.004   0.002  0.00  0.00    +0.068 C 
ATOM      3  C   UNL     1       0.704  -0.495  -1.268  0.00  0.00    +0.071 C 
ATOM      4  C   UNL     1       0.917  -2.002  -1.137  0.00  0.00    -0.019 A 
ATOM      5  C   UNL     1       0.838  -2.583   0.083  0.00  0.00    +0.021 A 
ATOM      6  S   UNL     1       1.142  -4.301  -0.211  0.00  0.00    -0.071 S 
ATOM      7  C   UNL     1       1.373  -4.232  -1.971  0.00  0.00    +0.115 A 
ATOM      8  C   UNL     1       1.205  -2.872  -2.270  0.00  0.00    +0.056 A 
ATOM      9  C   UNL     1       1.345  -2.522  -3.700  0.00  0.00    +0.174 A 
ATOM     10  N   UNL     1       1.265  -1.402  -4.376  0.00  0.00    -0.128 NA
ATOM     11  N   UNL     1       1.469  -1.634  -5.626  0.00  0.00    -0.122 NA
ATOM     12  C   UNL     1       1.691  -2.913  -5.822  0.00  0.00    +0.198 A 
ATOM     13  N   UNL     1       1.621  -3.528  -4.601  0.00  0.00    -0.248 N 
ATOM     14  C   UNL     1       1.762  -4.822  -4.176  0.00  0.00    +0.178 A 
ATOM     15  N   UNL     1       1.640  -5.139  -2.908  0.00  0.00    -0.216 NA
ATOM     16  C   UNL     1       0.555  -1.888   1.378  0.00  0.00    +0.203 C 
ATOM     17  O   UNL     1       0.694  -0.475   1.161  0.00  0.00    -0.368 OA
ATOM     18  C   UNL     1      -1.434  -0.531   0.020  0.00  0.00    +0.041 C 
ENDROOT
BRANCH  14  19
ATOM     19  S   UNL     1       2.115  -6.085  -5.353  0.00  0.00    -0.083 S 
BRANCH  19  20
ATOM     20  C   UNL     1       2.213  -7.598  -4.357  0.00  0.00    +0.112 C 
BRANCH  20  21
ATOM     21  C   UNL     1       2.514  -8.771  -5.254  0.00  0.00    -0.037 A 
ATOM     22  C   UNL     1       1.480  -9.485  -5.828  0.00  0.00    +0.004 A 
ATOM     23  C   UNL     1       1.756 -10.561  -6.651  0.00  0.00    +0.000 A 
ATOM     24  C   UNL     1       3.067 -10.922  -6.899  0.00  0.00    +0.000 A 
ATOM     25  C   UNL     1       4.102 -10.207  -6.326  0.00  0.00    +0.000 A 
ATOM     26  C   UNL     1       3.826  -9.129  -5.506  0.00  0.00    +0.004 A 
ENDBRANCH  20  21
ENDBRANCH  19  20
ENDBRANCH  14  19
BRANCH  12  27
ATOM     27  S   UNL     1       2.018  -3.693  -7.368  0.00  0.00    -0.076 S 
BRANCH  27  28
ATOM     28  C   UNL     1       1.970  -2.331  -8.565  0.00  0.00    +0.173 C 
BRANCH  28  29
ATOM     29  C   UNL     1       2.238  -2.868  -9.948  0.00  0.00    +0.223 C 
ATOM     30  O   UNL     1       2.441  -4.052 -10.109  0.00  0.00    -0.275 OA
ATOM     31  N   UNL     1       2.252  -2.031 -11.004  0.00  0.00    -0.314 N 
ATOM     32  H   UNL     1       2.090  -1.083 -10.875  0.00  0.00    +0.149 HD
BRANCH  31  33
ATOM     33  C   UNL     1       2.512  -2.553 -12.348  0.00  0.00    +0.109 C 
BRANCH  33  34
ATOM     34  C   UNL     1       2.472  -1.404 -13.358  0.00  0.00    +0.054 C 
BRANCH  34  35
ATOM     35  C   UNL     1       2.739  -1.941 -14.740  0.00  0.00    -0.046 A 
ATOM     36  C   UNL     1       4.036  -2.013 -15.215  0.00  0.00    +0.004 A 
ATOM     37  C   UNL     1       4.281  -2.506 -16.483  0.00  0.00    +0.000 A 
ATOM     38  C   UNL     1       3.230  -2.926 -17.277  0.00  0.00    +0.000 A 
ATOM     39  C   UNL     1       1.934  -2.855 -16.802  0.00  0.00    +0.000 A 
ATOM     40  C   UNL     1       1.689  -2.366 -15.532  0.00  0.00    +0.004 A 
ENDBRANCH  34  35
ENDBRANCH  33  34
ENDBRANCH  31  33
ENDBRANCH  28  29
ENDBRANCH  27  28
ENDBRANCH  12  27
TORSDOF 9
