REMARK  Name = ZINC54614680
REMARK  13 active torsions:
REMARK  status: ('A' for Active; 'I' for Inactive)
REMARK    1  A    between atoms: C_1  and  C_2
REMARK    2  A    between atoms: C_2  and  O_3
REMARK    3  A    between atoms: O_3  and  C_4
REMARK    4  A    between atoms: C_6  and  C_19
REMARK    5  A    between atoms: C_9  and  O_10
REMARK    6  A    between atoms: O_10  and  C_11
REMARK    7  A    between atoms: C_11  and  C_12
REMARK    8  A    between atoms: C_16  and  C_18
REMARK    9  A    between atoms: C_21  and  C_30
REMARK   10  A    between atoms: C_22  and  C_29
REMARK   11  A    between atoms: N_32  and  C_33
REMARK   12  A    between atoms: C_37  and  C_40
REMARK   13  A    between atoms: C_38  and  C_39
REMARK                            x       y       z     vdW  Elec       q    Type
REMARK                         _______ _______ _______ _____ _____    ______ ____
ROOT
ATOM      1  C   UNL     1       0.340  -4.501  -0.009  0.00  0.00    +0.179 C 
ATOM      2  C   UNL     1       0.866  -5.168  -1.252  0.00  0.00    +0.060 C 
ATOM      3  C   UNL     1       0.950  -6.499  -1.390  0.00  0.00    +0.018 C 
ATOM      4  N   UNL     1       0.570  -7.365  -0.393  0.00  0.00    -0.286 N 
ATOM      5  C   UNL     1       0.335  -6.827   0.864  0.00  0.00    +0.240 A 
ATOM      6  N   UNL     1       0.230  -5.487   1.060  0.00  0.00    -0.201 N 
ATOM      7  N   UNL     1       0.006  -5.325   2.426  0.00  0.00    -0.042 NA
ATOM      8  N   UNL     1      -0.014  -6.513   2.938  0.00  0.00    -0.021 NA
ATOM      9  N   UNL     1       0.178  -7.401   2.022  0.00  0.00    -0.092 NA
ATOM     10  C   UNL     1       1.480  -7.065  -2.683  0.00  0.00    +0.061 C 
ATOM     11  H   UNL     1       0.469  -8.315  -0.562  0.00  0.00    +0.155 HD
ENDROOT
BRANCH   1  14
ATOM     12  C   UNL     1      -2.444  -1.997  -0.511  0.00  0.00    +0.162 A 
ATOM     13  C   UNL     1      -1.196  -2.541  -0.252  0.00  0.00    +0.055 A 
ATOM     14  C   UNL     1      -1.018  -3.911  -0.291  0.00  0.00    -0.015 A 
ATOM     15  C   UNL     1      -2.082  -4.742  -0.589  0.00  0.00    +0.010 A 
ATOM     16  C   UNL     1      -3.330  -4.205  -0.849  0.00  0.00    +0.050 A 
ATOM     17  C   UNL     1      -3.517  -2.833  -0.805  0.00  0.00    +0.162 A 
BRANCH  12  18
ATOM     18  O   UNL     1      -2.621  -0.649  -0.472  0.00  0.00    -0.489 OA
BRANCH  18  20
ATOM     19  C   UNL     1      -1.832   1.633  -0.369  0.00  0.00    +0.048 C 
ATOM     20  C   UNL     1      -1.456   0.153  -0.270  0.00  0.00    +0.226 C 
ENDBRANCH  18  20
ENDBRANCH  12  18
BRANCH  17  21
ATOM     21  O   UNL     1      -4.745  -2.304  -1.055  0.00  0.00    -0.484 OA
BRANCH  21  22
ATOM     22  C   UNL     1      -5.799  -3.223  -1.350  0.00  0.00    +0.264 C 
BRANCH  22  23
ATOM     23  C   UNL     1      -7.075  -2.461  -1.597  0.00  0.00    -0.010 A 
ATOM     24  C   UNL     1      -7.924  -2.174  -0.544  0.00  0.00    +0.007 A 
ATOM     25  C   UNL     1      -9.094  -1.475  -0.770  0.00  0.00    +0.001 A 
ATOM     26  C   UNL     1      -9.416  -1.062  -2.050  0.00  0.00    +0.003 A 
ATOM     27  C   UNL     1      -8.567  -1.347  -3.102  0.00  0.00    -0.050 A 
ATOM     28  C   UNL     1      -7.394  -2.043  -2.875  0.00  0.00    +0.010 A 
ATOM     29  C   UNL     1      -8.917  -0.896  -4.497  0.00  0.00    +0.044 C 
ENDBRANCH  22  23
ENDBRANCH  21  22
ENDBRANCH  17  21
ENDBRANCH   1  14
BRANCH   2  30
ATOM     30  C   UNL     1       1.292  -4.351  -2.326  0.00  0.00    +0.248 C 
ATOM     31  O   UNL     1       2.402  -3.851  -2.308  0.00  0.00    -0.270 OA
ATOM     32  N   UNL     1       0.469  -4.127  -3.369  0.00  0.00    -0.281 N 
ATOM     33  H   UNL     1      -0.440  -4.467  -3.352  0.00  0.00    +0.155 HD
BRANCH  32  34
ATOM     34  C   UNL     1       0.924  -3.404  -4.477  0.00  0.00    +0.037 A 
ATOM     35  C   UNL     1       2.287  -3.261  -4.702  0.00  0.00    +0.023 A 
ATOM     36  C   UNL     1       2.733  -2.547  -5.796  0.00  0.00    +0.002 A 
ATOM     37  C   UNL     1       1.825  -1.974  -6.668  0.00  0.00    +0.004 A 
ATOM     38  C   UNL     1       0.467  -2.114  -6.446  0.00  0.00    -0.046 A 
ATOM     39  C   UNL     1       0.014  -2.832  -5.356  0.00  0.00    -0.026 A 
ATOM     40  C   UNL     1      -1.466  -2.989  -5.119  0.00  0.00    +0.046 C 
ATOM     41  C   UNL     1      -0.519  -1.488  -7.398  0.00  0.00    +0.044 C 
ENDBRANCH  32  34
ENDBRANCH   2  30
TORSDOF 8
