REMARK  Name = ZINC05833428
REMARK  9 active torsions:
REMARK  status: ('A' for Active; 'I' for Inactive)
REMARK    1  A    between atoms: C_1  and  C_2
REMARK    2  A    between atoms: C_3  and  C_4
REMARK    3  A    between atoms: C_11  and  C_32
REMARK    4  A    between atoms: C_17  and  C_18
REMARK    5  A    between atoms: C_17  and  C_19
REMARK    6  A    between atoms: C_19  and  C_20
REMARK    7  A    between atoms: C_23  and  C_29
REMARK    8  A    between atoms: N_25  and  C_28
REMARK    9  A    between atoms: C_29  and  O_30
REMARK                            x       y       z     vdW  Elec       q    Type
REMARK                         _______ _______ _______ _____ _____    ______ ____
ROOT
ATOM      1  C   UNL     1      -1.877  -2.135  -0.118  0.00  0.00    +0.047 C 
ATOM      2  C   UNL     1      -3.014  -2.802  -0.835  0.00  0.00    -0.022 C 
ATOM      3  C   UNL     1      -3.937  -3.508  -0.257  0.00  0.00    -0.027 C 
ATOM      4  C   UNL     1      -3.968  -3.759   1.218  0.00  0.00    +0.016 C 
ATOM      5  C   UNL     1      -5.388  -3.714   1.775  0.00  0.00    +0.011 C 
ATOM      6  C   UNL     1      -5.343  -4.056   3.268  0.00  0.00    -0.014 C 
ATOM      7  C   UNL     1      -4.455  -3.056   4.008  0.00  0.00    +0.003 C 
ATOM      8  C   UNL     1      -3.038  -3.078   3.424  0.00  0.00    +0.005 C 
ATOM      9  C   UNL     1      -3.129  -2.705   1.944  0.00  0.00    +0.010 C 
ATOM     10  C   UNL     1      -1.740  -2.677   1.308  0.00  0.00    +0.044 C 
ATOM     11  C   UNL     1      -1.161  -4.093   1.269  0.00  0.00    +0.020 C 
ATOM     12  C   UNL     1      -6.759  -3.997   3.845  0.00  0.00    +0.007 C 
ENDROOT
BRANCH   1  15
ATOM     13  C   UNL     1      -1.538   1.663  -0.568  0.00  0.00    +0.035 C 
ATOM     14  C   UNL     1      -1.286   0.179  -0.624  0.00  0.00    -0.034 C 
ATOM     15  C   UNL     1      -2.130  -0.651  -0.062  0.00  0.00    -0.023 C 
ENDBRANCH   1  15
BRANCH  10  16
ATOM     16  C   UNL     1      -0.833  -1.778   2.108  0.00  0.00    +0.179 C 
ATOM     17  O   UNL     1      -1.282  -1.129   3.030  0.00  0.00    -0.291 OA
BRANCH  16  18
ATOM     18  C   UNL     1       0.587  -1.688   1.774  0.00  0.00    +0.124 C 
ATOM     19  C   UNL     1       1.538  -0.998   2.497  0.00  0.00    +0.194 C 
ATOM     20  O   UNL     1       1.341  -0.294   3.621  0.00  0.00    -0.290 OA
ATOM     21  C   UNL     1       2.849  -1.195   1.769  0.00  0.00    +0.173 C 
ATOM     22  N   UNL     1       2.547  -2.036   0.605  0.00  0.00    -0.288 N 
ATOM     23  C   UNL     1       1.234  -2.321   0.619  0.00  0.00    +0.254 C 
ATOM     24  O   UNL     1       0.662  -3.005  -0.209  0.00  0.00    -0.270 OA
ATOM     25  C   UNL     1       3.513  -2.490  -0.398  0.00  0.00    +0.133 C 
BRANCH  21  26
ATOM     26  C   UNL     1       3.406   0.156   1.314  0.00  0.00    +0.186 C 
BRANCH  26  27
ATOM     27  O   UNL     1       2.413   0.851   0.558  0.00  0.00    -0.393 OA
ATOM     28  H   UNL     1       2.697   1.717   0.236  0.00  0.00    +0.209 HD
ENDBRANCH  26  27
ENDBRANCH  21  26
ENDBRANCH  16  18
ENDBRANCH  10  16
TORSDOF 5
