REMARK  Name = ZINC39757012
REMARK  10 active torsions:
REMARK  status: ('A' for Active; 'I' for Inactive)
REMARK    1  A    between atoms: C_1  and  C_2
REMARK    2  A    between atoms: C_2  and  C_4
REMARK    3  A    between atoms: C_2  and  N_23
REMARK    4  A    between atoms: C_7  and  S_10
REMARK    5  A    between atoms: N_8  and  C_9
REMARK    6  A    between atoms: S_10  and  C_11
REMARK    7  A    between atoms: C_11  and  C_12
REMARK    8  A    between atoms: C_12  and  C_14
REMARK    9  A    between atoms: C_18  and  N_20
REMARK   10  A    between atoms: C_24  and  C_26
REMARK                            x       y       z     vdW  Elec       q    Type
REMARK                         _______ _______ _______ _____ _____    ______ ____
ROOT
ATOM      1  C   UNL     1       0.731  -0.503   1.223  0.00  0.00    +0.154 A 
ATOM      2  N   UNL     1       0.272  -0.523   2.442  0.00  0.00    -0.132 NA
ATOM      3  N   UNL     1       1.154  -1.013   3.238  0.00  0.00    -0.122 NA
ATOM      4  C   UNL     1       2.233  -1.336   2.563  0.00  0.00    +0.192 A 
ATOM      5  N   UNL     1       1.994  -1.025   1.255  0.00  0.00    -0.308 N 
ATOM      6  C   UNL     1       2.905  -1.210   0.122  0.00  0.00    +0.152 C 
ENDROOT
BRANCH   1   8
ATOM      7  C   UNL     1      -0.019   1.526   0.010  0.00  0.00    +0.036 C 
ATOM      8  C   UNL     1       0.002  -0.004   0.002  0.00  0.00    +0.138 C 
BRANCH   8   9
ATOM      9  N   UNL     1      -1.372  -0.511   0.012  0.00  0.00    -0.302 N 
ATOM     10  C   UNL     1      -2.051  -0.643  -1.145  0.00  0.00    +0.245 C 
ATOM     11  O   UNL     1      -1.522  -0.341  -2.197  0.00  0.00    -0.270 OA
ATOM     12  H   UNL     1      -1.794  -0.752   0.852  0.00  0.00    +0.150 HD
BRANCH  10  13
ATOM     13  C   UNL     1      -3.437  -1.154  -1.134  0.00  0.00    +0.038 A 
ATOM     14  C   UNL     1      -4.049  -1.497   0.073  0.00  0.00    +0.014 A 
ATOM     15  C   UNL     1      -5.343  -1.974   0.078  0.00  0.00    +0.022 A 
ATOM     16  C   UNL     1      -6.036  -2.114  -1.113  0.00  0.00    +0.059 A 
ATOM     17  C   UNL     1      -5.435  -1.776  -2.315  0.00  0.00    +0.060 A 
ATOM     18  C   UNL     1      -4.143  -1.292  -2.331  0.00  0.00    +0.034 A 
ATOM     19 CL   UNL     1      -6.311  -1.955  -3.803  0.00  0.00    -0.082 Cl
ATOM     20 CL   UNL     1      -7.664  -2.716  -1.099  0.00  0.00    -0.082 Cl
ENDBRANCH  10  13
ENDBRANCH   8   9
ENDBRANCH   1   8
BRANCH   4  21
ATOM     21  S   UNL     1       3.707  -2.043   3.221  0.00  0.00    -0.078 S 
BRANCH  21  22
ATOM     22  C   UNL     1       3.364  -2.203   4.995  0.00  0.00    +0.157 C 
BRANCH  22  23
ATOM     23  C   UNL     1       4.561  -2.803   5.686  0.00  0.00    +0.173 C 
ATOM     24  O   UNL     1       5.548  -3.094   5.045  0.00  0.00    -0.291 OA
BRANCH  23  25
ATOM     25  C   UNL     1       4.532  -3.037   7.138  0.00  0.00    +0.020 A 
ATOM     26  C   UNL     1       3.393  -2.708   7.880  0.00  0.00    +0.011 A 
ATOM     27  C   UNL     1       3.373  -2.929   9.241  0.00  0.00    +0.003 A 
ATOM     28  C   UNL     1       4.477  -3.475   9.873  0.00  0.00    +0.033 A 
ATOM     29  C   UNL     1       5.607  -3.803   9.146  0.00  0.00    +0.127 A 
ATOM     30  C   UNL     1       5.640  -3.593   7.783  0.00  0.00    +0.044 A 
BRANCH  29  31
ATOM     31  N   UNL     1       6.782  -4.387   9.832  0.00  0.00    +0.056 N 
ATOM     32  O   UNL     1       6.753  -4.576  11.025  0.00  0.00    -0.126 OA
ATOM     33  O   UNL     1       7.771  -4.674   9.198  0.00  0.00    -0.126 OA
ENDBRANCH  29  31
ENDBRANCH  23  25
ENDBRANCH  22  23
ENDBRANCH  21  22
ENDBRANCH   4  21
TORSDOF 8
