REMARK  Name = ZINC39708290
REMARK  10 active torsions:
REMARK  status: ('A' for Active; 'I' for Inactive)
REMARK    1  A    between atoms: C_1  and  C_2
REMARK    2  A    between atoms: N_11  and  C_12
REMARK    3  A    between atoms: C_12  and  C_13
REMARK    4  A    between atoms: C_13  and  C_14
REMARK    5  A    between atoms: C_14  and  N_15
REMARK    6  A    between atoms: C_20  and  C_22
REMARK    7  A    between atoms: C_25  and  S_28
REMARK    8  A    between atoms: S_28  and  C_29
REMARK    9  A    between atoms: C_29  and  C_30
REMARK   10  A    between atoms: C_29  and  C_31
REMARK                            x       y       z     vdW  Elec       q    Type
REMARK                         _______ _______ _______ _____ _____    ______ ____
ROOT
ATOM      1  C   UNL     1      -4.745   1.400   3.179  0.00  0.00    +0.046 C 
ATOM      2  C   UNL     1      -4.050   0.179   2.634  0.00  0.00    -0.023 A 
ATOM      3  C   UNL     1      -4.678  -0.596   1.694  0.00  0.00    +0.025 A 
ATOM      4  C   UNL     1      -4.073  -1.728   1.166  0.00  0.00    +0.042 A 
ATOM      5  C   UNL     1      -2.807  -2.083   1.598  0.00  0.00    +0.037 A 
ATOM      6  C   UNL     1      -2.171  -1.312   2.539  0.00  0.00    +0.042 A 
ATOM      7  C   UNL     1      -2.754  -0.150   3.094  0.00  0.00    +0.083 A 
ATOM      8  N   UNL     1      -2.001   0.504   4.005  0.00  0.00    -0.224 NA
ATOM      9  C   UNL     1      -0.803   0.097   4.353  0.00  0.00    +0.168 A 
ATOM     10  S   UNL     1      -0.598  -1.377   3.362  0.00  0.00    -0.052 S 
ATOM     11  N   UNL     1       0.076   0.660   5.263  0.00  0.00    -0.246 N 
ATOM     12  C   UNL     1       0.605   1.876   5.024  0.00  0.00    +0.252 C 
ATOM     13  O   UNL     1       1.453   2.327   5.769  0.00  0.00    -0.270 OA
ATOM     14 CL   UNL     1      -4.896  -2.688  -0.023  0.00  0.00    -0.083 Cl
ENDROOT
BRANCH  12  15
ATOM     15  C   UNL     1       0.156   2.660   3.858  0.00  0.00    +0.037 A 
ATOM     16  C   UNL     1      -0.108   2.019   2.643  0.00  0.00    +0.014 A 
ATOM     17  C   UNL     1      -0.525   2.748   1.565  0.00  0.00    +0.015 A 
ATOM     18  C   UNL     1      -0.686   4.127   1.675  0.00  0.00    +0.008 A 
ATOM     19  C   UNL     1      -0.423   4.768   2.884  0.00  0.00    +0.015 A 
ATOM     20  C   UNL     1      -0.012   4.044   3.967  0.00  0.00    +0.014 A 
BRANCH  18  21
ATOM     21  S   UNL     1      -1.222   5.064   0.282  0.00  0.00    -0.122 S 
BRANCH  21  22
ATOM     22  C   UNL     1      -3.029   4.904   0.316  0.00  0.00    +0.045 C 
ATOM     23  C   UNL     1      -3.584   5.653   1.529  0.00  0.00    +0.019 C 
ATOM     24  C   UNL     1      -3.617   5.500  -0.965  0.00  0.00    +0.019 C 
ENDBRANCH  21  22
ENDBRANCH  18  21
ENDBRANCH  12  15
BRANCH  11  25
ATOM     25  C   UNL     1       0.430  -0.066   6.485  0.00  0.00    +0.117 C 
BRANCH  25  26
ATOM     26  C   UNL     1       1.661  -0.936   6.223  0.00  0.00    +0.041 C 
BRANCH  26  27
ATOM     27  C   UNL     1       2.031  -1.694   7.500  0.00  0.00    +0.124 C 
BRANCH  27  28
ATOM     28  N   UNL     1       3.210  -2.527   7.249  0.00  0.00    -0.338 N 
ATOM     29  C   UNL     1       3.210  -3.819   6.799  0.00  0.00    +0.104 A 
ATOM     30  C   UNL     1       4.498  -4.200   6.708  0.00  0.00    +0.101 A 
ATOM     31  N   UNL     1       5.264  -3.168   7.092  0.00  0.00    -0.352 N 
ATOM     32  C   UNL     1       4.499  -2.160   7.413  0.00  0.00    +0.173 A 
ATOM     33  H   UNL     1       6.234  -3.169   7.123  0.00  0.00    +0.166 HD
ENDBRANCH  27  28
ENDBRANCH  26  27
ENDBRANCH  25  26
ENDBRANCH  11  25
TORSDOF 7
