REMARK  Name = ZINC04232952
REMARK  12 active torsions:
REMARK  status: ('A' for Active; 'I' for Inactive)
REMARK    1  A    between atoms: C_1  and  C_2
REMARK    2  A    between atoms: C_5  and  S_8
REMARK    3  A    between atoms: S_8  and  N_11
REMARK    4  A    between atoms: N_11  and  C_12
REMARK    5  A    between atoms: C_20  and  N_26
REMARK    6  A    between atoms: N_26  and  C_27
REMARK    7  A    between atoms: N_26  and  S_32
REMARK    8  A    between atoms: C_27  and  C_28
REMARK    9  A    between atoms: C_28  and  O_30
REMARK   10  A    between atoms: O_30  and  C_31
REMARK   11  A    between atoms: S_32  and  C_35
REMARK   12  A    between atoms: C_38  and  C_41
REMARK                            x       y       z     vdW  Elec       q    Type
REMARK                         _______ _______ _______ _____ _____    ______ ____
ROOT
ATOM      1  C   UNL     1       7.457   5.780  -4.675  0.00  0.00    +0.050 A 
ATOM      2  C   UNL     1       7.046   5.185  -5.877  0.00  0.00    +0.025 A 
ATOM      3  C   UNL     1       5.983   4.344  -5.923  0.00  0.00    +0.012 A 
ATOM      4  C   UNL     1       5.267   4.056  -4.742  0.00  0.00    +0.001 A 
ATOM      5  C   UNL     1       4.167   3.196  -4.757  0.00  0.00    +0.020 A 
ATOM      6  C   UNL     1       3.506   2.958  -3.550  0.00  0.00    +0.001 A 
ATOM      7  C   UNL     1       2.388   2.100  -3.487  0.00  0.00    +0.012 A 
ATOM      8  C   UNL     1       1.772   1.885  -2.298  0.00  0.00    +0.025 A 
ATOM      9  C   UNL     1       2.213   2.506  -1.121  0.00  0.00    +0.054 A 
ATOM     10  C   UNL     1       3.297   3.353  -1.119  0.00  0.00    +0.053 A 
ATOM     11  C   UNL     1       3.980   3.609  -2.324  0.00  0.00    +0.073 A 
ATOM     12  N   UNL     1       5.032   4.423  -2.350  0.00  0.00    -0.247 NA
ATOM     13  C   UNL     1       5.687   4.674  -3.481  0.00  0.00    +0.073 A 
ATOM     14  C   UNL     1       6.798   5.538  -3.492  0.00  0.00    +0.052 A 
ENDROOT
BRANCH   1  15
ATOM     15  N   UNL     1       8.556   6.636  -4.680  0.00  0.00    -0.216 N 
ATOM     16  H   UNL     1       9.235   6.557  -3.992  0.00  0.00    +0.174 HD
BRANCH  15  17
ATOM     17  S   UNL     1       8.704   7.787  -5.862  0.00  0.00    +0.072 S 
ATOM     18  O   UNL     1       9.897   8.506  -5.581  0.00  0.00    -0.150 OA
ATOM     19  O   UNL     1       8.486   7.127  -7.101  0.00  0.00    -0.150 OA
BRANCH  17  24
ATOM     20  C   UNL     1       4.141  11.670  -5.150  0.00  0.00    +0.044 C 
ATOM     21  C   UNL     1       5.281  10.700  -5.328  0.00  0.00    -0.050 A 
ATOM     22  C   UNL     1       6.481  10.918  -4.678  0.00  0.00    +0.005 A 
ATOM     23  C   UNL     1       7.527  10.028  -4.841  0.00  0.00    +0.029 A 
ATOM     24  C   UNL     1       7.371   8.921  -5.654  0.00  0.00    +0.109 A 
ATOM     25  C   UNL     1       6.172   8.706  -6.307  0.00  0.00    +0.029 A 
ATOM     26  C   UNL     1       5.125   9.593  -6.140  0.00  0.00    +0.005 A 
ENDBRANCH  17  24
ENDBRANCH  15  17
ENDBRANCH   1  15
BRANCH   9  27
ATOM     27  N   UNL     1       1.542   2.257   0.073  0.00  0.00    -0.192 N 
BRANCH  27  28
ATOM     28  S   UNL     1      -0.055   2.667   0.227  0.00  0.00    +0.075 S 
ATOM     29  O   UNL     1      -0.289   3.736  -0.679  0.00  0.00    -0.150 OA
ATOM     30  O   UNL     1      -0.314   2.779   1.620  0.00  0.00    -0.150 OA
BRANCH  28  31
ATOM     31  C   UNL     1      -1.003   1.300  -0.353  0.00  0.00    +0.109 A 
ATOM     32  C   UNL     1      -1.462   1.280  -1.657  0.00  0.00    +0.029 A 
ATOM     33  C   UNL     1      -2.202   0.205  -2.113  0.00  0.00    +0.005 A 
ATOM     34  C   UNL     1      -2.491  -0.846  -1.262  0.00  0.00    -0.050 A 
ATOM     35  C   UNL     1      -2.036  -0.824   0.043  0.00  0.00    +0.005 A 
ATOM     36  C   UNL     1      -1.292   0.249   0.498  0.00  0.00    +0.029 A 
ATOM     37  C   UNL     1      -3.301  -2.016  -1.758  0.00  0.00    +0.044 C 
ENDBRANCH  28  31
ENDBRANCH  27  28
BRANCH  27  38
ATOM     38  C   UNL     1       2.248   1.631   1.194  0.00  0.00    +0.251 C 
BRANCH  38  39
ATOM     39  C   UNL     1       2.219   0.133   1.032  0.00  0.00    +0.326 C 
ATOM     40  O   UNL     1       1.665  -0.361   0.079  0.00  0.00    -0.249 OA
BRANCH  39  41
ATOM     41  O   UNL     1       2.809  -0.652   1.948  0.00  0.00    -0.467 OA
ATOM     42  C   UNL     1       2.742  -2.086   1.728  0.00  0.00    +0.280 C 
ENDBRANCH  39  41
ENDBRANCH  38  39
ENDBRANCH  27  38
ENDBRANCH   9  27
TORSDOF 9
