REMARK  Name = ZINC01375054
REMARK  11 active torsions:
REMARK  status: ('A' for Active; 'I' for Inactive)
REMARK    1  A    between atoms: C_1  and  C_2
REMARK    2  A    between atoms: C_2  and  C_3
REMARK    3  A    between atoms: C_3  and  C_5
REMARK    4  A    between atoms: C_3  and  N_15
REMARK    5  A    between atoms: N_9  and  C_10
REMARK    6  A    between atoms: N_15  and  C_16
REMARK    7  A    between atoms: N_15  and  C_26
REMARK    8  A    between atoms: C_16  and  C_17
REMARK    9  A    between atoms: C_26  and  C_27
REMARK   10  A    between atoms: C_31  and  C_40
REMARK   11  A    between atoms: C_32  and  C_39
REMARK                            x       y       z     vdW  Elec       q    Type
REMARK                         _______ _______ _______ _____ _____    ______ ____
ROOT
ATOM      1  N   UNL     1       1.835   0.001  -1.018  0.00  0.00    -0.284 NA
ENDROOT
BRANCH   1   2
ATOM      2  C   UNL     1       0.635  -0.710  -1.479  0.00  0.00    +0.127 C 
BRANCH   2   3
ATOM      3  C   UNL     1      -0.519  -0.395  -0.561  0.00  0.00    +0.169 A 
ATOM      4  N   UNL     1      -0.878   0.791  -0.135  0.00  0.00    -0.112 NA
ATOM      5  N   UNL     1      -1.907   0.645   0.627  0.00  0.00    -0.023 NA
ATOM      6  N   UNL     1      -2.213  -0.603   0.698  0.00  0.00    -0.044 NA
ATOM      7  N   UNL     1      -1.383  -1.276  -0.026  0.00  0.00    -0.225 N 
BRANCH   7   8
ATOM      8  C   UNL     1      -1.381  -2.728  -0.224  0.00  0.00    +0.111 C 
ATOM      9  C   UNL     1      -2.740  -3.186  -0.794  0.00  0.00    +0.027 C 
ATOM     10  C   UNL     1      -3.001  -4.548  -0.103  0.00  0.00    +0.002 C 
ATOM     11  C   UNL     1      -2.465  -4.313   1.331  0.00  0.00    +0.002 C 
ATOM     12  C   UNL     1      -1.206  -3.444   1.126  0.00  0.00    +0.027 C 
ENDBRANCH   7   8
ENDBRANCH   2   3
BRANCH   2  14
ATOM     13  C   UNL     1       1.431  -0.650  -3.846  0.00  0.00    +0.006 C 
ATOM     14  C   UNL     1       0.292  -0.262  -2.901  0.00  0.00    +0.023 C 
ENDBRANCH   2  14
ENDBRANCH   1   2
BRANCH   1  15
ATOM     15  C   UNL     1       2.322  -0.558   0.251  0.00  0.00    +0.120 C 
BRANCH  15  16
ATOM     16  C   UNL     1       3.024  -1.865  -0.013  0.00  0.00    -0.030 A 
ATOM     17  C   UNL     1       2.299  -3.042  -0.051  0.00  0.00    +0.009 A 
ATOM     18  C   UNL     1       2.938  -4.243  -0.293  0.00  0.00    +0.050 A 
ATOM     19  C   UNL     1       4.308  -4.271  -0.497  0.00  0.00    +0.166 A 
ATOM     20  C   UNL     1       5.039  -3.086  -0.458  0.00  0.00    +0.167 A 
ATOM     21  C   UNL     1       4.391  -1.885  -0.221  0.00  0.00    +0.054 A 
ATOM     22  O   UNL     1       6.353  -3.376  -0.686  0.00  0.00    -0.453 OA
ATOM     23  C   UNL     1       6.479  -4.792  -0.459  0.00  0.00    +0.466 C 
ATOM     24  O   UNL     1       5.165  -5.303  -0.750  0.00  0.00    -0.453 OA
ENDBRANCH  15  16
ENDBRANCH   1  15
BRANCH   1  25
ATOM     25  C   UNL     1       1.579   1.442  -0.894  0.00  0.00    +0.126 C 
BRANCH  25  26
ATOM     26  C   UNL     1       2.891   2.182  -0.837  0.00  0.00    +0.031 A 
ATOM     27  C   UNL     1       3.439   2.673  -1.976  0.00  0.00    +0.020 A 
ATOM     28  C   UNL     1       4.714   3.388  -1.886  0.00  0.00    -0.001 A 
ATOM     29  C   UNL     1       5.328   3.917  -3.026  0.00  0.00    +0.013 A 
ATOM     30  C   UNL     1       6.518   4.579  -2.908  0.00  0.00    -0.047 A 
ATOM     31  C   UNL     1       7.122   4.730  -1.668  0.00  0.00    -0.046 A 
ATOM     32  C   UNL     1       6.535   4.216  -0.532  0.00  0.00    +0.030 A 
ATOM     33  C   UNL     1       5.324   3.539  -0.627  0.00  0.00    +0.049 A 
ATOM     34  N   UNL     1       4.714   3.016   0.493  0.00  0.00    -0.322 N 
ATOM     35  H   UNL     1       5.136   3.122   1.361  0.00  0.00    +0.169 HD
ATOM     36  C   UNL     1       3.541   2.366   0.402  0.00  0.00    +0.254 A 
ATOM     37  O   UNL     1       3.028   1.921   1.414  0.00  0.00    -0.268 OA
ATOM     38  C   UNL     1       8.435   5.464  -1.562  0.00  0.00    +0.044 C 
ATOM     39  C   UNL     1       7.179   5.150  -4.136  0.00  0.00    +0.044 C 
ENDBRANCH  25  26
ENDBRANCH   1  25
TORSDOF 8
