REMARK  Name = ZINC00493369
REMARK  8 active torsions:
REMARK  status: ('A' for Active; 'I' for Inactive)
REMARK    1  A    between atoms: C_1  and  C_2
REMARK    2  A    between atoms: C_5  and  N_8
REMARK    3  A    between atoms: N_8  and  C_9
REMARK    4  A    between atoms: C_9  and  N_11
REMARK    5  A    between atoms: N_11  and  N_12
REMARK    6  A    between atoms: N_12  and  C_13
REMARK    7  A    between atoms: C_13  and  N_15
REMARK    8  A    between atoms: N_15  and  C_16
REMARK                            x       y       z     vdW  Elec       q    Type
REMARK                         _______ _______ _______ _____ _____    ______ ____
ROOT
ATOM      1  N   UNL     1       2.473  -4.077  -0.254  0.00  0.00    -0.246 N 
ATOM      2  H   UNL     1       3.298  -4.578  -0.152  0.00  0.00    +0.172 HD
ENDROOT
BRANCH   1   3
ATOM      3  C   UNL     1       2.483  -2.733  -0.154  0.00  0.00    +0.151 C 
ATOM      4  S   UNL     1       3.953  -1.909   0.151  0.00  0.00    -0.017 S 
BRANCH   3   5
ATOM      5  N   UNL     1       1.337  -2.038  -0.294  0.00  0.00    -0.296 N 
ATOM      6  H   UNL     1       0.493  -2.507  -0.386  0.00  0.00    +0.154 HD
BRANCH   5  11
ATOM      7  C   UNL     1       1.448   3.634  -0.351  0.00  0.00    +0.044 C 
ATOM      8  C   UNL     1       1.419   2.127  -0.336  0.00  0.00    -0.050 A 
ATOM      9  C   UNL     1       2.387   1.411  -1.016  0.00  0.00    +0.005 A 
ATOM     10  C   UNL     1       2.363   0.030  -1.004  0.00  0.00    +0.023 A 
ATOM     11  C   UNL     1       1.365  -0.639  -0.308  0.00  0.00    +0.033 A 
ATOM     12  C   UNL     1       0.394   0.082   0.374  0.00  0.00    +0.023 A 
ATOM     13  C   UNL     1       0.424   1.463   0.358  0.00  0.00    +0.005 A 
ENDBRANCH   5  11
ENDBRANCH   3   5
ENDBRANCH   1   3
BRANCH   1  14
ATOM     14  N   UNL     1       1.270  -4.752  -0.503  0.00  0.00    -0.246 N 
ATOM     15  H   UNL     1       0.446  -4.251  -0.604  0.00  0.00    +0.172 HD
BRANCH  14  16
ATOM     16  C   UNL     1       1.260  -6.096  -0.603  0.00  0.00    +0.151 C 
ATOM     17  S   UNL     1      -0.209  -6.920  -0.907  0.00  0.00    -0.017 S 
BRANCH  16  18
ATOM     18  N   UNL     1       2.406  -6.791  -0.462  0.00  0.00    -0.296 N 
ATOM     19  H   UNL     1       3.223  -6.333  -0.210  0.00  0.00    +0.154 HD
BRANCH  18  20
ATOM     20  C   UNL     1       2.417  -8.174  -0.680  0.00  0.00    +0.033 A 
ATOM     21  C   UNL     1       3.128  -9.007   0.175  0.00  0.00    +0.026 A 
ATOM     22  C   UNL     1       3.132 -10.371  -0.039  0.00  0.00    +0.040 A 
ATOM     23  C   UNL     1       2.439 -10.908  -1.110  0.00  0.00    +0.124 A 
ATOM     24  C   UNL     1       1.734 -10.079  -1.966  0.00  0.00    +0.040 A 
ATOM     25  C   UNL     1       1.722  -8.714  -1.753  0.00  0.00    +0.026 A 
ATOM     26  F   UNL     1       2.450 -12.242  -1.320  0.00  0.00    -0.205 F 
ENDBRANCH  18  20
ENDBRANCH  16  18
ENDBRANCH  14  16
ENDBRANCH   1  14
TORSDOF 7
