REMARK  Name = ZINC51112969
REMARK  9 active torsions:
REMARK  status: ('A' for Active; 'I' for Inactive)
REMARK    1  A    between atoms: C_1  and  C_2
REMARK    2  A    between atoms: C_2  and  C_3
REMARK    3  A    between atoms: C_3  and  C_5
REMARK    4  A    between atoms: C_3  and  C_6
REMARK    5  A    between atoms: C_6  and  C_8
REMARK    6  A    between atoms: C_6  and  N_9
REMARK    7  A    between atoms: C_10  and  C_12
REMARK    8  A    between atoms: C_17  and  N_18
REMARK    9  A    between atoms: N_18  and  N_19
REMARK                            x       y       z     vdW  Elec       q    Type
REMARK                         _______ _______ _______ _____ _____    ______ ____
ROOT
ATOM      1  C   UNL     1      -4.446  -4.265   0.721  0.00  0.00    +0.079 A 
ATOM      2  C   UNL     1      -5.497  -3.485   0.226  0.00  0.00    +0.033 A 
ATOM      3  C   UNL     1      -6.779  -4.006   0.268  0.00  0.00    +0.037 A 
ATOM      4  C   UNL     1      -6.984  -5.271   0.793  0.00  0.00    +0.128 A 
ATOM      5  N   UNL     1      -5.980  -5.990   1.254  0.00  0.00    -0.237 NA
ATOM      6  C   UNL     1      -4.734  -5.542   1.233  0.00  0.00    +0.144 A 
ATOM      7 BR   UNL     1      -8.239  -2.997  -0.385  0.00  0.00    -0.049 Br
ENDROOT
BRANCH   1   9
ATOM      8  N   UNL     1      -2.781  -2.589   0.095  0.00  0.00    -0.308 N 
ATOM      9  C   UNL     1      -3.062  -3.760   0.700  0.00  0.00    +0.248 C 
ATOM     10  O   UNL     1      -2.173  -4.399   1.229  0.00  0.00    -0.270 OA
ATOM     11  H   UNL     1      -3.490  -2.079  -0.327  0.00  0.00    +0.149 HD
BRANCH   8  12
ATOM     12  C   UNL     1      -1.405  -2.086   0.074  0.00  0.00    +0.073 C 
ATOM     13  C   UNL     1      -0.653  -2.708  -1.105  0.00  0.00    +0.028 C 
BRANCH  12  14
ATOM     14  C   UNL     1      -1.420  -0.564  -0.077  0.00  0.00    +0.006 C 
ATOM     15  C   UNL     1      -2.121  -0.187  -1.384  0.00  0.00    +0.009 C 
BRANCH  14  17
ATOM     16  C   UNL     1       0.001   1.491  -0.123  0.00  0.00    +0.004 C 
ATOM     17  C   UNL     1       0.017  -0.039  -0.099  0.00  0.00    +0.002 C 
ENDBRANCH  14  17
ENDBRANCH  12  14
ENDBRANCH   8  12
ENDBRANCH   1   9
BRANCH   6  18
ATOM     18  N   UNL     1      -3.710  -6.333   1.722  0.00  0.00    -0.267 N 
ATOM     19  H   UNL     1      -2.810  -5.977   1.786  0.00  0.00    +0.167 HD
BRANCH  18  20
ATOM     20  N   UNL     1      -3.967  -7.616   2.116  0.00  0.00    -0.255 NA
ATOM     21  H   UNL     1      -4.391  -8.145   1.369  0.00  0.00    +0.140 HD
ATOM     22  H   UNL     1      -3.128  -8.067   2.448  0.00  0.00    +0.140 HD
ENDBRANCH  18  20
ENDBRANCH   6  18
TORSDOF 6
