REMARK  Name = ZINC28313221
REMARK  5 active torsions:
REMARK  status: ('A' for Active; 'I' for Inactive)
REMARK    1  A    between atoms: C_6  and  N_11
REMARK    2  A    between atoms: C_12  and  C_14
REMARK    3  A    between atoms: C_14  and  N_25
REMARK    4  A    between atoms: C_15  and  C_16
REMARK    5  A    between atoms: C_26  and  C_28
REMARK                            x       y       z     vdW  Elec       q    Type
REMARK                         _______ _______ _______ _____ _____    ______ ____
ROOT
ATOM      1  C   UNL     1       0.104   0.076   0.218  0.00  0.00    +0.097 C 
ATOM      2  C   UNL     1      -0.910  -0.659  -0.296  0.00  0.00    +0.036 C 
ENDROOT
BRANCH   2   3
ATOM      3  C   UNL     1      -0.765  -2.115  -0.439  0.00  0.00    -0.019 A 
ATOM      4  C   UNL     1       0.420  -2.655  -0.952  0.00  0.00    +0.012 A 
ATOM      5  C   UNL     1       0.555  -4.020  -1.079  0.00  0.00    +0.050 A 
ATOM      6  C   UNL     1      -0.484  -4.863  -0.711  0.00  0.00    +0.166 A 
ATOM      7  C   UNL     1      -1.671  -4.332  -0.203  0.00  0.00    +0.167 A 
ATOM      8  C   UNL     1      -1.813  -2.965  -0.067  0.00  0.00    +0.057 A 
ATOM      9  O   UNL     1      -2.523  -5.361   0.079  0.00  0.00    -0.453 OA
ATOM     10  C   UNL     1      -1.699  -6.540   0.126  0.00  0.00    +0.466 C 
ATOM     11  O   UNL     1      -0.597  -6.223  -0.745  0.00  0.00    -0.453 OA
ENDBRANCH   2   3
BRANCH   1  13
ATOM     12  N   UNL     1       2.324   0.125   1.230  0.00  0.00    -0.280 N 
ATOM     13  C   UNL     1       1.249  -0.594   0.849  0.00  0.00    +0.262 C 
ATOM     14  O   UNL     1       1.226  -1.797   1.029  0.00  0.00    -0.268 OA
ATOM     15  H   UNL     1       2.313   1.221   1.138  0.00  0.00    +0.155 HD
BRANCH  12  21
ATOM     16  C   UNL     1       8.046  -2.005   3.008  0.00  0.00    +0.001 A 
ATOM     17  C   UNL     1       8.211  -0.868   2.220  0.00  0.00    +0.001 A 
ATOM     18  C   UNL     1       7.136  -0.210   1.706  0.00  0.00    +0.008 A 
ATOM     19  C   UNL     1       5.839  -0.683   1.971  0.00  0.00    -0.016 A 
ATOM     20  C   UNL     1       4.707  -0.030   1.457  0.00  0.00    +0.031 A 
ATOM     21  C   UNL     1       3.452  -0.523   1.739  0.00  0.00    +0.034 A 
ATOM     22  C   UNL     1       3.296  -1.663   2.537  0.00  0.00    +0.024 A 
ATOM     23  C   UNL     1       4.375  -2.316   3.041  0.00  0.00    +0.010 A 
ATOM     24  C   UNL     1       5.671  -1.840   2.773  0.00  0.00    -0.018 A 
ATOM     25  C   UNL     1       6.805  -2.492   3.286  0.00  0.00    +0.008 A 
ENDBRANCH  12  21
ENDBRANCH   1  13
BRANCH   1  26
ATOM     26  N   UNL     1       0.062   1.472   0.148  0.00  0.00    -0.277 N 
ATOM     27  C   UNL     1       0.101   2.205   1.279  0.00  0.00    +0.250 C 
ATOM     28  O   UNL     1       0.262   1.658   2.353  0.00  0.00    -0.270 OA
ATOM     29  H   UNL     1      -0.003   1.972  -0.829  0.00  0.00    +0.155 HD
BRANCH  27  30
ATOM     30  C   UNL     1      -0.051   3.673   1.213  0.00  0.00    +0.055 A 
ATOM     31  C   UNL     1      -0.230   4.305  -0.019  0.00  0.00    +0.014 A 
ATOM     32  C   UNL     1      -0.377   5.675  -0.073  0.00  0.00    +0.001 A 
ATOM     33  C   UNL     1      -0.336   6.426   1.090  0.00  0.00    +0.001 A 
ATOM     34  C   UNL     1      -0.154   5.808   2.313  0.00  0.00    +0.021 A 
ATOM     35  C   UNL     1      -0.011   4.436   2.383  0.00  0.00    +0.053 A 
ATOM     36 CL   UNL     1       0.219   3.662   3.920  0.00  0.00    -0.083 Cl
ENDBRANCH  27  30
ENDBRANCH   1  26
TORSDOF 5
