REMARK  Name = ZINC09329641
REMARK  8 active torsions:
REMARK  status: ('A' for Active; 'I' for Inactive)
REMARK    1  A    between atoms: C_1  and  C_2
REMARK    2  A    between atoms: C_2  and  O_3
REMARK    3  A    between atoms: O_3  and  C_4
REMARK    4  A    between atoms: C_7  and  C_13
REMARK    5  A    between atoms: C_9  and  N_10
REMARK    6  A    between atoms: N_15  and  C_16
REMARK    7  A    between atoms: C_16  and  N_18
REMARK    8  A    between atoms: C_21  and  C_24
REMARK                            x       y       z     vdW  Elec       q    Type
REMARK                         _______ _______ _______ _____ _____    ______ ____
ROOT
ATOM      1  C   UNL     1       0.725  -8.188   0.976  0.00  0.00    +0.163 C 
ATOM      2  S   UNL     1       1.530  -8.839   2.340  0.00  0.00    -0.016 S 
ENDROOT
BRANCH   1   3
ATOM      3  N   UNL     1       0.195  -9.009   0.055  0.00  0.00    -0.169 NA
ATOM      4  C   UNL     1       0.385 -10.310   0.144  0.00  0.00    +0.162 A 
ATOM      5  N   UNL     1       0.016 -11.286  -0.746  0.00  0.00    -0.335 N 
ATOM      6  C   UNL     1       0.317 -12.554  -0.443  0.00  0.00    +0.055 A 
ATOM      7  C   UNL     1       1.021 -12.777   0.829  0.00  0.00    +0.074 A 
ATOM      8  S   UNL     1       1.188 -11.223   1.446  0.00  0.00    -0.060 S 
ATOM      9  H   UNL     1      -0.448 -11.065  -1.569  0.00  0.00    +0.168 HD
BRANCH   6  10
ATOM     10  C   UNL     1      -0.025 -13.625  -1.301  0.00  0.00    -0.001 A 
ATOM     11  C   UNL     1      -0.697 -13.366  -2.518  0.00  0.00    +0.010 A 
ATOM     12  C   UNL     1      -1.032 -14.376  -3.352  0.00  0.00    +0.009 A 
ATOM     13  C   UNL     1      -0.713 -15.712  -3.017  0.00  0.00    -0.018 A 
ATOM     14  C   UNL     1      -1.053 -16.767  -3.871  0.00  0.00    +0.008 A 
ATOM     15  C   UNL     1      -0.730 -18.060  -3.522  0.00  0.00    +0.001 A 
ATOM     16  C   UNL     1      -0.068 -18.333  -2.328  0.00  0.00    +0.001 A 
ATOM     17  C   UNL     1       0.277 -17.329  -1.474  0.00  0.00    +0.008 A 
ATOM     18  C   UNL     1      -0.038 -15.994  -1.800  0.00  0.00    -0.017 A 
ATOM     19  C   UNL     1       0.310 -14.944  -0.945  0.00  0.00    +0.018 A 
ENDBRANCH   6  10
ENDBRANCH   1   3
BRANCH   1  22
ATOM     20  C   UNL     1       1.155  -6.029   1.752  0.00  0.00    +0.250 C 
ATOM     21  O   UNL     1       1.727  -6.491   2.720  0.00  0.00    -0.270 OA
ATOM     22  N   UNL     1       0.623  -6.853   0.828  0.00  0.00    -0.262 N 
ATOM     23  H   UNL     1       0.167  -6.484   0.055  0.00  0.00    +0.157 HD
BRANCH  20  27
ATOM     24  C   UNL     1       0.833  -1.821   1.285  0.00  0.00    +0.151 A 
ATOM     25  C   UNL     1       0.284  -2.669   0.329  0.00  0.00    +0.049 A 
ATOM     26  C   UNL     1       0.387  -4.034   0.477  0.00  0.00    +0.017 A 
ATOM     27  C   UNL     1       1.044  -4.567   1.590  0.00  0.00    +0.039 A 
ATOM     28  C   UNL     1       1.594  -3.712   2.547  0.00  0.00    +0.049 A 
ATOM     29  C   UNL     1       1.492  -2.347   2.390  0.00  0.00    +0.168 A 
BRANCH  29  30
ATOM     30  N   UNL     1       2.079  -1.440   3.401  0.00  0.00    +0.060 N 
ATOM     31  O   UNL     1       2.703  -1.938   4.448  0.00  0.00    -0.126 OA
ATOM     32  O   UNL     1       1.977  -0.135   3.253  0.00  0.00    -0.126 OA
ENDBRANCH  29  30
BRANCH  24  33
ATOM     33  O   UNL     1       0.730  -0.476   1.135  0.00  0.00    -0.490 OA
BRANCH  33  35
ATOM     34  C   UNL     1       0.026   1.526  -0.019  0.00  0.00    +0.048 C 
ATOM     35  C   UNL     1       0.040  -0.004  -0.024  0.00  0.00    +0.226 C 
ENDBRANCH  33  35
ENDBRANCH  24  33
ENDBRANCH  20  27
ENDBRANCH   1  22
TORSDOF 7
