REMARK  Name = ZINC39197441
REMARK  8 active torsions:
REMARK  status: ('A' for Active; 'I' for Inactive)
REMARK    1  A    between atoms: C_1  and  C_2
REMARK    2  A    between atoms: C_2  and  C_3
REMARK    3  A    between atoms: C_8  and  N_9
REMARK    4  A    between atoms: C_10  and  C_31
REMARK    5  A    between atoms: C_12  and  C_14
REMARK    6  A    between atoms: N_16  and  C_17
REMARK    7  A    between atoms: C_17  and  C_19
REMARK    8  A    between atoms: C_17  and  C_20
REMARK                            x       y       z     vdW  Elec       q    Type
REMARK                         _______ _______ _______ _____ _____    ______ ____
ROOT
ATOM      1  N   UNL     1      -2.149   1.512  -2.582  0.00  0.00    -0.231 N 
ATOM      2  C   UNL     1      -2.774   1.725  -3.778  0.00  0.00    +0.075 A 
ATOM      3  C   UNL     1      -1.791   1.885  -4.714  0.00  0.00    +0.063 A 
ATOM      4  C   UNL     1      -0.575   1.757  -4.008  0.00  0.00    +0.148 A 
ATOM      5  N   UNL     1      -0.875   1.541  -2.742  0.00  0.00    -0.161 NA
ENDROOT
BRANCH   2   6
ATOM      6  C   UNL     1      -4.234   1.772  -4.015  0.00  0.00    +0.001 A 
ATOM      7  C   UNL     1      -5.108   2.055  -2.965  0.00  0.00    +0.010 A 
ATOM      8  C   UNL     1      -6.464   2.093  -3.199  0.00  0.00    +0.004 A 
ATOM      9  C   UNL     1      -6.972   1.854  -4.471  0.00  0.00    -0.044 A 
ATOM     10  C   UNL     1      -6.114   1.579  -5.513  0.00  0.00    -0.044 A 
ATOM     11  C   UNL     1      -4.746   1.539  -5.288  0.00  0.00    +0.014 A 
ATOM     12  C   UNL     1      -6.598   1.327  -6.918  0.00  0.00    +0.035 C 
ATOM     13  C   UNL     1      -8.087   0.986  -6.920  0.00  0.00    +0.005 C 
ATOM     14  C   UNL     1      -8.831   2.063  -6.122  0.00  0.00    +0.005 C 
ATOM     15  C   UNL     1      -8.468   1.906  -4.647  0.00  0.00    +0.035 C 
ENDBRANCH   2   6
BRANCH   1  21
ATOM     16  C   UNL     1      -2.557   2.145  -0.286  0.00  0.00    -0.022 A 
ATOM     17  C   UNL     1      -3.206   1.937   0.915  0.00  0.00    +0.006 A 
ATOM     18  C   UNL     1      -4.094   0.885   1.050  0.00  0.00    +0.000 A 
ATOM     19  C   UNL     1      -4.335   0.039  -0.017  0.00  0.00    +0.002 A 
ATOM     20  C   UNL     1      -3.689   0.242  -1.220  0.00  0.00    +0.028 A 
ATOM     21  C   UNL     1      -2.801   1.300  -1.361  0.00  0.00    +0.069 A 
BRANCH  16  23
ATOM     22  C   UNL     1      -2.292   4.467  -1.114  0.00  0.00    +0.009 C 
ATOM     23  C   UNL     1      -1.590   3.291  -0.432  0.00  0.00    +0.034 C 
ENDBRANCH  16  23
ENDBRANCH   1  21
BRANCH   4  24
ATOM     24  C   UNL     1       0.783   1.852  -4.582  0.00  0.00    +0.265 C 
ATOM     25  O   UNL     1       0.928   2.060  -5.771  0.00  0.00    -0.268 OA
ATOM     26  N   UNL     1       1.862   1.708  -3.786  0.00  0.00    -0.299 N 
ATOM     27  H   UNL     1       1.746   1.542  -2.838  0.00  0.00    +0.150 HD
BRANCH  26  28
ATOM     28  C   UNL     1       3.209   1.802  -4.355  0.00  0.00    +0.157 C 
ATOM     29  C   UNL     1       3.622   0.440  -4.915  0.00  0.00    +0.038 C 
BRANCH  28  30
ATOM     30  C   UNL     1       4.179   2.219  -3.280  0.00  0.00    +0.240 C 
ATOM     31  O   UNL     1       3.920   2.010  -2.114  0.00  0.00    -0.273 OA
ATOM     32  N   UNL     1       5.336   2.825  -3.615  0.00  0.00    -0.269 N 
ATOM     33  C   UNL     1       5.704   3.241  -4.970  0.00  0.00    +0.118 C 
ATOM     34  C   UNL     1       7.098   3.875  -4.833  0.00  0.00    +0.056 C 
ATOM     35  C   UNL     1       7.423   3.766  -3.360  0.00  0.00    -0.024 A 
ATOM     36  C   UNL     1       6.357   3.155  -2.718  0.00  0.00    +0.040 A 
ATOM     37  C   UNL     1       6.424   2.948  -1.339  0.00  0.00    +0.024 A 
ATOM     38  C   UNL     1       7.535   3.352  -0.629  0.00  0.00    +0.002 A 
ATOM     39  C   UNL     1       8.591   3.964  -1.278  0.00  0.00    +0.000 A 
ATOM     40  C   UNL     1       8.535   4.164  -2.645  0.00  0.00    +0.005 A 
ENDBRANCH  28  30
ENDBRANCH  26  28
ENDBRANCH   4  24
TORSDOF 6
