REMARK  Name = ZINC22506437
REMARK  12 active torsions:
REMARK  status: ('A' for Active; 'I' for Inactive)
REMARK    1  A    between atoms: C_1  and  C_2
REMARK    2  A    between atoms: C_2  and  O_3
REMARK    3  A    between atoms: O_3  and  C_4
REMARK    4  A    between atoms: C_7  and  O_10
REMARK    5  A    between atoms: O_10  and  C_11
REMARK    6  A    between atoms: C_11  and  C_13
REMARK    7  A    between atoms: C_11  and  C_14
REMARK    8  A    between atoms: N_16  and  N_17
REMARK    9  A    between atoms: C_18  and  C_20
REMARK   10  A    between atoms: C_21  and  C_35
REMARK   11  A    between atoms: C_23  and  C_34
REMARK   12  A    between atoms: C_25  and  C_29
REMARK                            x       y       z     vdW  Elec       q    Type
REMARK                         _______ _______ _______ _____ _____    ______ ____
ROOT
ATOM      1  N   UNL     1       2.551  -0.299  -2.411  0.00  0.00    -0.230 N 
ATOM      2  C   UNL     1       3.866  -0.118  -2.646  0.00  0.00    +0.267 C 
ATOM      3  O   UNL     1       4.582   0.340  -1.776  0.00  0.00    -0.268 OA
ATOM      4  H   UNL     1       1.903  -0.713  -3.197  0.00  0.00    +0.173 HD
ENDROOT
BRANCH   2   5
ATOM      5  C   UNL     1       4.433  -0.474  -3.953  0.00  0.00    +0.081 A 
ATOM      6  C   UNL     1       5.721  -0.360  -4.377  0.00  0.00    -0.020 A 
ATOM      7  C   UNL     1       6.068  -0.763  -5.675  0.00  0.00    +0.032 A 
ATOM      8  C   UNL     1       7.336  -0.736  -6.313  0.00  0.00    +0.051 A 
ATOM      9  N   UNL     1       7.446  -1.159  -7.550  0.00  0.00    -0.229 NA
ATOM     10  C   UNL     1       6.402  -1.618  -8.242  0.00  0.00    +0.197 A 
ATOM     11  N   UNL     1       5.188  -1.668  -7.700  0.00  0.00    -0.217 NA
ATOM     12  C   UNL     1       4.999  -1.263  -6.466  0.00  0.00    +0.113 A 
ATOM     13  S   UNL     1       3.601  -1.154  -5.378  0.00  0.00    -0.064 S 
ATOM     14  C   UNL     1       8.547  -0.226  -5.575  0.00  0.00    +0.066 C 
ATOM     15  C   UNL     1       6.774   0.194  -3.452  0.00  0.00    +0.046 C 
BRANCH  10  16
ATOM     16  C   UNL     1       6.597  -2.077  -9.628  0.00  0.00    +0.172 A 
ATOM     17  C   UNL     1       5.630  -2.568 -10.452  0.00  0.00    +0.053 A 
ATOM     18  C   UNL     1       6.256  -2.880 -11.672  0.00  0.00    +0.042 A 
ATOM     19  C   UNL     1       7.562  -2.569 -11.538  0.00  0.00    +0.196 A 
ATOM     20  O   UNL     1       7.763  -2.079 -10.305  0.00  0.00    -0.460 OA
ENDBRANCH  10  16
ENDBRANCH   2   5
BRANCH   1  23
ATOM     21  C   UNL     1       0.695  -0.141  -0.928  0.00  0.00    +0.270 C 
ATOM     22  O   UNL     1      -0.019  -0.598  -1.796  0.00  0.00    -0.270 OA
ATOM     23  N   UNL     1       2.010   0.040  -1.164  0.00  0.00    -0.231 N 
ATOM     24  H   UNL     1       2.658   0.454  -0.377  0.00  0.00    +0.173 HD
BRANCH  21  25
ATOM     25  C   UNL     1       0.113   0.224   0.413  0.00  0.00    +0.257 C 
ATOM     26  C   UNL     1       0.222   1.735   0.623  0.00  0.00    +0.062 C 
BRANCH  25  27
ATOM     27  O   UNL     1      -1.262  -0.165   0.457  0.00  0.00    -0.480 OA
BRANCH  27  31
ATOM     28  C   UNL     1      -2.871  -0.939   4.179  0.00  0.00    +0.121 A 
ATOM     29  C   UNL     1      -1.575  -0.457   4.071  0.00  0.00    +0.049 A 
ATOM     30  C   UNL     1      -1.037  -0.198   2.825  0.00  0.00    +0.049 A 
ATOM     31  C   UNL     1      -1.792  -0.420   1.683  0.00  0.00    +0.122 A 
ATOM     32  C   UNL     1      -3.090  -0.898   1.792  0.00  0.00    +0.049 A 
ATOM     33  C   UNL     1      -3.627  -1.161   3.037  0.00  0.00    +0.049 A 
BRANCH  28  34
ATOM     34  O   UNL     1      -3.401  -1.195   5.405  0.00  0.00    -0.492 OA
BRANCH  34  36
ATOM     35  C   UNL     1      -5.161  -1.917   6.896  0.00  0.00    +0.048 C 
ATOM     36  C   UNL     1      -4.741  -1.690   5.442  0.00  0.00    +0.225 C 
ENDBRANCH  34  36
ENDBRANCH  28  34
ENDBRANCH  27  31
ENDBRANCH  25  27
ENDBRANCH  21  25
ENDBRANCH   1  23
TORSDOF 8
