REMARK  Name = ZINC09714239
REMARK  14 active torsions:
REMARK  status: ('A' for Active; 'I' for Inactive)
REMARK    1  A    between atoms: C_1  and  C_2
REMARK    2  A    between atoms: C_2  and  N_3
REMARK    3  A    between atoms: N_3  and  C_4
REMARK    4  A    between atoms: N_3  and  S_6
REMARK    5  A    between atoms: C_4  and  C_5
REMARK    6  A    between atoms: S_6  and  C_9
REMARK    7  A    between atoms: C_13  and  C_15
REMARK    8  A    between atoms: C_18  and  S_21
REMARK    9  A    between atoms: N_19  and  C_20
REMARK   10  A    between atoms: S_21  and  C_22
REMARK   11  A    between atoms: C_22  and  C_23
REMARK   12  A    between atoms: N_25  and  C_26
REMARK   13  A    between atoms: C_31  and  C_36
REMARK   14  A    between atoms: C_33  and  C_35
REMARK                            x       y       z     vdW  Elec       q    Type
REMARK                         _______ _______ _______ _____ _____    ______ ____
ROOT
ATOM      1  C   UNL     1       1.205   3.585   0.223  0.00  0.00    +0.165 A 
ATOM      2  N   UNL     1       2.223   4.367  -0.048  0.00  0.00    -0.128 NA
ATOM      3  N   UNL     1       1.814   5.572  -0.231  0.00  0.00    -0.122 NA
ATOM      4  C   UNL     1       0.510   5.634  -0.078  0.00  0.00    +0.192 A 
ATOM      5  N   UNL     1       0.077   4.372   0.216  0.00  0.00    -0.305 N 
ATOM      6  C   UNL     1      -1.302   3.947   0.470  0.00  0.00    +0.153 C 
ENDROOT
BRANCH   1  11
ATOM      7  C   UNL     1       2.398   0.025   0.310  0.00  0.00    +0.106 A 
ATOM      8  C   UNL     1       1.364  -0.589   0.994  0.00  0.00    +0.028 A 
ATOM      9  C   UNL     1       0.279   0.150   1.428  0.00  0.00    +0.003 A 
ATOM     10  C   UNL     1       0.221   1.506   1.181  0.00  0.00    +0.012 A 
ATOM     11  C   UNL     1       1.261   2.132   0.492  0.00  0.00    +0.021 A 
ATOM     12  C   UNL     1       2.353   1.380   0.056  0.00  0.00    +0.040 A 
BRANCH   7  13
ATOM     13  S   UNL     1       3.776  -0.926  -0.239  0.00  0.00    +0.061 S 
ATOM     14  O   UNL     1       4.865  -0.023  -0.376  0.00  0.00    -0.153 OA
ATOM     15  O   UNL     1       3.838  -2.072   0.599  0.00  0.00    -0.153 OA
BRANCH  13  16
ATOM     16  N   UNL     1       3.420  -1.472  -1.761  0.00  0.00    -0.177 NA
BRANCH  16  18
ATOM     17  C   UNL     1       5.135  -1.143  -3.474  0.00  0.00    +0.022 C 
ATOM     18  C   UNL     1       3.785  -0.669  -2.931  0.00  0.00    +0.106 C 
ENDBRANCH  16  18
BRANCH  16  19
ATOM     19  C   UNL     1       2.739  -2.757  -1.938  0.00  0.00    +0.106 C 
ATOM     20  C   UNL     1       1.232  -2.523  -2.065  0.00  0.00    +0.022 C 
ENDBRANCH  16  19
ENDBRANCH  13  16
ENDBRANCH   7  13
ENDBRANCH   1  11
BRANCH   4  21
ATOM     21  S   UNL     1      -0.492   7.075  -0.226  0.00  0.00    -0.077 S 
BRANCH  21  22
ATOM     22  C   UNL     1       0.778   8.303  -0.619  0.00  0.00    +0.173 C 
BRANCH  22  23
ATOM     23  C   UNL     1       0.134   9.654  -0.794  0.00  0.00    +0.224 C 
ATOM     24  O   UNL     1      -1.066   9.775  -0.666  0.00  0.00    -0.275 OA
ATOM     25  N   UNL     1       0.891  10.728  -1.094  0.00  0.00    -0.312 N 
ATOM     26  H   UNL     1       1.851  10.631  -1.196  0.00  0.00    +0.149 HD
BRANCH  25  27
ATOM     27  C   UNL     1       0.265  12.041  -1.264  0.00  0.00    +0.076 C 
ATOM     28  C   UNL     1       0.111  12.714   0.101  0.00  0.00    +0.022 C 
ATOM     29  C   UNL     1      -0.543  14.086  -0.077  0.00  0.00    +0.002 C 
ATOM     30  C   UNL     1       0.335  14.956  -0.978  0.00  0.00    +0.003 C 
ATOM     31  C   UNL     1       0.489  14.283  -2.344  0.00  0.00    -0.009 C 
ATOM     32  C   UNL     1       1.143  12.912  -2.166  0.00  0.00    +0.009 C 
ATOM     33  C   UNL     1       1.298  12.239  -3.531  0.00  0.00    +0.009 C 
ATOM     34  C   UNL     1       1.368  15.154  -3.245  0.00  0.00    +0.008 C 
ENDBRANCH  25  27
ENDBRANCH  22  23
ENDBRANCH  21  22
ENDBRANCH   4  21
TORSDOF 9
