REMARK  Name = ZINC09915643
REMARK  12 active torsions:
REMARK  status: ('A' for Active; 'I' for Inactive)
REMARK    1  A    between atoms: C_1  and  C_2
REMARK    2  A    between atoms: C_2  and  C_22
REMARK    3  A    between atoms: C_3  and  C_20
REMARK    4  A    between atoms: C_3  and  O_21
REMARK    5  A    between atoms: C_4  and  C_18
REMARK    6  A    between atoms: C_4  and  O_19
REMARK    7  A    between atoms: C_5  and  C_16
REMARK    8  A    between atoms: C_5  and  O_17
REMARK    9  A    between atoms: C_6  and  C_8
REMARK   10  A    between atoms: C_6  and  S_9
REMARK   11  A    between atoms: S_9  and  C_10
REMARK   12  A    between atoms: C_22  and  O_23
REMARK                            x       y       z     vdW  Elec       q    Type
REMARK                         _______ _______ _______ _____ _____    ______ ____
ROOT
ATOM      1  C   UNL     1      -2.074   0.089  -3.617  0.00  0.00    +0.047 C 
ATOM      2  C   UNL     1      -1.432  -0.661  -2.425  0.00  0.00    +0.122 C 
ATOM      3  C   UNL     1      -2.190  -0.252  -1.168  0.00  0.00    +0.125 C 
ATOM      4  C   UNL     1      -1.411  -0.550   0.105  0.00  0.00    +0.126 C 
ATOM      5  C   UNL     1       0.025  -0.050   0.045  0.00  0.00    +0.132 C 
ATOM      6  C   UNL     1       0.738  -0.457  -1.240  0.00  0.00    +0.148 C 
ATOM      7  O   UNL     1      -0.068  -0.326  -2.386  0.00  0.00    -0.348 OA
ATOM      8  C   UNL     1       1.257  -1.896  -1.099  0.00  0.00    +0.057 C 
ATOM      9  C   UNL     1       0.063   1.477   0.189  0.00  0.00    +0.048 C 
ATOM     10  C   UNL     1      -2.120   0.148   1.283  0.00  0.00    +0.047 C 
ATOM     11  C   UNL     1      -3.517  -1.032  -1.125  0.00  0.00    +0.047 C 
ENDROOT
BRANCH   5  12
ATOM     12  O   UNL     1       0.749  -0.612   1.157  0.00  0.00    -0.382 OA
ATOM     13  H   UNL     1       1.675  -0.337   1.202  0.00  0.00    +0.210 HD
ENDBRANCH   5  12
BRANCH   4  14
ATOM     14  O   UNL     1      -1.427  -1.960   0.368  0.00  0.00    -0.383 OA
ATOM     15  H   UNL     1      -1.007  -2.209   1.203  0.00  0.00    +0.210 HD
ENDBRANCH   4  14
BRANCH   3  16
ATOM     16  O   UNL     1      -2.507   1.144  -1.238  0.00  0.00    -0.383 OA
ATOM     17  H   UNL     1      -3.057   1.385  -1.996  0.00  0.00    +0.210 HD
ENDBRANCH   3  16
BRANCH   6  18
ATOM     18  S   UNL     1       2.195   0.629  -1.438  0.00  0.00    -0.088 S 
BRANCH  18  19
ATOM     19  C   UNL     1       2.862   0.167  -3.002  0.00  0.00    +0.011 A 
ATOM     20  C   UNL     1       2.218  -0.788  -3.779  0.00  0.00    +0.015 A 
ATOM     21  C   UNL     1       2.741  -1.143  -5.007  0.00  0.00    +0.001 A 
ATOM     22  C   UNL     1       3.911  -0.558  -5.457  0.00  0.00    +0.000 A 
ATOM     23  C   UNL     1       4.557   0.389  -4.684  0.00  0.00    +0.001 A 
ATOM     24  C   UNL     1       4.037   0.753  -3.458  0.00  0.00    +0.015 A 
ENDBRANCH  18  19
ENDBRANCH   6  18
BRANCH   2  25
ATOM     25  C   UNL     1      -1.630  -2.161  -2.683  0.00  0.00    +0.193 C 
BRANCH  25  26
ATOM     26  O   UNL     1      -1.040  -2.511  -3.936  0.00  0.00    -0.392 OA
ATOM     27  H   UNL     1      -1.127  -3.446  -4.165  0.00  0.00    +0.210 HD
ENDBRANCH  25  26
ENDBRANCH   2  25
TORSDOF 7
