REMARK  Name = ZINC36038922
REMARK  12 active torsions:
REMARK  status: ('A' for Active; 'I' for Inactive)
REMARK    1  A    between atoms: C_1  and  C_2
REMARK    2  A    between atoms: C_4  and  N_22
REMARK    3  A    between atoms: C_6  and  S_8
REMARK    4  A    between atoms: S_8  and  C_9
REMARK    5  A    between atoms: C_9  and  C_10
REMARK    6  A    between atoms: C_13  and  C_15
REMARK    7  A    between atoms: N_17  and  C_18
REMARK    8  A    between atoms: C_18  and  C_19
REMARK    9  A    between atoms: C_19  and  C_20
REMARK   10  A    between atoms: C_19  and  C_21
REMARK   11  A    between atoms: N_25  and  C_28
REMARK   12  A    between atoms: C_28  and  C_29
REMARK                            x       y       z     vdW  Elec       q    Type
REMARK                         _______ _______ _______ _____ _____    ______ ____
ROOT
ATOM      1  C   UNL     1      -0.018   1.503   0.010  0.00  0.00    +0.066 C 
ATOM      2  C   UNL     1       0.002  -0.004   0.002  0.00  0.00    +0.044 A 
ATOM      3  C   UNL     1       0.006  -0.696  -1.194  0.00  0.00    +0.066 A 
ATOM      4  C   UNL     1       0.025  -2.091  -1.157  0.00  0.00    +0.126 A 
ATOM      5  N   UNL     1       0.039  -2.705   0.022  0.00  0.00    -0.207 NA
ATOM      6  C   UNL     1       0.035  -2.005   1.147  0.00  0.00    +0.191 A 
ATOM      7  N   UNL     1       0.022  -0.679   1.141  0.00  0.00    -0.227 NA
ENDROOT
BRANCH   4   8
ATOM      8  N   UNL     1       0.029  -2.826  -2.331  0.00  0.00    -0.319 N 
ATOM      9  C   UNL     1      -0.067  -4.294  -2.306  0.00  0.00    +0.088 C 
ATOM     10  C   UNL     1       1.057  -4.869  -3.174  0.00  0.00    -0.059 C 
ATOM     11  N   UNL     1       0.987  -4.280  -4.517  0.00  0.00    +0.384 N 
ATOM     12  C   UNL     1       1.244  -2.836  -4.444  0.00  0.00    -0.059 C 
ATOM     13  C   UNL     1       0.123  -2.160  -3.639  0.00  0.00    +0.088 C 
ATOM     14  H   UNL     1       0.069  -4.438  -4.905  0.00  0.00    -0.081 HD
BRANCH  11  15
ATOM     15  C   UNL     1       1.994  -4.912  -5.380  0.00  0.00    -0.043 C 
BRANCH  15  16
ATOM     16  C   UNL     1       1.842  -4.398  -6.788  0.00  0.00    -0.060 A 
ATOM     17  C   UNL     1       1.003  -5.049  -7.674  0.00  0.00    +0.005 A 
ATOM     18  C   UNL     1       0.861  -4.581  -8.967  0.00  0.00    +0.050 A 
ATOM     19  C   UNL     1       1.560  -3.458  -9.379  0.00  0.00    +0.166 A 
ATOM     20  C   UNL     1       2.405  -2.802  -8.487  0.00  0.00    +0.166 A 
ATOM     21  C   UNL     1       2.538  -3.274  -7.191  0.00  0.00    +0.051 A 
ATOM     22  O   UNL     1       2.972  -1.738  -9.126  0.00  0.00    -0.453 OA
ATOM     23  C   UNL     1       2.781  -1.986 -10.531  0.00  0.00    +0.466 C 
ATOM     24  O   UNL     1       1.597  -2.804 -10.576  0.00  0.00    -0.453 OA
ENDBRANCH  15  16
ENDBRANCH  11  15
ENDBRANCH   4   8
BRANCH   6  25
ATOM     25  S   UNL     1       0.053  -2.857   2.690  0.00  0.00    -0.078 S 
BRANCH  25  26
ATOM     26  C   UNL     1       0.041  -1.529   3.925  0.00  0.00    +0.151 C 
BRANCH  26  27
ATOM     27  C   UNL     1       0.056  -2.128   5.308  0.00  0.00    +0.116 A 
ATOM     28  C   UNL     1       1.161  -2.422   6.026  0.00  0.00    +0.046 A 
ATOM     29  C   UNL     1       0.729  -2.959   7.249  0.00  0.00    +0.055 A 
ATOM     30  C   UNL     1      -0.636  -2.966   7.214  0.00  0.00    +0.189 A 
ATOM     31  O   UNL     1      -1.026  -2.453   6.028  0.00  0.00    -0.454 OA
BRANCH  30  32
ATOM     32  C   UNL     1      -1.523  -3.443   8.280  0.00  0.00    +0.279 C 
ATOM     33  O   UNL     1      -1.052  -3.883   9.312  0.00  0.00    -0.267 OA
ATOM     34  N   UNL     1      -2.860  -3.394   8.116  0.00  0.00    -0.309 N 
ATOM     35  H   UNL     1      -3.235  -3.043   7.293  0.00  0.00    +0.149 HD
BRANCH  34  36
ATOM     36  C   UNL     1      -3.746  -3.871   9.181  0.00  0.00    +0.107 C 
BRANCH  36  37
ATOM     37  C   UNL     1      -5.203  -3.705   8.744  0.00  0.00    -0.000 C 
ATOM     38  C   UNL     1      -6.125  -4.317   9.801  0.00  0.00    +0.009 C 
ATOM     39  C   UNL     1      -5.523  -2.217   8.587  0.00  0.00    +0.009 C 
ENDBRANCH  36  37
ENDBRANCH  34  36
ENDBRANCH  30  32
ENDBRANCH  26  27
ENDBRANCH  25  26
ENDBRANCH   6  25
TORSDOF 9
