REMARK  Name = ZINC12170631
REMARK  9 active torsions:
REMARK  status: ('A' for Active; 'I' for Inactive)
REMARK    1  A    between atoms: C_9  and  C_12
REMARK    2  A    between atoms: C_12  and  O_13
REMARK    3  A    between atoms: O_13  and  C_14
REMARK    4  A    between atoms: C_14  and  C_15
REMARK    5  A    between atoms: C_15  and  C_17
REMARK    6  A    between atoms: C_15  and  O_39
REMARK    7  A    between atoms: C_17  and  N_70
REMARK    8  A    between atoms: C_20  and  C_23
REMARK    9  A    between atoms: C_23  and  N_24
REMARK                            x       y       z     vdW  Elec       q    Type
REMARK                         _______ _______ _______ _____ _____    ______ ____
ROOT
ATOM      1  C   UNL     1       4.600  -0.074  -2.930  0.00  0.00    -0.078 C 
ATOM      2  C   UNL     1       4.207   0.230  -1.483  0.00  0.00    -0.014 C 
ATOM      3  C   UNL     1       2.830   0.899  -1.463  0.00  0.00    +0.003 C 
ATOM      4  C   UNL     1       1.814  -0.023  -2.141  0.00  0.00    -0.014 C 
ATOM      5  C   UNL     1       2.276  -0.320  -3.570  0.00  0.00    -0.078 C 
ATOM      6  N   UNL     1       3.595  -0.985  -3.518  0.00  0.00    +0.381 N 
ATOM      7  H   UNL     1       3.522  -1.825  -2.932  0.00  0.00    -0.082 HD
ENDROOT
BRANCH   6   8
ATOM      8  C   UNL     1       4.012  -1.385  -4.878  0.00  0.00    -0.045 C 
BRANCH   8   9
ATOM      9  C   UNL     1       3.079  -2.492  -5.374  0.00  0.00    +0.124 C 
BRANCH   9  10
ATOM     10  O   UNL     1       3.143  -3.605  -4.481  0.00  0.00    -0.391 OA
ATOM     11  H   UNL     1       4.026  -3.992  -4.398  0.00  0.00    +0.210 HD
ENDBRANCH   9  10
BRANCH   9  12
ATOM     12  C   UNL     1       3.510  -2.935  -6.773  0.00  0.00    +0.189 C 
BRANCH  12  13
ATOM     13  O   UNL     1       2.572  -3.884  -7.283  0.00  0.00    -0.374 OA
BRANCH  13  14
ATOM     14  C   UNL     1       2.884  -4.364  -8.592  0.00  0.00    +0.207 C 
BRANCH  14  23
ATOM     15  C   UNL     1      -0.171  -9.883  -9.474  0.00  0.00    +0.004 A 
ATOM     16  C   UNL     1       0.207  -9.761  -8.150  0.00  0.00    +0.004 A 
ATOM     17  C   UNL     1       0.886  -8.635  -7.724  0.00  0.00    +0.049 A 
ATOM     18  C   UNL     1       1.190  -7.625  -8.624  0.00  0.00    +0.163 A 
ATOM     19  C   UNL     1       0.809  -7.747  -9.954  0.00  0.00    +0.162 A 
ATOM     20  C   UNL     1       0.129  -8.880 -10.376  0.00  0.00    +0.049 A 
ATOM     21  O   UNL     1       1.090  -6.764 -10.853  0.00  0.00    -0.485 OA
ATOM     22  C   UNL     1       2.095  -5.817 -10.476  0.00  0.00    +0.276 C 
ATOM     23  C   UNL     1       1.818  -5.369  -9.035  0.00  0.00    +0.236 C 
ATOM     24  O   UNL     1       1.862  -6.524  -8.190  0.00  0.00    -0.479 OA
ENDBRANCH  14  23
ENDBRANCH  13  14
ENDBRANCH  12  13
ENDBRANCH   9  12
ENDBRANCH   8   9
ENDBRANCH   6   8
BRANCH   3  25
ATOM     25  C   UNL     1       2.405   1.151  -0.015  0.00  0.00    +0.120 C 
BRANCH  25  26
ATOM     26  N   UNL     1       1.145   1.897   0.001  0.00  0.00    -0.234 N 
ATOM     27  C   UNL     1      -0.014   1.212   0.009  0.00  0.00    +0.254 C 
ATOM     28  O   UNL     1       0.002  -0.004   0.002  0.00  0.00    -0.270 OA
ATOM     29  C   UNL     1      -1.300   1.926   0.019  0.00  0.00    +0.046 A 
ATOM     30  C   UNL     1      -2.517   1.260   0.031  0.00  0.00    +0.014 A 
ATOM     31  C   UNL     1      -3.706   1.979   0.047  0.00  0.00    +0.001 A 
ATOM     32  C   UNL     1      -3.716   3.344   0.055  0.00  0.00    +0.008 A 
ATOM     33  C   UNL     1      -2.505   4.057   0.047  0.00  0.00    -0.016 A 
ATOM     34  C   UNL     1      -1.291   3.339   0.032  0.00  0.00    +0.006 A 
ATOM     35  C   UNL     1      -0.056   4.027   0.024  0.00  0.00    +0.046 A 
ATOM     36  C   UNL     1      -0.058   5.414   0.032  0.00  0.00    +0.014 A 
ATOM     37  C   UNL     1      -1.261   6.110   0.048  0.00  0.00    +0.001 A 
ATOM     38  C   UNL     1      -2.463   5.463   0.056  0.00  0.00    +0.008 A 
ATOM     39  C   UNL     1       1.188   3.243   0.009  0.00  0.00    +0.254 C 
ATOM     40  O   UNL     1       2.262   3.814   0.002  0.00  0.00    -0.270 OA
ENDBRANCH  25  26
ENDBRANCH   3  25
TORSDOF 9
