REMARK  Name = ZINC13495938
REMARK  17 active torsions:
REMARK  status: ('A' for Active; 'I' for Inactive)
REMARK    1  A    between atoms: C_1  and  C_2
REMARK    2  A    between atoms: C_2  and  C_3
REMARK    3  A    between atoms: C_3  and  C_5
REMARK    4  A    between atoms: C_3  and  N_77
REMARK    5  A    between atoms: N_9  and  C_10
REMARK    6  A    between atoms: C_10  and  C_11
REMARK    7  A    between atoms: C_10  and  C_12
REMARK    8  A    between atoms: C_10  and  C_13
REMARK    9  A    between atoms: C_13  and  C_14
REMARK   10  A    between atoms: C_15  and  C_16
REMARK   11  A    between atoms: C_15  and  N_77
REMARK   12  A    between atoms: C_16  and  C_17
REMARK   13  A    between atoms: C_21  and  C_23
REMARK   14  A    between atoms: C_24  and  C_25
REMARK   15  A    between atoms: C_24  and  N_77
REMARK   16  A    between atoms: C_29  and  C_38
REMARK   17  A    between atoms: C_31  and  C_37
REMARK                            x       y       z     vdW  Elec       q    Type
REMARK                         _______ _______ _______ _____ _____    ______ ____
ROOT
ATOM      1  N   UNL     1      -1.145   7.987  -1.466  0.00  0.00    +0.389 N 
ATOM      2  H   UNL     1      -0.387   7.784  -2.129  0.00  0.00    -0.080 HD
ENDROOT
BRANCH   1   3
ATOM      3  C   UNL     1      -1.353   9.449  -1.408  0.00  0.00    +0.003 C 
BRANCH   3   4
ATOM      4  C   UNL     1      -2.260   9.808  -0.260  0.00  0.00    +0.139 A 
ATOM      5  N   UNL     1      -2.237   9.295   0.946  0.00  0.00    -0.115 NA
ATOM      6  N   UNL     1      -3.166   9.860   1.637  0.00  0.00    -0.023 NA
ATOM      7  N   UNL     1      -3.781  10.720   0.903  0.00  0.00    -0.043 NA
ATOM      8  N   UNL     1      -3.249  10.721  -0.272  0.00  0.00    -0.225 N 
BRANCH   8   9
ATOM      9  C   UNL     1      -3.647  11.557  -1.407  0.00  0.00    +0.061 C 
ATOM     10  C   UNL     1      -2.426  12.310  -1.939  0.00  0.00    +0.036 C 
ATOM     11  C   UNL     1      -4.223  10.673  -2.514  0.00  0.00    +0.036 C 
BRANCH   9  12
ATOM     12  C   UNL     1      -4.708  12.562  -0.953  0.00  0.00    +0.026 C 
ATOM     13  C   UNL     1      -5.124  13.435  -2.139  0.00  0.00    +0.006 C 
ENDBRANCH   9  12
ENDBRANCH   8   9
ENDBRANCH   3   4
BRANCH   3  15
ATOM     14  C   UNL     1       0.887   9.857  -2.437  0.00  0.00    +0.002 C 
ATOM     15  C   UNL     1       0.003  10.132  -1.218  0.00  0.00    -0.011 C 
ENDBRANCH   3  15
ENDBRANCH   1   3
BRANCH   1  16
ATOM     16  C   UNL     1      -2.379   7.319  -1.930  0.00  0.00    -0.073 C 
BRANCH  16  17
ATOM     17  C   UNL     1      -2.549   7.584  -3.427  0.00  0.00    +0.016 C 
BRANCH  17  18
ATOM     18  C   UNL     1      -3.721   6.794  -3.948  0.00  0.00    -0.049 A 
ATOM     19  C   UNL     1      -3.531   5.515  -4.437  0.00  0.00    +0.003 A 
ATOM     20  C   UNL     1      -4.607   4.788  -4.910  0.00  0.00    +0.001 A 
ATOM     21  C   UNL     1      -5.873   5.344  -4.904  0.00  0.00    +0.003 A 
ATOM     22  C   UNL     1      -6.063   6.625  -4.419  0.00  0.00    -0.050 A 
ATOM     23  C   UNL     1      -4.987   7.350  -3.942  0.00  0.00    +0.007 A 
ATOM     24  C   UNL     1      -7.442   7.231  -4.412  0.00  0.00    +0.044 C 
ENDBRANCH  17  18
ENDBRANCH  16  17
ENDBRANCH   1  16
BRANCH   1  25
ATOM     25  C   UNL     1      -0.765   7.477  -0.132  0.00  0.00    -0.037 C 
BRANCH  25  26
ATOM     26  C   UNL     1      -0.098   6.136  -0.300  0.00  0.00    +0.001 A 
ATOM     27  C   UNL     1       1.253   6.059  -0.382  0.00  0.00    +0.017 A 
ATOM     28  C   UNL     1       1.870   4.741  -0.545  0.00  0.00    -0.001 A 
ATOM     29  C   UNL     1       3.259   4.599  -0.635  0.00  0.00    +0.013 A 
ATOM     30  C   UNL     1       3.803   3.355  -0.786  0.00  0.00    -0.050 A 
ATOM     31  C   UNL     1       2.990   2.231  -0.851  0.00  0.00    +0.008 A 
ATOM     32  C   UNL     1       1.620   2.349  -0.770  0.00  0.00    -0.026 A 
ATOM     33  C   UNL     1       1.043   3.604  -0.610  0.00  0.00    +0.052 A 
ATOM     34  N   UNL     1      -0.325   3.750  -0.520  0.00  0.00    -0.322 N 
ATOM     35  H   UNL     1      -0.893   2.966  -0.564  0.00  0.00    +0.169 HD
ATOM     36  C   UNL     1      -0.882   4.965  -0.370  0.00  0.00    +0.251 A 
ATOM     37  O   UNL     1      -2.095   5.056  -0.294  0.00  0.00    -0.268 OA
ATOM     38  C   UNL     1       0.750   1.121  -0.848  0.00  0.00    +0.046 C 
ATOM     39  C   UNL     1       5.299   3.202  -0.883  0.00  0.00    +0.044 C 
ENDBRANCH  25  26
ENDBRANCH   1  25
TORSDOF 10
