REMARK  Name = ZINC12702761
REMARK  10 active torsions:
REMARK  status: ('A' for Active; 'I' for Inactive)
REMARK    1  A    between atoms: C_4  and  C_7
REMARK    2  A    between atoms: C_7  and  N_8
REMARK    3  A    between atoms: N_8  and  C_9
REMARK    4  A    between atoms: C_9  and  C_11
REMARK    5  A    between atoms: C_9  and  C_18
REMARK    6  A    between atoms: C_14  and  O_17
REMARK    7  A    between atoms: N_20  and  C_21
REMARK    8  A    between atoms: C_26  and  C_28
REMARK    9  A    between atoms: C_28  and  N_29
REMARK   10  A    between atoms: C_31  and  C_34
REMARK                            x       y       z     vdW  Elec       q    Type
REMARK                         _______ _______ _______ _____ _____    ______ ____
ROOT
ATOM      1  N   UNL     1       4.663  -1.665  -1.592  0.00  0.00    -0.280 N 
ATOM      2  C   UNL     1       5.804  -1.584  -2.304  0.00  0.00    +0.240 C 
ATOM      3  O   UNL     1       5.812  -1.901  -3.475  0.00  0.00    -0.273 OA
ENDROOT
BRANCH   1   4
ATOM      4  C   UNL     1       4.671  -1.365  -0.158  0.00  0.00    +0.144 C 
BRANCH   4   8
ATOM      5  C   UNL     1       7.673  -3.715   1.771  0.00  0.00    +0.000 A 
ATOM      6  C   UNL     1       6.800  -4.307   0.877  0.00  0.00    +0.000 A 
ATOM      7  C   UNL     1       5.828  -3.546   0.253  0.00  0.00    +0.005 A 
ATOM      8  C   UNL     1       5.730  -2.194   0.522  0.00  0.00    -0.030 A 
ATOM      9  C   UNL     1       6.603  -1.602   1.416  0.00  0.00    +0.005 A 
ATOM     10  C   UNL     1       7.574  -2.362   2.040  0.00  0.00    +0.000 A 
ENDBRANCH   4   8
ENDBRANCH   1   4
BRANCH   1  11
ATOM     11  C   UNL     1       3.414  -2.054  -2.252  0.00  0.00    +0.193 C 
BRANCH  11  12
ATOM     12  C   UNL     1       2.484  -0.869  -2.305  0.00  0.00    -0.018 A 
ATOM     13  C   UNL     1       2.322  -0.069  -1.190  0.00  0.00    +0.009 A 
ATOM     14  C   UNL     1       1.475   1.021  -1.238  0.00  0.00    +0.046 A 
ATOM     15  C   UNL     1       0.777   1.306  -2.403  0.00  0.00    +0.117 A 
ATOM     16  C   UNL     1       0.937   0.497  -3.519  0.00  0.00    +0.046 A 
ATOM     17  C   UNL     1       1.791  -0.588  -3.468  0.00  0.00    +0.009 A 
BRANCH  15  18
ATOM     18  O   UNL     1      -0.062   2.373  -2.450  0.00  0.00    -0.507 OA
ATOM     19  H   UNL     1      -0.971   2.171  -2.190  0.00  0.00    +0.292 HD
ENDBRANCH  15  18
ENDBRANCH  11  12
BRANCH  11  20
ATOM     20  C   UNL     1       2.762  -3.170  -1.476  0.00  0.00    +0.238 C 
ATOM     21  O   UNL     1       2.729  -3.127  -0.264  0.00  0.00    -0.273 OA
ATOM     22  N   UNL     1       2.216  -4.215  -2.129  0.00  0.00    -0.311 N 
ATOM     23  H   UNL     1       2.243  -4.249  -3.098  0.00  0.00    +0.149 HD
BRANCH  22  24
ATOM     24  C   UNL     1       1.583  -5.299  -1.375  0.00  0.00    +0.073 C 
ATOM     25  C   UNL     1       2.633  -6.364  -0.996  0.00  0.00    +0.022 C 
ATOM     26  C   UNL     1       1.876  -7.708  -1.127  0.00  0.00    +0.002 C 
ATOM     27  C   UNL     1       0.985  -7.479  -2.373  0.00  0.00    +0.002 C 
ATOM     28  C   UNL     1       0.535  -6.008  -2.250  0.00  0.00    +0.022 C 
ENDBRANCH  22  24
ENDBRANCH  11  20
ENDBRANCH   1  11
BRANCH   2  29
ATOM     29  C   UNL     1       7.070  -1.099  -1.646  0.00  0.00    +0.264 C 
BRANCH  29  30
ATOM     30  N   UNL     1       8.145  -1.038  -2.640  0.00  0.00    -0.154 N 
ATOM     31  N   UNL     1       8.959  -1.998  -2.918  0.00  0.00    -0.130 NA
ATOM     32  C   UNL     1       9.778  -1.573  -3.858  0.00  0.00    +0.205 A 
ATOM     33  N   UNL     1       9.428  -0.308  -4.130  0.00  0.00    -0.108 NA
ATOM     34  N   UNL     1       8.428  -0.016  -3.369  0.00  0.00    -0.045 NA
BRANCH  32  35
ATOM     35  C   UNL     1      10.880  -2.342  -4.490  0.00  0.00    +0.023 A 
ATOM     36  C   UNL     1      11.129  -3.655  -4.096  0.00  0.00    +0.014 A 
ATOM     37  C   UNL     1      12.151  -4.369  -4.689  0.00  0.00    +0.039 A 
ATOM     38  C   UNL     1      12.934  -3.778  -5.667  0.00  0.00    +0.123 A 
ATOM     39  C   UNL     1      12.693  -2.471  -6.057  0.00  0.00    +0.039 A 
ATOM     40  C   UNL     1      11.670  -1.752  -5.473  0.00  0.00    +0.014 A 
ATOM     41  F   UNL     1      13.937  -4.478  -6.241  0.00  0.00    -0.205 F 
ENDBRANCH  32  35
ENDBRANCH  29  30
ENDBRANCH   2  29
TORSDOF 10
