REMARK  Name = ZINC34835393
REMARK  14 active torsions:
REMARK  status: ('A' for Active; 'I' for Inactive)
REMARK    1  A    between atoms: C_1  and  C_2
REMARK    2  A    between atoms: C_2  and  C_3
REMARK    3  A    between atoms: C_3  and  N_4
REMARK    4  A    between atoms: N_4  and  C_5
REMARK    5  A    between atoms: C_5  and  C_6
REMARK    6  A    between atoms: C_7  and  C_27
REMARK    7  A    between atoms: N_9  and  C_20
REMARK    8  A    between atoms: C_10  and  N_11
REMARK    9  A    between atoms: N_14  and  C_17
REMARK   10  A    between atoms: C_17  and  C_18
REMARK   11  A    between atoms: C_17  and  C_19
REMARK   12  A    between atoms: C_27  and  C_28
REMARK   13  A    between atoms: C_29  and  C_31
REMARK   14  A    between atoms: C_35  and  N_37
REMARK                            x       y       z     vdW  Elec       q    Type
REMARK                         _______ _______ _______ _____ _____    ______ ____
ROOT
ATOM      1  C   UNL     1      -0.648  -2.913  -3.943  0.00  0.00    +0.033 A 
ATOM      2  C   UNL     1      -0.738  -1.659  -4.552  0.00  0.00    +0.070 A 
ATOM      3  N   UNL     1       0.256  -1.535  -5.394  0.00  0.00    -0.169 NA
ATOM      4  N   UNL     1       1.019  -2.709  -5.355  0.00  0.00    -0.218 N 
ATOM      5  C   UNL     1       0.447  -3.546  -4.447  0.00  0.00    +0.130 A 
ENDROOT
BRANCH   5   6
ATOM      6  N   UNL     1       0.896  -4.817  -4.101  0.00  0.00    -0.318 N 
ATOM      7  C   UNL     1       0.823  -5.932  -5.058  0.00  0.00    +0.088 C 
ATOM      8  C   UNL     1       2.197  -6.606  -5.124  0.00  0.00    -0.059 C 
ATOM      9  N   UNL     1       2.616  -6.995  -3.771  0.00  0.00    +0.383 N 
ATOM     10  C   UNL     1       2.803  -5.798  -2.942  0.00  0.00    -0.059 C 
ATOM     11  C   UNL     1       1.464  -5.082  -2.770  0.00  0.00    +0.088 C 
ATOM     12  H   UNL     1       1.907  -7.583  -3.357  0.00  0.00    -0.081 HD
BRANCH   9  13
ATOM     13  C   UNL     1       3.880  -7.739  -3.846  0.00  0.00    -0.075 C 
ATOM     14  C   UNL     1       4.317  -8.146  -2.438  0.00  0.00    -0.014 C 
ATOM     15  C   UNL     1       3.684  -8.993  -4.701  0.00  0.00    -0.014 C 
ENDBRANCH   9  13
ENDBRANCH   5   6
BRANCH   4  16
ATOM     16  C   UNL     1       2.171  -2.972  -6.111  0.00  0.00    +0.068 A 
ATOM     17  C   UNL     1       3.272  -3.572  -5.514  0.00  0.00    +0.030 A 
ATOM     18  C   UNL     1       4.405  -3.830  -6.260  0.00  0.00    +0.040 A 
ATOM     19  C   UNL     1       4.444  -3.491  -7.602  0.00  0.00    +0.124 A 
ATOM     20  C   UNL     1       3.346  -2.893  -8.199  0.00  0.00    +0.040 A 
ATOM     21  C   UNL     1       2.209  -2.638  -7.458  0.00  0.00    +0.030 A 
ATOM     22  F   UNL     1       5.553  -3.745  -8.331  0.00  0.00    -0.205 F 
ENDBRANCH   4  16
BRANCH   2  23
ATOM     23  C   UNL     1      -1.800  -0.623  -4.285  0.00  0.00    +0.054 C 
ATOM     24  C   UNL     1      -1.282   0.384  -3.256  0.00  0.00    +0.010 C 
ENDBRANCH   2  23
BRANCH   1  25
ATOM     25  C   UNL     1      -1.593  -3.466  -2.906  0.00  0.00    +0.148 C 
BRANCH  25  26
ATOM     26  N   UNL     1      -2.512  -4.414  -3.540  0.00  0.00    -0.293 N 
ATOM     27  C   UNL     1      -3.719  -3.997  -3.972  0.00  0.00    +0.247 C 
ATOM     28  O   UNL     1      -4.023  -2.823  -3.886  0.00  0.00    -0.270 OA
BRANCH  27  29
ATOM     29  C   UNL     1      -4.672  -4.967  -4.551  0.00  0.00    +0.039 A 
ATOM     30  C   UNL     1      -4.565  -6.325  -4.244  0.00  0.00    +0.013 A 
ATOM     31  C   UNL     1      -5.458  -7.224  -4.787  0.00  0.00    +0.003 A 
ATOM     32  C   UNL     1      -6.459  -6.784  -5.636  0.00  0.00    +0.033 A 
ATOM     33  C   UNL     1      -6.571  -5.440  -5.944  0.00  0.00    +0.127 A 
ATOM     34  C   UNL     1      -5.688  -4.529  -5.403  0.00  0.00    +0.045 A 
BRANCH  33  35
ATOM     35  N   UNL     1      -7.644  -4.978  -6.853  0.00  0.00    +0.056 N 
ATOM     36  O   UNL     1      -8.422  -5.775  -7.324  0.00  0.00    -0.126 OA
ATOM     37  O   UNL     1      -7.743  -3.804  -7.123  0.00  0.00    -0.126 OA
ENDBRANCH  33  35
ENDBRANCH  27  29
BRANCH  26  38
ATOM     38  C   UNL     1      -2.120  -5.816  -3.703  0.00  0.00    +0.108 C 
BRANCH  38  40
ATOM     39  C   UNL     1      -1.844  -8.007  -2.533  0.00  0.00    +0.005 C 
ATOM     40  C   UNL     1      -2.253  -6.543  -2.363  0.00  0.00    +0.016 C 
ENDBRANCH  38  40
ENDBRANCH  26  38
ENDBRANCH  25  26
ENDBRANCH   1  25
TORSDOF 10
