REMARK  Name = ZINC63739208
REMARK  12 active torsions:
REMARK  status: ('A' for Active; 'I' for Inactive)
REMARK    1  A    between atoms: C_1  and  C_2
REMARK    2  A    between atoms: C_2  and  C_4
REMARK    3  A    between atoms: C_2  and  C_24
REMARK    4  A    between atoms: C_10  and  C_12
REMARK    5  A    between atoms: C_18  and  O_22
REMARK    6  A    between atoms: O_22  and  C_23
REMARK    7  A    between atoms: N_26  and  C_27
REMARK    8  A    between atoms: C_27  and  C_28
REMARK    9  A    between atoms: C_31  and  O_34
REMARK   10  A    between atoms: O_34  and  C_35
REMARK   11  A    between atoms: C_35  and  C_36
REMARK   12  A    between atoms: C_35  and  C_37
REMARK                            x       y       z     vdW  Elec       q    Type
REMARK                         _______ _______ _______ _____ _____    ______ ____
ROOT
ATOM      1  C   UNL     1       1.573   0.552  -0.461  0.00  0.00    +0.004 C 
ATOM      2  C   UNL     1       1.813  -0.960  -0.450  0.00  0.00    +0.023 C 
ATOM      3  C   UNL     1       2.696  -1.341  -1.643  0.00  0.00    +0.108 C 
ATOM      4  N   UNL     1       3.923  -0.534  -1.600  0.00  0.00    -0.300 N 
ATOM      5  C   UNL     1       3.805   0.928  -1.517  0.00  0.00    +0.108 C 
ATOM      6  C   UNL     1       2.910   1.284  -0.326  0.00  0.00    +0.023 C 
ATOM      7  C   UNL     1       5.134  -1.125  -1.635  0.00  0.00    +0.242 C 
ATOM      8  O   UNL     1       5.218  -2.333  -1.702  0.00  0.00    -0.273 OA
ENDROOT
BRANCH   7   9
ATOM      9  C   UNL     1       6.384  -0.283  -1.590  0.00  0.00    +0.190 C 
ATOM     10  C   UNL     1       6.451   0.481  -0.287  0.00  0.00    +0.016 C 
ATOM     11  C   UNL     1       7.577   0.069   0.334  0.00  0.00    -0.003 A 
ATOM     12  C   UNL     1       8.194   0.432   1.617  0.00  0.00    +0.013 A 
ATOM     13  C   UNL     1       9.351  -0.162   1.980  0.00  0.00    +0.046 A 
ATOM     14  C   UNL     1       9.979  -1.119   1.161  0.00  0.00    +0.122 A 
ATOM     15  C   UNL     1       9.467  -1.503  -0.036  0.00  0.00    +0.071 A 
ATOM     16  C   UNL     1       8.256  -0.940  -0.511  0.00  0.00    +0.047 A 
ATOM     17  N   UNL     1       7.573  -1.143  -1.616  0.00  0.00    -0.370 N 
ATOM     18  H   UNL     1       7.813  -1.756  -2.328  0.00  0.00    +0.161 HD
BRANCH  14  19
ATOM     19  O   UNL     1      11.140  -1.678   1.584  0.00  0.00    -0.495 OA
ATOM     20  C   UNL     1      11.645  -1.247   2.849  0.00  0.00    +0.277 C 
ENDBRANCH  14  19
ENDBRANCH   7   9
BRANCH   1  22
ATOM     21  C   UNL     1       0.421   2.443   0.697  0.00  0.00    +0.017 C 
ATOM     22  C   UNL     1       0.663   0.932   0.709  0.00  0.00    +0.075 C 
BRANCH  22  23
ATOM     23  C   UNL     1      -0.654   0.211   0.576  0.00  0.00    +0.216 C 
ATOM     24  O   UNL     1      -0.846  -0.533  -0.362  0.00  0.00    -0.276 OA
ATOM     25  N   UNL     1      -1.618   0.394   1.500  0.00  0.00    -0.311 N 
ATOM     26  H   UNL     1      -1.465   0.989   2.250  0.00  0.00    +0.149 HD
BRANCH  25  27
ATOM     27  C   UNL     1      -2.898  -0.307   1.371  0.00  0.00    +0.139 C 
BRANCH  27  28
ATOM     28  C   UNL     1      -3.794   0.068   2.523  0.00  0.00    -0.030 A 
ATOM     29  C   UNL     1      -3.764  -0.673   3.690  0.00  0.00    +0.009 A 
ATOM     30  C   UNL     1      -4.584  -0.332   4.748  0.00  0.00    +0.046 A 
ATOM     31  C   UNL     1      -5.439   0.755   4.638  0.00  0.00    +0.121 A 
ATOM     32  C   UNL     1      -5.468   1.497   3.466  0.00  0.00    +0.046 A 
ATOM     33  C   UNL     1      -4.642   1.155   2.413  0.00  0.00    +0.009 A 
BRANCH  31  34
ATOM     34  O   UNL     1      -6.248   1.092   5.677  0.00  0.00    -0.489 OA
BRANCH  34  35
ATOM     35  C   UNL     1      -6.253   0.216   6.806  0.00  0.00    +0.167 C 
ATOM     36  C   UNL     1      -5.097   0.580   7.740  0.00  0.00    +0.051 C 
ATOM     37  C   UNL     1      -7.579   0.358   7.556  0.00  0.00    +0.051 C 
ENDBRANCH  34  35
ENDBRANCH  31  34
ENDBRANCH  27  28
ENDBRANCH  25  27
ENDBRANCH  22  23
ENDBRANCH   1  22
TORSDOF 8
