REMARK  Name = ZINC12036445
REMARK  10 active torsions:
REMARK  status: ('A' for Active; 'I' for Inactive)
REMARK    1  A    between atoms: C_1  and  C_2
REMARK    2  A    between atoms: C_3  and  C_7
REMARK    3  A    between atoms: C_7  and  C_8
REMARK    4  A    between atoms: C_8  and  O_9
REMARK    5  A    between atoms: O_9  and  C_10
REMARK    6  A    between atoms: C_16  and  C_17
REMARK    7  A    between atoms: C_17  and  O_19
REMARK    8  A    between atoms: O_19  and  C_20
REMARK    9  A    between atoms: C_25  and  C_26
REMARK   10  A    between atoms: C_25  and  N_62
REMARK                            x       y       z     vdW  Elec       q    Type
REMARK                         _______ _______ _______ _____ _____    ______ ____
ROOT
ATOM      1  C   UNL     1       5.190  -6.571  -2.365  0.00  0.00    +0.141 A 
ATOM      2  C   UNL     1       5.402  -5.768  -3.466  0.00  0.00    +0.116 A 
ATOM      3  C   UNL     1       4.559  -4.676  -3.681  0.00  0.00    +0.255 A 
ATOM      4  O   UNL     1       4.756  -3.961  -4.650  0.00  0.00    -0.268 OA
ATOM      5  N   UNL     1       3.531  -4.385  -2.850  0.00  0.00    -0.313 N 
ATOM      6  C   UNL     1       3.304  -5.110  -1.748  0.00  0.00    +0.038 A 
ATOM      7  C   UNL     1       4.090  -6.219  -1.465  0.00  0.00    +0.120 A 
ATOM      8  C   UNL     1       2.225  -4.772  -0.749  0.00  0.00    +0.036 C 
ATOM      9  C   UNL     1       1.046  -4.069  -1.417  0.00  0.00    -0.072 C 
ATOM     10  C   UNL     1       2.521  -2.270  -2.066  0.00  0.00    -0.056 C 
ATOM     11  C   UNL     1       2.689  -3.247  -3.232  0.00  0.00    +0.106 C 
ATOM     12  N   UNL     1       1.262  -2.608  -1.376  0.00  0.00    +0.384 N 
ATOM     13  H   UNL     1       0.482  -2.141  -1.853  0.00  0.00    -0.081 HD
ENDROOT
BRANCH   7  14
ATOM     14  C   UNL     1       3.819  -7.034  -0.270  0.00  0.00    +0.344 C 
ATOM     15  O   UNL     1       3.224  -8.088  -0.375  0.00  0.00    -0.245 OA
BRANCH  14  16
ATOM     16  O   UNL     1       4.232  -6.611   0.941  0.00  0.00    -0.464 OA
ATOM     17  C   UNL     1       3.931  -7.466   2.076  0.00  0.00    +0.280 C 
ENDBRANCH  14  16
ENDBRANCH   7  14
BRANCH   1  18
ATOM     18  O   UNL     1       5.972  -7.648  -2.123  0.00  0.00    -0.491 OA
BRANCH  18  19
ATOM     19  C   UNL     1       7.021  -7.911  -3.058  0.00  0.00    +0.234 C 
BRANCH  19  20
ATOM     20  C   UNL     1       7.792  -9.158  -2.622  0.00  0.00    +0.085 C 
BRANCH  20  23
ATOM     21  C   UNL     1      10.693  -8.083  -2.530  0.00  0.00    +0.066 C 
ATOM     22  C   UNL     1      10.182  -8.993  -3.617  0.00  0.00    +0.049 A 
ATOM     23  C   UNL     1       8.898  -9.435  -3.607  0.00  0.00    +0.015 A 
ATOM     24  S   UNL     1       8.882 -10.430  -5.092  0.00  0.00    -0.080 S 
ATOM     25  C   UNL     1      10.536 -10.169  -5.554  0.00  0.00    +0.156 A 
ATOM     26  N   UNL     1      10.970  -9.382  -4.597  0.00  0.00    -0.252 NA
ENDBRANCH  20  23
ENDBRANCH  19  20
ENDBRANCH  18  19
ENDBRANCH   1  18
BRANCH  12  27
ATOM     27  C   UNL     1       1.313  -2.143   0.027  0.00  0.00    -0.043 C 
BRANCH  27  28
ATOM     28  C   UNL     1       1.322  -0.636   0.042  0.00  0.00    -0.060 A 
ATOM     29  C   UNL     1       2.524   0.047   0.023  0.00  0.00    +0.005 A 
ATOM     30  C   UNL     1       2.537   1.429   0.036  0.00  0.00    +0.050 A 
ATOM     31  C   UNL     1       1.344   2.133   0.068  0.00  0.00    +0.166 A 
ATOM     32  C   UNL     1       0.133   1.445   0.087  0.00  0.00    +0.166 A 
ATOM     33  C   UNL     1       0.128   0.060   0.074  0.00  0.00    +0.051 A 
ATOM     34  O   UNL     1      -0.885   2.354   0.112  0.00  0.00    -0.453 OA
ATOM     35  C   UNL     1      -0.281   3.595   0.529  0.00  0.00    +0.466 C 
ATOM     36  O   UNL     1       1.084   3.473   0.086  0.00  0.00    -0.453 OA
ENDBRANCH  27  28
ENDBRANCH  12  27
TORSDOF 8
