REMARK  Name = ZINC03376368
REMARK  12 active torsions:
REMARK  status: ('A' for Active; 'I' for Inactive)
REMARK    1  A    between atoms: C_1  and  C_2
REMARK    2  A    between atoms: C_2  and  C_4
REMARK    3  A    between atoms: C_2  and  N_59
REMARK    4  A    between atoms: C_7  and  S_16
REMARK    5  A    between atoms: N_8  and  C_9
REMARK    6  A    between atoms: S_16  and  C_17
REMARK    7  A    between atoms: C_17  and  C_19
REMARK    8  A    between atoms: C_17  and  C_20
REMARK    9  A    between atoms: N_22  and  C_23
REMARK   10  A    between atoms: C_23  and  C_24
REMARK   11  A    between atoms: C_33  and  N_59
REMARK   12  A    between atoms: C_34  and  N_59
REMARK                            x       y       z     vdW  Elec       q    Type
REMARK                         _______ _______ _______ _____ _____    ______ ____
ROOT
ATOM      1  C   UNL     1      -1.451   3.475   2.510  0.00  0.00    +0.125 A 
ATOM      2  N   UNL     1      -2.567   2.993   2.978  0.00  0.00    -0.135 NA
ATOM      3  N   UNL     1      -2.891   3.600   4.064  0.00  0.00    -0.122 NA
ATOM      4  C   UNL     1      -1.996   4.519   4.346  0.00  0.00    +0.197 A 
ATOM      5  N   UNL     1      -1.047   4.468   3.362  0.00  0.00    -0.275 N 
ENDROOT
BRANCH   5   6
ATOM      6  C   UNL     1       0.101   5.268   3.249  0.00  0.00    +0.050 A 
ATOM      7  C   UNL     1       1.361   4.694   3.352  0.00  0.00    +0.028 A 
ATOM      8  C   UNL     1       2.489   5.482   3.236  0.00  0.00    +0.022 A 
ATOM      9  C   UNL     1       2.364   6.844   3.027  0.00  0.00    +0.041 A 
ATOM     10  C   UNL     1       1.109   7.419   2.930  0.00  0.00    +0.022 A 
ATOM     11  C   UNL     1      -0.022   6.634   3.040  0.00  0.00    +0.028 A 
ATOM     12 CL   UNL     1       3.784   7.833   2.888  0.00  0.00    -0.084 Cl
ENDBRANCH   5   6
BRANCH   1  14
ATOM     13  C   UNL     1      -1.486   3.553   0.032  0.00  0.00    -0.005 C 
ATOM     14  C   UNL     1      -0.740   3.027   1.259  0.00  0.00    -0.003 C 
BRANCH  14  17
ATOM     15  C   UNL     1      -0.013   1.086   0.008  0.00  0.00    -0.096 C 
ATOM     16  C   UNL     1      -0.072   1.015   2.428  0.00  0.00    -0.096 C 
ATOM     17  N   UNL     1      -0.727   1.550   1.216  0.00  0.00    +0.382 N 
ATOM     18  H   UNL     1      -1.695   1.209   1.182  0.00  0.00    -0.082 HD
ENDBRANCH  14  17
ENDBRANCH   1  14
BRANCH   4  19
ATOM     19  S   UNL     1      -2.014   5.610   5.729  0.00  0.00    -0.073 S 
BRANCH  19  20
ATOM     20  C   UNL     1      -3.542   5.069   6.535  0.00  0.00    +0.137 C 
ATOM     21  C   UNL     1      -3.380   3.628   7.022  0.00  0.00    +0.029 C 
BRANCH  20  22
ATOM     22  C   UNL     1      -3.834   5.967   7.710  0.00  0.00    +0.226 C 
ATOM     23  O   UNL     1      -2.946   6.630   8.203  0.00  0.00    -0.275 OA
ATOM     24  N   UNL     1      -5.083   6.032   8.214  0.00  0.00    -0.310 N 
ATOM     25  H   UNL     1      -5.793   5.501   7.821  0.00  0.00    +0.149 HD
BRANCH  24  26
ATOM     26  C   UNL     1      -5.367   6.904   9.357  0.00  0.00    +0.139 C 
BRANCH  26  27
ATOM     27  C   UNL     1      -6.825   6.794   9.722  0.00  0.00    -0.027 A 
ATOM     28  C   UNL     1      -7.747   7.647   9.143  0.00  0.00    +0.009 A 
ATOM     29  C   UNL     1      -9.086   7.546   9.471  0.00  0.00    +0.050 A 
ATOM     30  C   UNL     1      -9.506   6.598  10.390  0.00  0.00    +0.166 A 
ATOM     31  C   UNL     1      -8.576   5.743  10.976  0.00  0.00    +0.167 A 
ATOM     32  C   UNL     1      -7.237   5.845  10.639  0.00  0.00    +0.054 A 
ATOM     33  O   UNL     1      -9.232   4.910  11.836  0.00  0.00    -0.453 OA
ATOM     34  C   UNL     1     -10.508   5.531  12.076  0.00  0.00    +0.466 C 
ATOM     35  O   UNL     1     -10.744   6.300  10.882  0.00  0.00    -0.453 OA
ENDBRANCH  26  27
ENDBRANCH  24  26
ENDBRANCH  20  22
ENDBRANCH  19  20
ENDBRANCH   4  19
TORSDOF 8
