REMARK  Name = ZINC31054869
REMARK  10 active torsions:
REMARK  status: ('A' for Active; 'I' for Inactive)
REMARK    1  A    between atoms: C_1  and  C_2
REMARK    2  A    between atoms: C_6  and  C_8
REMARK    3  A    between atoms: C_8  and  S_9
REMARK    4  A    between atoms: S_9  and  C_10
REMARK    5  A    between atoms: C_10  and  C_11
REMARK    6  A    between atoms: C_11  and  N_12
REMARK    7  A    between atoms: C_13  and  C_15
REMARK    8  A    between atoms: N_20  and  C_22
REMARK    9  A    between atoms: C_22  and  C_23
REMARK   10  A    between atoms: C_25  and  C_28
REMARK                            x       y       z     vdW  Elec       q    Type
REMARK                         _______ _______ _______ _____ _____    ______ ____
ROOT
ATOM      1  C   UNL     1      -0.196  12.163  -3.670  0.00  0.00    +0.058 C 
ATOM      2  C   UNL     1       1.057  12.616  -2.916  0.00  0.00    +0.009 C 
ATOM      3  C   UNL     1       1.060  14.144  -2.819  0.00  0.00    -0.018 C 
ATOM      4  C   UNL     1       1.003  14.740  -4.227  0.00  0.00    -0.078 C 
ATOM      5  N   UNL     1      -0.214  14.277  -4.907  0.00  0.00    +0.386 N 
ATOM      6  C   UNL     1      -0.217  12.816  -5.054  0.00  0.00    -0.065 C 
ATOM      7  H   UNL     1      -1.074  14.553  -4.279  0.00  0.00    -0.081 HD
ENDROOT
BRANCH   1   9
ATOM      8  N   UNL     1      -0.156   9.876  -2.729  0.00  0.00    -0.314 N 
ATOM      9  C   UNL     1      -0.176  10.664  -3.822  0.00  0.00    +0.214 C 
ATOM     10  O   UNL     1      -0.179  10.166  -4.928  0.00  0.00    -0.276 OA
ATOM     11  H   UNL     1      -0.154  10.327  -1.726  0.00  0.00    +0.149 HD
BRANCH   8  12
ATOM     12  C   UNL     1      -0.138   8.418  -2.877  0.00  0.00    +0.115 C 
BRANCH  12  13
ATOM     13  C   UNL     1      -0.117   7.766  -1.493  0.00  0.00    +0.088 C 
BRANCH  13  14
ATOM     14  S   UNL     1      -0.094   5.961  -1.676  0.00  0.00    -0.155 S 
BRANCH  14  15
ATOM     15  C   UNL     1      -0.070   5.347   0.031  0.00  0.00    +0.104 C 
BRANCH  15  21
ATOM     16  C   UNL     1      -2.514   0.980   0.019  0.00  0.00    +0.044 C 
ATOM     17  C   UNL     1      -1.219   1.751   0.017  0.00  0.00    -0.050 A 
ATOM     18  C   UNL     1      -0.013   1.076   0.008  0.00  0.00    +0.003 A 
ATOM     19  C   UNL     1       1.175   1.783   0.000  0.00  0.00    +0.001 A 
ATOM     20  C   UNL     1       1.156   3.166   0.008  0.00  0.00    +0.004 A 
ATOM     21  C   UNL     1      -0.050   3.840   0.022  0.00  0.00    -0.037 A 
ATOM     22  C   UNL     1      -1.238   3.133   0.029  0.00  0.00    +0.007 A 
ENDBRANCH  15  21
ENDBRANCH  14  15
ENDBRANCH  13  14
ENDBRANCH  12  13
ENDBRANCH   8  12
ENDBRANCH   1   9
BRANCH   5  23
ATOM     23  C   UNL     1      -0.373  14.938  -6.209  0.00  0.00    +0.022 C 
BRANCH  23  24
ATOM     24  C   UNL     1      -0.122  16.416  -6.056  0.00  0.00    +0.211 A 
ATOM     25  N   UNL     1       1.032  17.025  -6.175  0.00  0.00    -0.193 NA
ATOM     26  C   UNL     1       0.775  18.335  -5.959  0.00  0.00    +0.203 A 
ATOM     27  N   UNL     1      -0.506  18.442  -5.716  0.00  0.00    -0.056 NA
ATOM     28  O   UNL     1      -1.033  17.351  -5.769  0.00  0.00    -0.340 OA
BRANCH  26  29
ATOM     29  C   UNL     1       1.762  19.443  -5.987  0.00  0.00    +0.041 A 
ATOM     30  C   UNL     1       1.351  20.751  -5.739  0.00  0.00    +0.014 A 
ATOM     31  C   UNL     1       2.272  21.778  -5.765  0.00  0.00    +0.021 A 
ATOM     32  C   UNL     1       3.604  21.510  -6.037  0.00  0.00    +0.042 A 
ATOM     33  C   UNL     1       4.017  20.213  -6.285  0.00  0.00    +0.040 A 
ATOM     34  C   UNL     1       3.104  19.177  -6.255  0.00  0.00    +0.053 A 
ATOM     35 CL   UNL     1       3.625  17.549  -6.558  0.00  0.00    -0.083 Cl
ATOM     36 CL   UNL     1       4.758  22.807  -6.069  0.00  0.00    -0.083 Cl
ENDBRANCH  26  29
ENDBRANCH  23  24
ENDBRANCH   5  23
TORSDOF 9
