REMARK  Name = ZINC39431519
REMARK  5 active torsions:
REMARK  status: ('A' for Active; 'I' for Inactive)
REMARK    1  A    between atoms: C_4  and  C_7
REMARK    2  A    between atoms: N_17  and  N_18
REMARK    3  A    between atoms: N_18  and  C_19
REMARK    4  A    between atoms: C_19  and  N_21
REMARK    5  A    between atoms: C_22  and  C_25
REMARK                            x       y       z     vdW  Elec       q    Type
REMARK                         _______ _______ _______ _____ _____    ______ ____
ROOT
ATOM      1  C   UNL     1       3.729  -0.710  -0.018  0.00  0.00    -0.031 C 
ATOM      2  C   UNL     1       4.122  -1.145   1.393  0.00  0.00    +0.025 C 
ATOM      3  C   UNL     1       3.094  -2.084   2.014  0.00  0.00    +0.008 C 
ATOM      4  C   UNL     1       2.974  -3.411   1.282  0.00  0.00    +0.001 C 
ATOM      5  C   UNL     1       4.316  -4.090   1.048  0.00  0.00    +0.008 C 
ATOM      6  C   UNL     1       5.312  -3.145   0.370  0.00  0.00    +0.025 C 
ATOM      7  C   UNL     1       5.430  -1.914   1.254  0.00  0.00    +0.041 C 
ATOM      8  N   UNL     1       6.515  -1.558   1.828  0.00  0.00    -0.190 NA
ATOM      9  C   UNL     1       4.792  -2.715  -0.998  0.00  0.00    -0.031 C 
ATOM     10  N   UNL     1       3.649  -1.819  -0.955  0.00  0.00    +0.389 N 
ATOM     11  H   UNL     1       2.785  -2.321  -0.854  0.00  0.00    -0.084 HD
ATOM     12  H   UNL     1       3.572  -1.398  -1.898  0.00  0.00    -0.084 HD
ENDROOT
BRANCH   1  16
ATOM     13  C   UNL     1       0.010   1.396   0.062  0.00  0.00    +0.000 A 
ATOM     14  C   UNL     1       1.201   2.097   0.054  0.00  0.00    +0.000 A 
ATOM     15  C   UNL     1       2.404   1.416   0.029  0.00  0.00    +0.002 A 
ATOM     16  C   UNL     1       2.415   0.034   0.011  0.00  0.00    -0.061 A 
ATOM     17  C   UNL     1       1.224  -0.667   0.019  0.00  0.00    +0.002 A 
ATOM     18  C   UNL     1       0.021   0.014   0.044  0.00  0.00    +0.000 A 
ENDBRANCH   1  16
BRANCH   9  19
ATOM     19  C   UNL     1       5.909  -2.075  -1.782  0.00  0.00    -0.061 A 
ATOM     20  C   UNL     1       6.462  -0.884  -1.349  0.00  0.00    +0.002 A 
ATOM     21  C   UNL     1       7.487  -0.297  -2.067  0.00  0.00    +0.000 A 
ATOM     22  C   UNL     1       7.958  -0.900  -3.218  0.00  0.00    +0.000 A 
ATOM     23  C   UNL     1       7.405  -2.091  -3.650  0.00  0.00    +0.000 A 
ATOM     24  C   UNL     1       6.384  -2.681  -2.929  0.00  0.00    +0.002 A 
ENDBRANCH   9  19
BRANCH   8  25
ATOM     25  N   UNL     1       7.680  -2.316   1.655  0.00  0.00    -0.219 N 
ATOM     26  H   UNL     1       7.664  -3.111   1.100  0.00  0.00    +0.176 HD
BRANCH  25  27
ATOM     27  C   UNL     1       8.825  -1.940   2.260  0.00  0.00    +0.147 C 
ATOM     28  S   UNL     1      10.249  -2.866   2.048  0.00  0.00    -0.017 S 
BRANCH  27  29
ATOM     29  N   UNL     1       8.848  -0.836   3.031  0.00  0.00    -0.339 N 
ATOM     30  H   UNL     1       8.041  -0.311   3.151  0.00  0.00    +0.144 HD
ATOM     31  H   UNL     1       9.671  -0.565   3.467  0.00  0.00    +0.144 HD
ENDBRANCH  27  29
ENDBRANCH  25  27
ENDBRANCH   8  25
TORSDOF 5
