REMARK  Name = ZINC39441722
REMARK  9 active torsions:
REMARK  status: ('A' for Active; 'I' for Inactive)
REMARK    1  A    between atoms: C_1  and  C_2
REMARK    2  A    between atoms: C_2  and  N_3
REMARK    3  A    between atoms: N_3  and  C_4
REMARK    4  A    between atoms: C_8  and  S_11
REMARK    5  A    between atoms: S_11  and  C_12
REMARK    6  A    between atoms: C_12  and  C_13
REMARK    7  A    between atoms: N_15  and  C_16
REMARK    8  A    between atoms: C_16  and  C_17
REMARK    9  A    between atoms: C_17  and  C_18
REMARK                            x       y       z     vdW  Elec       q    Type
REMARK                         _______ _______ _______ _____ _____    ______ ____
ROOT
ATOM      1  C   UNL     1      -1.542  -7.291  -1.226  0.00  0.00    +0.223 C 
ATOM      2  O   UNL     1      -2.240  -7.749  -2.105  0.00  0.00    -0.275 OA
ATOM      3  N   UNL     1      -1.313  -8.005  -0.106  0.00  0.00    -0.314 N 
ATOM      4  H   UNL     1      -0.755  -7.639   0.598  0.00  0.00    +0.149 HD
ENDROOT
BRANCH   1   5
ATOM      5  C   UNL     1      -0.930  -5.923  -1.385  0.00  0.00    +0.167 C 
BRANCH   5   6
ATOM      6  S   UNL     1      -1.420  -5.223  -2.985  0.00  0.00    -0.121 S 
BRANCH   6  10
ATOM      7  C   UNL     1       0.710  -1.947  -1.215  0.00  0.00    +0.073 C 
ATOM      8  N   UNL     1       1.436  -2.465  -2.407  0.00  0.00    -0.259 NA
ATOM      9  N   UNL     1       0.873  -3.724  -2.880  0.00  0.00    -0.235 NA
ATOM     10  C   UNL     1      -0.613  -3.599  -3.020  0.00  0.00    +0.184 C 
ATOM     11  S   UNL     1      -0.979  -2.630  -1.492  0.00  0.00    -0.130 S 
ATOM     12  H   UNL     1       2.423  -2.559  -2.217  0.00  0.00    +0.140 HD
ATOM     13  H   UNL     1       1.115  -4.484  -2.261  0.00  0.00    +0.143 HD
BRANCH   7  14
ATOM     14  N   UNL     1       0.690  -0.478  -1.207  0.00  0.00    +0.396 N 
ATOM     15  H   UNL     1       0.202  -0.144  -2.024  0.00  0.00    -0.082 HD
ATOM     16  H   UNL     1       1.636  -0.129  -1.214  0.00  0.00    -0.082 HD
BRANCH  14  18
ATOM     17  C   UNL     1      -0.019   1.526   0.010  0.00  0.00    -0.017 C 
ATOM     18  C   UNL     1       0.002  -0.004   0.002  0.00  0.00    -0.083 C 
ENDBRANCH  14  18
ENDBRANCH   7  14
ENDBRANCH   6  10
ENDBRANCH   5   6
ENDBRANCH   1   5
BRANCH   3  19
ATOM     19  C   UNL     1      -1.908  -9.335   0.049  0.00  0.00    +0.109 C 
BRANCH  19  20
ATOM     20  C   UNL     1      -1.494  -9.925   1.399  0.00  0.00    +0.056 C 
BRANCH  20  21
ATOM     21  C   UNL     1      -2.106 -11.293   1.558  0.00  0.00    -0.021 A 
ATOM     22  C   UNL     1      -1.558 -12.556   1.057  0.00  0.00    +0.003 A 
ATOM     23  C   UNL     1      -0.410 -12.900   0.341  0.00  0.00    +0.010 A 
ATOM     24  C   UNL     1      -0.178 -14.207   0.018  0.00  0.00    +0.001 A 
ATOM     25  C   UNL     1      -1.075 -15.197   0.397  0.00  0.00    +0.002 A 
ATOM     26  C   UNL     1      -2.214 -14.880   1.104  0.00  0.00    +0.026 A 
ATOM     27  C   UNL     1      -2.470 -13.555   1.444  0.00  0.00    +0.047 A 
ATOM     28  N   UNL     1      -3.490 -12.932   2.127  0.00  0.00    -0.360 N 
ATOM     29  C   UNL     1      -3.253 -11.586   2.189  0.00  0.00    +0.087 A 
ATOM     30  H   UNL     1      -4.260 -13.381   2.510  0.00  0.00    +0.165 HD
ENDBRANCH  20  21
ENDBRANCH  19  20
ENDBRANCH   3  19
TORSDOF 8
