REMARK  Name = ZINC20694142
REMARK  6 active torsions:
REMARK  status: ('A' for Active; 'I' for Inactive)
REMARK    1  A    between atoms: C_1  and  O_2
REMARK    2  A    between atoms: O_2  and  C_3
REMARK    3  A    between atoms: C_7  and  C_10
REMARK    4  A    between atoms: C_8  and  O_9
REMARK    5  A    between atoms: C_23  and  C_26
REMARK    6  A    between atoms: N_28  and  C_29
REMARK                            x       y       z     vdW  Elec       q    Type
REMARK                         _______ _______ _______ _____ _____    ______ ____
ROOT
ATOM      1  C   UNL     1      -2.519  -4.205  -0.031  0.00  0.00    +0.109 C 
ATOM      2  C   UNL     1      -2.444  -4.723   1.394  0.00  0.00    +0.029 C 
ATOM      3  C   UNL     1      -1.115  -4.542   2.138  0.00  0.00    +0.033 C 
ATOM      4  C   UNL     1      -1.133  -5.735   3.096  0.00  0.00    -0.030 C 
ATOM      5  C   UNL     1      -1.885  -6.708   2.595  0.00  0.00    -0.023 C 
ATOM      6  C   UNL     1      -2.428  -6.277   1.270  0.00  0.00    +0.049 C 
ATOM      7  C   UNL     1      -3.751  -6.703   0.763  0.00  0.00    -0.019 A 
ATOM      8  C   UNL     1      -4.353  -7.875   1.163  0.00  0.00    +0.006 A 
ATOM      9  C   UNL     1      -5.587  -8.245   0.654  0.00  0.00    +0.001 A 
ATOM     10  C   UNL     1      -6.228  -7.440  -0.263  0.00  0.00    +0.015 A 
ATOM     11  C   UNL     1      -5.636  -6.246  -0.677  0.00  0.00    +0.058 A 
ATOM     12  C   UNL     1      -4.390  -5.863  -0.156  0.00  0.00    +0.044 A 
ATOM     13  N   UNL     1      -3.830  -4.650  -0.551  0.00  0.00    -0.336 N 
ATOM     14  H   UNL     1      -4.309  -4.085  -1.177  0.00  0.00    +0.147 HD
ENDROOT
BRANCH   1  19
ATOM     15  C   UNL     1      -1.131  -0.684  -0.079  0.00  0.00    +0.162 A 
ATOM     16  C   UNL     1      -2.295   0.067  -0.064  0.00  0.00    +0.049 A 
ATOM     17  C   UNL     1      -3.525  -0.565  -0.039  0.00  0.00    +0.004 A 
ATOM     18  C   UNL     1      -3.596  -1.946  -0.028  0.00  0.00    +0.009 A 
ATOM     19  C   UNL     1      -2.438  -2.701  -0.043  0.00  0.00    +0.018 A 
ATOM     20  C   UNL     1      -1.202  -2.074  -0.074  0.00  0.00    +0.163 A 
BRANCH  15  22
ATOM     21  C   UNL     1       0.077   1.365  -0.107  0.00  0.00    +0.277 C 
ATOM     22  O   UNL     1       0.080  -0.064  -0.104  0.00  0.00    -0.491 OA
ENDBRANCH  15  22
BRANCH  20  23
ATOM     23  O   UNL     1      -0.062  -2.815  -0.095  0.00  0.00    -0.503 OA
ATOM     24  H   UNL     1       0.285  -3.027   0.783  0.00  0.00    +0.292 HD
ENDBRANCH  20  23
ENDBRANCH   1  19
BRANCH  11  25
ATOM     25  C   UNL     1      -6.319  -5.388  -1.663  0.00  0.00    +0.246 C 
ATOM     26  O   UNL     1      -5.858  -4.298  -1.942  0.00  0.00    -0.270 OA
ATOM     27  N   UNL     1      -7.454  -5.811  -2.253  0.00  0.00    -0.308 N 
ATOM     28  H   UNL     1      -7.822  -6.681  -2.030  0.00  0.00    +0.149 HD
BRANCH  27  29
ATOM     29  C   UNL     1      -8.132  -4.958  -3.233  0.00  0.00    +0.073 C 
ATOM     30  C   UNL     1      -9.051  -3.976  -2.503  0.00  0.00    +0.022 C 
ATOM     31  C   UNL     1      -9.760  -3.086  -3.526  0.00  0.00    +0.002 C 
ATOM     32  C   UNL     1     -10.590  -3.956  -4.471  0.00  0.00    +0.000 C 
ATOM     33  C   UNL     1      -9.671  -4.938  -5.201  0.00  0.00    +0.002 C 
ATOM     34  C   UNL     1      -8.963  -5.828  -4.178  0.00  0.00    +0.022 C 
ENDBRANCH  27  29
ENDBRANCH  11  25
TORSDOF 5
