REMARK  Name = ZINC65009556
REMARK  7 active torsions:
REMARK  status: ('A' for Active; 'I' for Inactive)
REMARK    1  A    between atoms: C_1  and  O_2
REMARK    2  A    between atoms: O_2  and  C_3
REMARK    3  A    between atoms: C_6  and  C_17
REMARK    4  A    between atoms: C_8  and  S_9
REMARK    5  A    between atoms: S_9  and  N_12
REMARK    6  A    between atoms: C_20  and  N_23
REMARK    7  A    between atoms: N_23  and  C_24
REMARK                            x       y       z     vdW  Elec       q    Type
REMARK                         _______ _______ _______ _____ _____    ______ ____
ROOT
ATOM      1  C   UNL     1       2.065  -2.257  -4.834  0.00  0.00    +0.091 A 
ATOM      2  C   UNL     1       2.970  -1.575  -5.653  0.00  0.00    +0.033 A 
ATOM      3  C   UNL     1       3.717  -2.315  -6.552  0.00  0.00    +0.045 A 
ATOM      4  C   UNL     1       3.521  -3.696  -6.586  0.00  0.00    +0.117 A 
ATOM      5  N   UNL     1       2.640  -4.259  -5.771  0.00  0.00    -0.263 N 
ATOM      6  N   UNL     1       1.950  -3.575  -4.933  0.00  0.00    -0.172 NA
ATOM      7  H   UNL     1       2.515  -5.220  -5.807  0.00  0.00    +0.190 HD
ENDROOT
BRANCH   1  11
ATOM      8  C   UNL     1      -0.300  -0.115  -2.022  0.00  0.00    +0.146 A 
ATOM      9  C   UNL     1       0.521   0.575  -2.905  0.00  0.00    +0.048 A 
ATOM     10  C   UNL     1       1.289  -0.117  -3.817  0.00  0.00    +0.014 A 
ATOM     11  C   UNL     1       1.240  -1.510  -3.853  0.00  0.00    +0.004 A 
ATOM     12  C   UNL     1       0.415  -2.199  -2.966  0.00  0.00    +0.042 A 
ATOM     13  C   UNL     1      -0.347  -1.502  -2.052  0.00  0.00    +0.147 A 
BRANCH  13  14
ATOM     14  S   UNL     1      -1.386  -2.372  -0.926  0.00  0.00    +0.064 S 
ATOM     15  O   UNL     1      -2.664  -1.754  -0.992  0.00  0.00    -0.153 OA
ATOM     16  O   UNL     1      -1.195  -3.757  -1.185  0.00  0.00    -0.153 OA
BRANCH  14  17
ATOM     17  N   UNL     1      -0.802  -2.090   0.597  0.00  0.00    -0.176 NA
ATOM     18  C   UNL     1       0.210  -2.901   1.291  0.00  0.00    +0.109 C 
ATOM     19  C   UNL     1       0.419  -2.276   2.687  0.00  0.00    +0.018 C 
ATOM     20  C   UNL     1      -0.897  -1.486   2.914  0.00  0.00    +0.018 C 
ATOM     21  C   UNL     1      -1.205  -0.980   1.480  0.00  0.00    +0.109 C 
ENDBRANCH  14  17
ENDBRANCH  13  14
BRANCH   8  23
ATOM     22  C   UNL     1      -0.960   1.995  -1.148  0.00  0.00    +0.277 C 
ATOM     23  O   UNL     1      -1.056   0.570  -1.124  0.00  0.00    -0.493 OA
ENDBRANCH   8  23
ENDBRANCH   1  11
BRANCH   4  24
ATOM     24  N   UNL     1       4.248  -4.481  -7.474  0.00  0.00    -0.298 N 
ATOM     25  H   UNL     1       4.006  -5.411  -7.611  0.00  0.00    +0.154 HD
BRANCH  24  26
ATOM     26  C   UNL     1       5.330  -3.931  -8.170  0.00  0.00    +0.071 A 
ATOM     27  C   UNL     1       6.264  -3.153  -7.500  0.00  0.00    +0.064 A 
ATOM     28  C   UNL     1       7.333  -2.610  -8.191  0.00  0.00    +0.125 A 
ATOM     29  C   UNL     1       7.471  -2.843  -9.550  0.00  0.00    +0.041 A 
ATOM     30  C   UNL     1       6.542  -3.617 -10.219  0.00  0.00    +0.043 A 
ATOM     31  C   UNL     1       5.475  -4.167  -9.533  0.00  0.00    +0.145 A 
ATOM     32  F   UNL     1       4.570  -4.928 -10.187  0.00  0.00    -0.204 F 
ATOM     33  F   UNL     1       8.243  -1.853  -7.540  0.00  0.00    -0.205 F 
ENDBRANCH  24  26
ENDBRANCH   4  24
TORSDOF 6
