REMARK  Name = ZINC23844550
REMARK  6 active torsions:
REMARK  status: ('A' for Active; 'I' for Inactive)
REMARK    1  A    between atoms: C_6  and  C_7
REMARK    2  A    between atoms: C_7  and  C_9
REMARK    3  A    between atoms: C_7  and  N_25
REMARK    4  A    between atoms: C_9  and  C_10
REMARK    5  A    between atoms: N_15  and  C_18
REMARK    6  A    between atoms: C_18  and  C_19
REMARK                            x       y       z     vdW  Elec       q    Type
REMARK                         _______ _______ _______ _____ _____    ______ ____
ROOT
ATOM      1  C   UNL     1      -1.210   2.686   1.056  0.00  0.00    +0.123 C 
ENDROOT
BRANCH   1   2
ATOM      2  C   UNL     1      -1.181   2.031   2.413  0.00  0.00    +0.218 C 
ATOM      3  O   UNL     1      -1.244   0.824   2.505  0.00  0.00    -0.276 OA
ATOM      4  N   UNL     1      -1.084   2.788   3.524  0.00  0.00    -0.299 N 
ATOM      5  C   UNL     1      -1.000   4.254   3.434  0.00  0.00    +0.123 C 
ATOM      6  C   UNL     1      -2.063   4.856   4.368  0.00  0.00    +0.104 C 
ATOM      7  N   UNL     1      -1.888   4.306   5.718  0.00  0.00    -0.295 NA
ATOM      8  C   UNL     1      -2.108   2.853   5.735  0.00  0.00    +0.104 C 
ATOM      9  C   UNL     1      -1.054   2.170   4.858  0.00  0.00    +0.123 C 
BRANCH   7  10
ATOM     10  C   UNL     1      -2.768   4.983   6.680  0.00  0.00    +0.127 C 
BRANCH  10  11
ATOM     11  C   UNL     1      -2.694   6.473   6.466  0.00  0.00    +0.005 A 
ATOM     12  C   UNL     1      -3.449   7.256   5.658  0.00  0.00    +0.013 A 
ATOM     13  C   UNL     1      -3.201   8.616   5.621  0.00  0.00    +0.023 A 
ATOM     14  C   UNL     1      -2.210   9.125   6.394  0.00  0.00    +0.055 A 
ATOM     15  S   UNL     1      -1.596   7.664   7.216  0.00  0.00    -0.085 S 
ATOM     16 BR   UNL     1      -1.633  10.918   6.564  0.00  0.00    -0.043 Br
ENDBRANCH  10  11
ENDBRANCH   7  10
ENDBRANCH   1   2
BRANCH   1  17
ATOM     17  C   UNL     1      -1.323   1.610  -0.027  0.00  0.00    +0.113 C 
BRANCH  17  23
ATOM     18  C   UNL     1      -0.378   2.833  -1.996  0.00  0.00    +0.007 A 
ATOM     19  C   UNL     1      -0.517   3.432  -3.234  0.00  0.00    +0.020 A 
ATOM     20  C   UNL     1      -1.757   3.475  -3.846  0.00  0.00    +0.041 A 
ATOM     21  C   UNL     1      -2.856   2.914  -3.221  0.00  0.00    +0.020 A 
ATOM     22  C   UNL     1      -2.715   2.311  -1.986  0.00  0.00    +0.007 A 
ATOM     23  C   UNL     1      -1.476   2.268  -1.374  0.00  0.00    -0.027 A 
ATOM     24 CL   UNL     1      -1.933   4.234  -5.397  0.00  0.00    -0.084 Cl
ENDBRANCH  17  23
BRANCH  17  25
ATOM     25  N   UNL     1      -0.114   0.783  -0.021  0.00  0.00    -0.292 N 
ATOM     26  C   UNL     1      -0.164  -0.486  -0.472  0.00  0.00    +0.298 C 
ATOM     27  O   UNL     1      -1.229  -0.973  -0.802  0.00  0.00    -0.253 OA
ATOM     28  N   UNL     1       0.965  -1.217  -0.555  0.00  0.00    -0.313 N 
ATOM     29  H   UNL     1       0.834   1.198   0.350  0.00  0.00    +0.151 HD
ATOM     30  H   UNL     1       0.924  -2.253  -0.922  0.00  0.00    +0.146 HD
ATOM     31  H   UNL     1       1.928  -0.777  -0.256  0.00  0.00    +0.146 HD
ENDBRANCH  17  25
ENDBRANCH   1  17
TORSDOF 6
