REMARK  Name = ZINC04574528
REMARK  5 active torsions:
REMARK  status: ('A' for Active; 'I' for Inactive)
REMARK    1  A    between atoms: C_1  and  C_2
REMARK    2  A    between atoms: C_3  and  C_26
REMARK    3  A    between atoms: C_4  and  C_19
REMARK    4  A    between atoms: C_9  and  C_11
REMARK    5  A    between atoms: C_22  and  O_25
REMARK                            x       y       z     vdW  Elec       q    Type
REMARK                         _______ _______ _______ _____ _____    ______ ____
ROOT
ATOM      1  C   UNL     1      -0.226  -7.794   0.798  0.00  0.00    +0.061 C 
ATOM      2  C   UNL     1       0.515  -6.556   0.364  0.00  0.00    +0.018 C 
ATOM      3  C   UNL     1       1.855  -6.554   0.411  0.00  0.00    +0.060 C 
ATOM      4  C   UNL     1       2.691  -5.375  -0.011  0.00  0.00    +0.177 C 
ATOM      5  N   UNL     1       1.833  -4.205  -0.176  0.00  0.00    -0.220 N 
ATOM      6  C   UNL     1       0.477  -4.266  -0.206  0.00  0.00    +0.219 A 
ATOM      7  N   UNL     1       0.019  -3.057  -0.373  0.00  0.00    -0.193 NA
ATOM      8  C   UNL     1       1.047  -2.194  -0.450  0.00  0.00    +0.183 A 
ATOM      9  N   UNL     1       2.177  -2.863  -0.337  0.00  0.00    -0.147 NA
ATOM     10  N   UNL     1      -0.204  -5.468  -0.066  0.00  0.00    -0.287 N 
ATOM     11  H   UNL     1      -1.151  -5.537  -0.265  0.00  0.00    +0.155 HD
ENDROOT
BRANCH   8  12
ATOM     12  C   UNL     1       0.928  -0.727  -0.638  0.00  0.00    +0.022 A 
ATOM     13  C   UNL     1       2.074   0.064  -0.704  0.00  0.00    +0.012 A 
ATOM     14  C   UNL     1       1.959   1.428  -0.879  0.00  0.00    +0.002 A 
ATOM     15  C   UNL     1       0.710   2.011  -0.991  0.00  0.00    +0.020 A 
ATOM     16  C   UNL     1      -0.432   1.230  -0.927  0.00  0.00    +0.042 A 
ATOM     17  C   UNL     1      -0.328  -0.136  -0.751  0.00  0.00    +0.031 A 
ATOM     18 CL   UNL     1      -1.996   1.969  -1.075  0.00  0.00    -0.084 Cl
ENDBRANCH   8  12
BRANCH   4  19
ATOM     19  C   UNL     1       3.375  -5.686  -1.317  0.00  0.00    -0.018 A 
ATOM     20  C   UNL     1       2.620  -5.985  -2.437  0.00  0.00    +0.009 A 
ATOM     21  C   UNL     1       3.244  -6.264  -3.637  0.00  0.00    +0.046 A 
ATOM     22  C   UNL     1       4.629  -6.256  -3.716  0.00  0.00    +0.117 A 
ATOM     23  C   UNL     1       5.384  -5.960  -2.590  0.00  0.00    +0.046 A 
ATOM     24  C   UNL     1       4.755  -5.676  -1.393  0.00  0.00    +0.009 A 
BRANCH  22  25
ATOM     25  O   UNL     1       5.246  -6.537  -4.894  0.00  0.00    -0.507 OA
ATOM     26  H   UNL     1       5.441  -7.475  -5.022  0.00  0.00    +0.292 HD
ENDBRANCH  22  25
ENDBRANCH   4  19
BRANCH   3  27
ATOM     27  C   UNL     1       2.515  -7.715   0.880  0.00  0.00    +0.241 C 
ATOM     28  O   UNL     1       2.910  -7.768   2.031  0.00  0.00    -0.271 OA
ATOM     29  N   UNL     1       2.706  -8.762   0.053  0.00  0.00    -0.325 N 
ATOM     30  H   UNL     1       2.392  -8.719  -0.864  0.00  0.00    +0.145 HD
ATOM     31  H   UNL     1       3.159  -9.557   0.374  0.00  0.00    +0.145 HD
ENDBRANCH   3  27
TORSDOF 4
