REMARK  Name = ZINC04091300
REMARK  5 active torsions:
REMARK  status: ('A' for Active; 'I' for Inactive)
REMARK    1  A    between atoms: C_1  and  O_2
REMARK    2  A    between atoms: O_2  and  C_3
REMARK    3  A    between atoms: C_5  and  C_11
REMARK    4  A    between atoms: C_8  and  O_9
REMARK    5  A    between atoms: N_12  and  N_13
REMARK                            x       y       z     vdW  Elec       q    Type
REMARK                         _______ _______ _______ _____ _____    ______ ____
ROOT
ATOM      1  N   UNL     1      -2.540   4.098   0.036  0.00  0.00    -0.220 N 
ATOM      2  C   UNL     1      -2.557   5.481   0.044  0.00  0.00    +0.150 A 
ATOM      3  C   UNL     1      -3.788   6.188  -0.053  0.00  0.00    +0.052 A 
ATOM      4  C   UNL     1      -5.145   5.653  -0.171  0.00  0.00    -0.025 A 
ATOM      5  C   UNL     1      -6.151   6.548  -0.247  0.00  0.00    -0.004 A 
ATOM      6  S   UNL     1      -5.365   8.135  -0.169  0.00  0.00    -0.073 S 
ATOM      7  C   UNL     1      -3.682   7.593  -0.034  0.00  0.00    +0.114 A 
ATOM      8  N   UNL     1      -2.513   8.195   0.066  0.00  0.00    -0.228 NA
ATOM      9  C   UNL     1      -1.404   7.486   0.153  0.00  0.00    +0.224 A 
ATOM     10  N   UNL     1      -1.428   6.165   0.147  0.00  0.00    -0.219 NA
ATOM     11  C   UNL     1      -7.616   6.259  -0.371  0.00  0.00    +0.043 C 
ATOM     12  C   UNL     1      -7.787   4.788  -0.774  0.00  0.00    +0.005 C 
ATOM     13  C   UNL     1      -6.905   3.925   0.133  0.00  0.00    +0.005 C 
ATOM     14  C   UNL     1      -5.432   4.154  -0.205  0.00  0.00    +0.037 C 
ATOM     15  H   UNL     1      -3.320   3.605  -0.264  0.00  0.00    +0.176 HD
ENDROOT
BRANCH   1  17
ATOM     16  C   UNL     1      -1.381   2.111   0.455  0.00  0.00    +0.138 C 
ATOM     17  N   UNL     1      -1.397   3.409   0.463  0.00  0.00    -0.189 NA
BRANCH  16  20
ATOM     18  C   UNL     1       0.973  -0.686   1.313  0.00  0.00    +0.163 A 
ATOM     19  C   UNL     1      -0.160  -0.011   0.897  0.00  0.00    +0.059 A 
ATOM     20  C   UNL     1      -0.178   1.386   0.904  0.00  0.00    -0.001 A 
ATOM     21  C   UNL     1       0.947   2.094   1.332  0.00  0.00    +0.028 A 
ATOM     22  C   UNL     1       2.074   1.414   1.746  0.00  0.00    +0.063 A 
ATOM     23  C   UNL     1       2.092   0.026   1.738  0.00  0.00    +0.173 A 
ATOM     24 BR   UNL     1       3.597   2.374   2.325  0.00  0.00    -0.046 Br
BRANCH  18  26
ATOM     25  C   UNL     1      -0.188  -2.711   0.858  0.00  0.00    +0.277 C 
ATOM     26  O   UNL     1       0.994  -2.046   1.307  0.00  0.00    -0.491 OA
ENDBRANCH  18  26
BRANCH  23  27
ATOM     27  O   UNL     1       3.204  -0.640   2.148  0.00  0.00    -0.503 OA
ATOM     28  H   UNL     1       3.835  -0.825   1.439  0.00  0.00    +0.292 HD
ENDBRANCH  23  27
ENDBRANCH  16  20
ENDBRANCH   1  17
TORSDOF 4
