REMARK  Name = ZINC21457787
REMARK  12 active torsions:
REMARK  status: ('A' for Active; 'I' for Inactive)
REMARK    1  A    between atoms: C_1  and  C_2
REMARK    2  A    between atoms: C_5  and  C_8
REMARK    3  A    between atoms: C_8  and  N_9
REMARK    4  A    between atoms: C_11  and  C_15
REMARK    5  A    between atoms: C_12  and  C_14
REMARK    6  A    between atoms: C_16  and  C_17
REMARK    7  A    between atoms: C_17  and  O_19
REMARK    8  A    between atoms: O_19  and  C_20
REMARK    9  A    between atoms: C_20  and  C_22
REMARK   10  A    between atoms: C_20  and  C_23
REMARK   11  A    between atoms: N_25  and  C_26
REMARK   12  A    between atoms: C_26  and  C_27
REMARK                            x       y       z     vdW  Elec       q    Type
REMARK                         _______ _______ _______ _____ _____    ______ ____
ROOT
ATOM      1  C   UNL     1       1.856   7.888   4.135  0.00  0.00    +0.333 C 
ATOM      2  O   UNL     1       2.304   7.189   5.024  0.00  0.00    -0.246 OA
ENDROOT
BRANCH   1   4
ATOM      3  C   UNL     1       2.608   9.863   5.266  0.00  0.00    +0.020 C 
ATOM      4  C   UNL     1       1.986   9.295   4.207  0.00  0.00    +0.092 C 
BRANCH   3   7
ATOM      5  N   UNL     1       3.179  13.415   4.822  0.00  0.00    -0.248 N 
ATOM      6  C   UNL     1       3.222  12.158   4.345  0.00  0.00    +0.135 A 
ATOM      7  C   UNL     1       2.743  11.323   5.341  0.00  0.00    +0.034 A 
ATOM      8  C   UNL     1       2.403  12.143   6.443  0.00  0.00    +0.069 A 
ATOM      9  N   UNL     1       2.671  13.379   6.125  0.00  0.00    -0.174 NA
ATOM     10  C   UNL     1       1.834  11.671   7.756  0.00  0.00    +0.068 C 
ATOM     11 CL   UNL     1       3.776  11.673   2.773  0.00  0.00    -0.062 Cl
BRANCH   5  12
ATOM     12  C   UNL     1       3.595  14.619   4.099  0.00  0.00    +0.180 C 
BRANCH  12  17
ATOM     13  C   UNL     1      -0.911  16.772   1.191  0.00  0.00    +0.044 C 
ATOM     14  C   UNL     1       0.265  16.211   1.949  0.00  0.00    -0.050 A 
ATOM     15  C   UNL     1       0.512  16.623   3.245  0.00  0.00    +0.004 A 
ATOM     16  C   UNL     1       1.590  16.108   3.941  0.00  0.00    +0.006 A 
ATOM     17  C   UNL     1       2.420  15.180   3.340  0.00  0.00    -0.026 A 
ATOM     18  C   UNL     1       2.176  14.772   2.042  0.00  0.00    +0.006 A 
ATOM     19  C   UNL     1       1.096  15.284   1.348  0.00  0.00    +0.004 A 
ENDBRANCH  12  17
ENDBRANCH   5  12
ENDBRANCH   3   7
ENDBRANCH   1   4
BRANCH   1  20
ATOM     20  O   UNL     1       1.236   7.322   3.078  0.00  0.00    -0.449 OA
BRANCH  20  21
ATOM     21  C   UNL     1       1.141   5.896   3.070  0.00  0.00    +0.259 C 
ATOM     22  C   UNL     1      -0.154   5.468   3.764  0.00  0.00    +0.062 C 
BRANCH  21  23
ATOM     23  C   UNL     1       1.135   5.401   1.647  0.00  0.00    +0.254 C 
ATOM     24  O   UNL     1       1.114   6.194   0.729  0.00  0.00    -0.272 OA
ATOM     25  N   UNL     1       1.153   4.077   1.394  0.00  0.00    -0.308 N 
ATOM     26  H   UNL     1       1.172   3.358   2.226  0.00  0.00    +0.149 HD
BRANCH  25  27
ATOM     27  C   UNL     1       1.147   3.596   0.010  0.00  0.00    +0.139 C 
BRANCH  27  28
ATOM     28  C   UNL     1       1.171   2.089   0.002  0.00  0.00    -0.027 A 
ATOM     29  C   UNL     1       2.379   1.418  -0.011  0.00  0.00    +0.009 A 
ATOM     30  C   UNL     1       2.405   0.036  -0.020  0.00  0.00    +0.050 A 
ATOM     31  C   UNL     1       1.220  -0.680  -0.013  0.00  0.00    +0.166 A 
ATOM     32  C   UNL     1       0.002  -0.004   0.002  0.00  0.00    +0.167 A 
ATOM     33  C   UNL     1      -0.017   1.381   0.010  0.00  0.00    +0.054 A 
ATOM     34  O   UNL     1      -1.007  -0.923   0.006  0.00  0.00    -0.453 OA
ATOM     35  C   UNL     1      -0.404  -2.159  -0.418  0.00  0.00    +0.466 C 
ATOM     36  O   UNL     1       0.973  -2.023  -0.018  0.00  0.00    -0.453 OA
ENDBRANCH  27  28
ENDBRANCH  25  27
ENDBRANCH  21  23
ENDBRANCH  20  21
ENDBRANCH   1  20
TORSDOF 9
