REMARK  Name = ZINC36206198
REMARK  11 active torsions:
REMARK  status: ('A' for Active; 'I' for Inactive)
REMARK    1  A    between atoms: C_4  and  C_7
REMARK    2  A    between atoms: C_7  and  O_8
REMARK    3  A    between atoms: O_8  and  C_9
REMARK    4  A    between atoms: C_9  and  C_10
REMARK    5  A    between atoms: C_10  and  C_12
REMARK    6  A    between atoms: C_10  and  O_36
REMARK    7  A    between atoms: C_12  and  N_13
REMARK    8  A    between atoms: N_13  and  C_14
REMARK    9  A    between atoms: N_13  and  C_33
REMARK   10  A    between atoms: C_14  and  C_15
REMARK   11  A    between atoms: C_21  and  C_26
REMARK                            x       y       z     vdW  Elec       q    Type
REMARK                         _______ _______ _______ _____ _____    ______ ____
ROOT
ATOM      1  C   UNL     1       8.433  -3.716   4.411  0.00  0.00    -0.003 C 
ENDROOT
BRANCH   1   2
ATOM      2  C   UNL     1       8.791  -4.103   5.823  0.00  0.00    +0.094 A 
ATOM      3  N   UNL     1       9.928  -4.808   6.055  0.00  0.00    -0.312 N 
ATOM      4  H   UNL     1      10.495  -5.054   5.307  0.00  0.00    +0.170 HD
ATOM      5  C   UNL     1      10.283  -5.172   7.301  0.00  0.00    +0.260 A 
ATOM      6  O   UNL     1      11.307  -5.805   7.492  0.00  0.00    -0.267 OA
ATOM      7  C   UNL     1       9.440  -4.805   8.398  0.00  0.00    +0.080 A 
ATOM      8  C   UNL     1       9.606  -5.078   9.820  0.00  0.00    +0.004 A 
ATOM      9  C   UNL     1       8.667  -4.624  10.685  0.00  0.00    +0.056 A 
ATOM     10  S   UNL     1       7.496  -3.798   9.625  0.00  0.00    -0.076 S 
ATOM     11  C   UNL     1       8.287  -4.077   8.062  0.00  0.00    +0.116 A 
ATOM     12  N   UNL     1       8.004  -3.749   6.804  0.00  0.00    -0.229 NA
BRANCH   8  13
ATOM     13  C   UNL     1      10.781  -5.838  10.312  0.00  0.00    -0.016 A 
ATOM     14  C   UNL     1      11.129  -7.049   9.716  0.00  0.00    +0.010 A 
ATOM     15  C   UNL     1      12.223  -7.752  10.177  0.00  0.00    +0.020 A 
ATOM     16  C   UNL     1      12.975  -7.256  11.228  0.00  0.00    +0.041 A 
ATOM     17  C   UNL     1      12.633  -6.054  11.823  0.00  0.00    +0.020 A 
ATOM     18  C   UNL     1      11.544  -5.340  11.367  0.00  0.00    +0.010 A 
ATOM     19 CL   UNL     1      14.350  -8.146  11.803  0.00  0.00    -0.084 Cl
ENDBRANCH   8  13
ENDBRANCH   1   2
BRANCH   1  20
ATOM     20  N   UNL     1       7.174  -2.959   4.414  0.00  0.00    +0.388 N 
ATOM     21  H   UNL     1       6.458  -3.499   4.877  0.00  0.00    -0.081 HD
BRANCH  20  22
ATOM     22  C   UNL     1       7.368  -1.690   5.128  0.00  0.00    -0.068 C 
ATOM     23  C   UNL     1       6.556  -1.466   6.405  0.00  0.00    -0.017 C 
ATOM     24  C   UNL     1       6.204  -0.697   5.130  0.00  0.00    -0.017 C 
ENDBRANCH  20  22
BRANCH  20  25
ATOM     25  C   UNL     1       6.764  -2.686   3.031  0.00  0.00    -0.044 C 
BRANCH  25  26
ATOM     26  C   UNL     1       6.418  -4.002   2.332  0.00  0.00    +0.124 C 
BRANCH  26  27
ATOM     27  O   UNL     1       5.341  -4.639   3.021  0.00  0.00    -0.391 OA
ATOM     28  H   UNL     1       4.530  -4.113   3.055  0.00  0.00    +0.210 HD
ENDBRANCH  26  27
BRANCH  26  29
ATOM     29  C   UNL     1       6.003  -3.719   0.887  0.00  0.00    +0.189 C 
BRANCH  29  30
ATOM     30  O   UNL     1       5.793  -4.954   0.200  0.00  0.00    -0.373 OA
BRANCH  30  31
ATOM     31  C   UNL     1       5.399  -4.801  -1.165  0.00  0.00    +0.195 C 
BRANCH  31  35
ATOM     32  C   UNL     1       4.852  -8.652  -2.932  0.00  0.00    +0.000 A 
ATOM     33  C   UNL     1       3.791  -8.018  -2.312  0.00  0.00    +0.000 A 
ATOM     34  C   UNL     1       3.968  -6.772  -1.740  0.00  0.00    +0.006 A 
ATOM     35  C   UNL     1       5.206  -6.160  -1.788  0.00  0.00    -0.022 A 
ATOM     36  C   UNL     1       6.267  -6.794  -2.406  0.00  0.00    +0.006 A 
ATOM     37  C   UNL     1       6.090  -8.039  -2.979  0.00  0.00    +0.000 A 
ENDBRANCH  31  35
ENDBRANCH  30  31
ENDBRANCH  29  30
ENDBRANCH  26  29
ENDBRANCH  25  26
ENDBRANCH  20  25
ENDBRANCH   1  20
TORSDOF 11
