REMARK  Name = ZINC08721917
REMARK  11 active torsions:
REMARK  status: ('A' for Active; 'I' for Inactive)
REMARK    1  A    between atoms: C_1  and  C_2
REMARK    2  A    between atoms: C_2  and  C_3
REMARK    3  A    between atoms: C_2  and  C_4
REMARK    4  A    between atoms: C_2  and  C_5
REMARK    5  A    between atoms: C_8  and  O_11
REMARK    6  A    between atoms: O_11  and  C_12
REMARK    7  A    between atoms: C_12  and  C_13
REMARK    8  A    between atoms: C_13  and  O_14
REMARK    9  A    between atoms: O_14  and  C_15
REMARK   10  A    between atoms: C_19  and  C_21
REMARK   11  A    between atoms: C_31  and  C_33
REMARK                            x       y       z     vdW  Elec       q    Type
REMARK                         _______ _______ _______ _____ _____    ______ ____
ROOT
ATOM      1  C   UNL     1       4.173  -2.445  -8.600  0.00  0.00    +0.121 A 
ATOM      2  C   UNL     1       4.935  -3.566  -8.905  0.00  0.00    +0.045 A 
ATOM      3  C   UNL     1       5.156  -3.924 -10.223  0.00  0.00    +0.004 A 
ATOM      4  C   UNL     1       4.622  -3.170 -11.246  0.00  0.00    +0.008 A 
ATOM      5  C   UNL     1       3.853  -2.037 -10.951  0.00  0.00    -0.021 A 
ATOM      6  C   UNL     1       3.627  -1.681  -9.616  0.00  0.00    +0.053 A 
ENDROOT
BRANCH   5   7
ATOM      7  C   UNL     1       3.282  -1.230 -12.036  0.00  0.00    +0.024 C 
ATOM      8  C   UNL     1       3.990  -1.035 -13.187  0.00  0.00    +0.081 C 
ATOM      9  C   UNL     1       3.383  -0.381 -14.382  0.00  0.00    +0.152 C 
ATOM     10  N   UNL     1       2.479   0.558 -14.303  0.00  0.00    -0.283 NA
ATOM     11  N   UNL     1       3.882  -0.876 -15.605  0.00  0.00    -0.152 N 
ATOM     12  C   UNL     1       5.126  -1.471 -15.591  0.00  0.00    +0.181 C 
ATOM     13  N   UNL     1       5.879  -1.724 -14.550  0.00  0.00    -0.152 NA
ATOM     14  C   UNL     1       5.408  -1.456 -13.314  0.00  0.00    +0.273 C 
ATOM     15  O   UNL     1       6.123  -1.561 -12.331  0.00  0.00    -0.268 OA
ATOM     16  S   UNL     1       5.397  -1.805 -17.312  0.00  0.00    -0.038 S 
ATOM     17  C   UNL     1       3.814  -1.232 -17.914  0.00  0.00    +0.103 C 
ATOM     18  N   UNL     1       3.240  -0.810 -16.824  0.00  0.00    -0.169 NA
ATOM     19  H   UNL     1       2.116   0.951 -15.113  0.00  0.00    +0.188 HD
BRANCH  17  20
ATOM     20  C   UNL     1       3.281  -1.235 -19.323  0.00  0.00    +0.046 C 
ATOM     21  C   UNL     1       2.223  -0.140 -19.471  0.00  0.00    +0.010 C 
ATOM     22  C   UNL     1       1.681  -0.143 -20.901  0.00  0.00    +0.001 C 
ATOM     23  C   UNL     1       1.052  -1.504 -21.206  0.00  0.00    +0.000 C 
ATOM     24  C   UNL     1       2.110  -2.599 -21.058  0.00  0.00    +0.001 C 
ATOM     25  C   UNL     1       2.652  -2.596 -19.627  0.00  0.00    +0.010 C 
ENDBRANCH  17  20
ENDBRANCH   5   7
BRANCH   1  26
ATOM     26  O   UNL     1       3.961  -2.100  -7.303  0.00  0.00    -0.489 OA
BRANCH  26  27
ATOM     27  C   UNL     1       4.556  -2.933  -6.305  0.00  0.00    +0.270 C 
BRANCH  27  28
ATOM     28  C   UNL     1       4.209  -2.391  -4.917  0.00  0.00    +0.270 C 
BRANCH  28  29
ATOM     29  O   UNL     1       2.800  -2.493  -4.704  0.00  0.00    -0.489 OA
BRANCH  29  33
ATOM     30  C   UNL     1       1.352  -1.156  -1.079  0.00  0.00    -0.042 A 
ATOM     31  C   UNL     1       0.482  -1.673  -2.022  0.00  0.00    +0.008 A 
ATOM     32  C   UNL     1       0.965  -2.122  -3.236  0.00  0.00    +0.046 A 
ATOM     33  C   UNL     1       2.323  -2.053  -3.510  0.00  0.00    +0.121 A 
ATOM     34  C   UNL     1       3.193  -1.533  -2.563  0.00  0.00    +0.046 A 
ATOM     35  C   UNL     1       2.705  -1.081  -1.352  0.00  0.00    +0.008 A 
BRANCH  30  37
ATOM     36  C   UNL     1       1.152   0.817   0.409  0.00  0.00    +0.015 C 
ATOM     37  C   UNL     1       0.823  -0.668   0.245  0.00  0.00    -0.013 C 
ATOM     38  C   UNL     1       1.474  -1.463   1.378  0.00  0.00    +0.015 C 
ATOM     39  C   UNL     1      -0.694  -0.863   0.291  0.00  0.00    +0.015 C 
ENDBRANCH  30  37
ENDBRANCH  29  33
ENDBRANCH  28  29
ENDBRANCH  27  28
ENDBRANCH  26  27
ENDBRANCH   1  26
TORSDOF 8
