REMARK  Name = ZINC53114032
REMARK  5 active torsions:
REMARK  status: ('A' for Active; 'I' for Inactive)
REMARK    1  A    between atoms: C_8  and  N_13
REMARK    2  A    between atoms: C_9  and  N_12
REMARK    3  A    between atoms: N_13  and  C_14
REMARK    4  A    between atoms: C_14  and  C_20
REMARK    5  A    between atoms: C_20  and  O_21
REMARK                            x       y       z     vdW  Elec       q    Type
REMARK                         _______ _______ _______ _____ _____    ______ ____
ROOT
ATOM      1  C   UNL     1       2.217   2.876  -0.555  0.00  0.00    +0.017 A 
ATOM      2  C   UNL     1       3.524   2.869  -0.936  0.00  0.00    +0.027 A 
ATOM      3  C   UNL     1       4.147   1.654  -1.271  0.00  0.00    +0.048 A 
ATOM      4  C   UNL     1       3.396   0.455  -1.203  0.00  0.00    +0.022 A 
ATOM      5  C   UNL     1       2.051   0.498  -0.806  0.00  0.00    +0.027 A 
ATOM      6  C   UNL     1       1.481   1.695  -0.490  0.00  0.00    +0.019 A 
ATOM      7 BR   UNL     1      -0.332   1.753   0.045  0.00  0.00    -0.050 Br
ATOM      8  C   UNL     1       4.023  -0.766  -1.540  0.00  0.00    +0.059 A 
ATOM      9  C   UNL     1       5.359  -0.727  -1.923  0.00  0.00    +0.063 A 
ATOM     10  C   UNL     1       6.027   0.495  -1.964  0.00  0.00    +0.107 A 
ATOM     11  N   UNL     1       5.430   1.620  -1.648  0.00  0.00    -0.359 N 
ATOM     12  H   UNL     1       5.931   2.449  -1.690  0.00  0.00    +0.165 HD
ENDROOT
BRANCH   9  13
ATOM     13  N   UNL     1       6.029  -1.910  -2.267  0.00  0.00    -0.355 N 
ATOM     14  H   UNL     1       5.695  -2.765  -1.954  0.00  0.00    +0.142 HD
ATOM     15  H   UNL     1       6.827  -1.873  -2.817  0.00  0.00    +0.142 HD
ENDBRANCH   9  13
BRANCH   8  16
ATOM     16  N   UNL     1       3.325  -1.969  -1.488  0.00  0.00    -0.334 N 
ATOM     17  H   UNL     1       2.456  -2.045  -1.912  0.00  0.00    +0.147 HD
BRANCH  16  18
ATOM     18  C   UNL     1       3.904  -3.122  -0.792  0.00  0.00    +0.055 C 
ATOM     19  C   UNL     1       4.173  -4.242  -1.799  0.00  0.00    +0.028 C 
ATOM     20  C   UNL     1       2.859  -4.655  -2.465  0.00  0.00    +0.002 C 
ATOM     21  C   UNL     1       1.880  -5.152  -1.399  0.00  0.00    +0.000 C 
ATOM     22  C   UNL     1       1.611  -4.031  -0.392  0.00  0.00    +0.002 C 
ATOM     23  C   UNL     1       2.925  -3.618   0.274  0.00  0.00    +0.028 C 
BRANCH  18  24
ATOM     24  C   UNL     1       5.218  -2.709  -0.126  0.00  0.00    +0.181 C 
BRANCH  24  25
ATOM     25  O   UNL     1       5.255  -1.287   0.012  0.00  0.00    -0.393 OA
ATOM     26  H   UNL     1       5.879  -0.973   0.681  0.00  0.00    +0.209 HD
ENDBRANCH  24  25
ENDBRANCH  18  24
ENDBRANCH  16  18
ENDBRANCH   8  16
TORSDOF 5
