REMARK  Name = ZINC41000915
REMARK  15 active torsions:
REMARK  status: ('A' for Active; 'I' for Inactive)
REMARK    1  A    between atoms: C_1  and  C_2
REMARK    2  A    between atoms: C_2  and  C_3
REMARK    3  A    between atoms: C_3  and  C_4
REMARK    4  A    between atoms: C_4  and  S_5
REMARK    5  A    between atoms: S_5  and  C_6
REMARK    6  A    between atoms: C_11  and  C_20
REMARK    7  A    between atoms: C_13  and  C_17
REMARK    8  A    between atoms: C_14  and  C_16
REMARK    9  A    between atoms: C_17  and  C_19
REMARK   10  A    between atoms: C_23  and  O_28
REMARK   11  A    between atoms: C_24  and  O_26
REMARK   12  A    between atoms: O_26  and  C_27
REMARK   13  A    between atoms: O_28  and  C_29
REMARK   14  A    between atoms: C_29  and  C_30
REMARK   15  A    between atoms: C_33  and  C_36
REMARK                            x       y       z     vdW  Elec       q    Type
REMARK                         _______ _______ _______ _____ _____    ______ ____
ROOT
ATOM      1  C   UNL     1       1.661  -4.417  -2.890  0.00  0.00    +0.210 A 
ATOM      2  N   UNL     1       1.053  -4.991  -1.841  0.00  0.00    -0.187 NA
ATOM      3  C   UNL     1       1.139  -6.289  -1.944  0.00  0.00    +0.219 A 
ATOM      4  N   UNL     1       1.821  -6.577  -3.080  0.00  0.00    -0.220 N 
ATOM      5  N   UNL     1       2.139  -5.357  -3.675  0.00  0.00    -0.141 NA
ATOM      6  C   UNL     1       2.122  -7.937  -3.520  0.00  0.00    +0.176 C 
ATOM      7  C   UNL     1       1.318  -8.916  -2.705  0.00  0.00    +0.040 C 
ATOM      8  C   UNL     1       0.656  -8.568  -1.584  0.00  0.00    +0.016 C 
ATOM      9  N   UNL     1       0.657  -7.285  -1.106  0.00  0.00    -0.287 N 
ATOM     10  C   UNL     1      -0.110  -9.625  -0.833  0.00  0.00    +0.061 C 
ATOM     11  H   UNL     1       0.333  -7.080  -0.215  0.00  0.00    +0.155 HD
ENDROOT
BRANCH   6  12
ATOM     12  C   UNL     1       3.591  -8.213  -3.332  0.00  0.00    -0.015 A 
ATOM     13  C   UNL     1       4.150  -8.144  -2.069  0.00  0.00    +0.010 A 
ATOM     14  C   UNL     1       5.497  -8.397  -1.891  0.00  0.00    +0.050 A 
ATOM     15  C   UNL     1       6.291  -8.720  -2.980  0.00  0.00    +0.162 A 
ATOM     16  C   UNL     1       5.729  -8.791  -4.250  0.00  0.00    +0.162 A 
ATOM     17  C   UNL     1       4.377  -8.541  -4.421  0.00  0.00    +0.055 A 
BRANCH  16  18
ATOM     18  O   UNL     1       6.504  -9.108  -5.322  0.00  0.00    -0.491 OA
ATOM     19  C   UNL     1       5.859  -9.161  -6.596  0.00  0.00    +0.277 C 
ENDBRANCH  16  18
BRANCH  15  20
ATOM     20  O   UNL     1       7.617  -8.969  -2.806  0.00  0.00    -0.484 OA
BRANCH  20  21
ATOM     21  C   UNL     1       8.125  -8.878  -1.474  0.00  0.00    +0.264 C 
BRANCH  21  22
ATOM     22  C   UNL     1       9.601  -9.183  -1.478  0.00  0.00    -0.010 A 
ATOM     23  C   UNL     1      10.038 -10.484  -1.314  0.00  0.00    +0.007 A 
ATOM     24  C   UNL     1      11.392 -10.764  -1.318  0.00  0.00    +0.004 A 
ATOM     25  C   UNL     1      12.309  -9.743  -1.485  0.00  0.00    -0.050 A 
ATOM     26  C   UNL     1      11.871  -8.442  -1.649  0.00  0.00    +0.004 A 
ATOM     27  C   UNL     1      10.518  -8.163  -1.650  0.00  0.00    +0.007 A 
ATOM     28  C   UNL     1      13.784 -10.048  -1.487  0.00  0.00    +0.044 C 
ENDBRANCH  21  22
ENDBRANCH  20  21
ENDBRANCH  15  20
ENDBRANCH   6  12
BRANCH   7  29
ATOM     29  C   UNL     1       1.256 -10.250  -3.132  0.00  0.00    +0.160 C 
ATOM     30  O   UNL     1       1.766 -11.127  -2.463  0.00  0.00    -0.293 OA
ATOM     31  C   UNL     1       0.556 -10.597  -4.422  0.00  0.00    +0.091 C 
ENDBRANCH   7  29
BRANCH   1  32
ATOM     32  S   UNL     1       1.791  -2.683  -3.174  0.00  0.00    -0.084 S 
BRANCH  32  33
ATOM     33  C   UNL     1       0.944  -1.940  -1.751  0.00  0.00    +0.077 C 
BRANCH  33  34
ATOM     34  C   UNL     1       0.984  -0.416  -1.873  0.00  0.00    +0.011 C 
BRANCH  34  36
ATOM     35  C   UNL     1       0.309   1.735  -0.795  0.00  0.00    +0.004 C 
ATOM     36  C   UNL     1       0.270   0.210  -0.673  0.00  0.00    -0.003 C 
ENDBRANCH  34  36
ENDBRANCH  33  34
ENDBRANCH  32  33
ENDBRANCH   1  32
TORSDOF 10
