REMARK  Name = ZINC11764974
REMARK  4 active torsions:
REMARK  status: ('A' for Active; 'I' for Inactive)
REMARK    1  A    between atoms: C_9  and  S_16
REMARK    2  A    between atoms: C_10  and  N_15
REMARK    3  A    between atoms: N_11  and  N_14
REMARK    4  A    between atoms: S_16  and  C_19
REMARK                            x       y       z     vdW  Elec       q    Type
REMARK                         _______ _______ _______ _____ _____    ______ ____
ROOT
ATOM      1  C   UNL     1       1.481   2.877  -6.755  0.00  0.00    +0.002 A 
ATOM      2  C   UNL     1       2.559   2.415  -6.002  0.00  0.00    +0.002 A 
ATOM      3  C   UNL     1       2.394   2.032  -4.707  0.00  0.00    +0.030 A 
ATOM      4  C   UNL     1       1.121   2.100  -4.113  0.00  0.00    +0.092 A 
ATOM      5  C   UNL     1       0.024   2.570  -4.878  0.00  0.00    +0.090 A 
ATOM      6  C   UNL     1       0.235   2.958  -6.216  0.00  0.00    +0.030 A 
ATOM      7  N   UNL     1      -1.197   2.646  -4.339  0.00  0.00    -0.240 NA
ATOM      8  C   UNL     1      -1.379   2.278  -3.081  0.00  0.00    +0.137 A 
ATOM      9  C   UNL     1      -2.500   2.228  -2.218  0.00  0.00    +0.162 A 
ATOM     10  C   UNL     1      -2.087   1.757  -1.018  0.00  0.00    +0.143 A 
ATOM     11  N   UNL     1      -0.741   1.490  -1.041  0.00  0.00    -0.233 N 
ATOM     12  C   UNL     1      -0.241   1.796  -2.289  0.00  0.00    +0.180 A 
ATOM     13  N   UNL     1       0.951   1.724  -2.839  0.00  0.00    -0.225 NA
ENDROOT
BRANCH  11  14
ATOM     14  N   UNL     1      -0.012   1.005   0.008  0.00  0.00    -0.295 N 
ATOM     15  H   UNL     1       0.002  -0.004   0.002  0.00  0.00    +0.163 HD
ATOM     16  H   UNL     1       0.925   1.379   0.001  0.00  0.00    +0.163 HD
ENDBRANCH  11  14
BRANCH  10  17
ATOM     17  N   UNL     1      -2.907   1.571   0.079  0.00  0.00    -0.342 N 
ATOM     18  H   UNL     1      -2.538   1.229   0.908  0.00  0.00    +0.144 HD
ATOM     19  H   UNL     1      -3.852   1.783   0.020  0.00  0.00    +0.144 HD
ENDBRANCH  10  17
BRANCH   9  20
ATOM     20  S   UNL     1      -4.147   2.696  -2.634  0.00  0.00    +0.030 S 
ATOM     21  O   UNL     1      -4.257   2.584  -4.046  0.00  0.00    -0.164 OA
ATOM     22  O   UNL     1      -5.006   1.995  -1.745  0.00  0.00    -0.164 OA
BRANCH  20  23
ATOM     23  C   UNL     1      -4.315   4.408  -2.251  0.00  0.00    +0.094 A 
ATOM     24  C   UNL     1      -4.746   4.796  -0.996  0.00  0.00    +0.029 A 
ATOM     25  C   UNL     1      -4.872   6.139  -0.692  0.00  0.00    +0.022 A 
ATOM     26  C   UNL     1      -4.577   7.094  -1.649  0.00  0.00    +0.041 A 
ATOM     27  C   UNL     1      -4.152   6.705  -2.906  0.00  0.00    +0.022 A 
ATOM     28  C   UNL     1      -4.020   5.362  -3.207  0.00  0.00    +0.029 A 
ATOM     29 CL   UNL     1      -4.742   8.780  -1.271  0.00  0.00    -0.084 Cl
ENDBRANCH  20  23
ENDBRANCH   9  20
TORSDOF 4
