REMARK  Name = ZINC44884067
REMARK  11 active torsions:
REMARK  status: ('A' for Active; 'I' for Inactive)
REMARK    1  A    between atoms: C_1  and  C_2
REMARK    2  A    between atoms: C_5  and  N_9
REMARK    3  A    between atoms: C_7  and  C_8
REMARK    4  A    between atoms: N_9  and  C_10
REMARK    5  A    between atoms: N_9  and  S_27
REMARK    6  A    between atoms: C_10  and  C_11
REMARK    7  A    between atoms: N_13  and  C_14
REMARK    8  A    between atoms: C_14  and  C_15
REMARK    9  A    between atoms: C_20  and  N_21
REMARK   10  A    between atoms: C_25  and  C_26
REMARK   11  A    between atoms: S_27  and  C_30
REMARK                            x       y       z     vdW  Elec       q    Type
REMARK                         _______ _______ _______ _____ _____    ______ ____
ROOT
ATOM      1  N   UNL     1       0.096  -4.449   0.107  0.00  0.00    -0.194 N 
ENDROOT
BRANCH   1   6
ATOM      2  C   UNL     1       0.997   1.105   0.813  0.00  0.00    +0.044 C 
ATOM      3  C   UNL     1       0.757  -0.371   0.626  0.00  0.00    -0.047 A 
ATOM      4  C   UNL     1       0.651  -0.896  -0.650  0.00  0.00    +0.005 A 
ATOM      5  C   UNL     1       0.432  -2.248  -0.825  0.00  0.00    +0.025 A 
ATOM      6  C   UNL     1       0.318  -3.081   0.281  0.00  0.00    +0.052 A 
ATOM      7  C   UNL     1       0.425  -2.550   1.560  0.00  0.00    +0.028 A 
ATOM      8  C   UNL     1       0.650  -1.198   1.728  0.00  0.00    -0.046 A 
ATOM      9  C   UNL     1       0.772  -0.622   3.116  0.00  0.00    +0.044 C 
ENDBRANCH   1   6
BRANCH   1  10
ATOM     10  S   UNL     1      -0.654  -4.998  -1.264  0.00  0.00    +0.075 S 
ATOM     11  O   UNL     1      -1.263  -6.236  -0.925  0.00  0.00    -0.150 OA
ATOM     12  O   UNL     1      -1.393  -3.904  -1.789  0.00  0.00    -0.150 OA
BRANCH  10  13
ATOM     13  C   UNL     1       0.608  -5.362  -2.438  0.00  0.00    +0.109 A 
ATOM     14  C   UNL     1       0.954  -4.426  -3.394  0.00  0.00    +0.030 A 
ATOM     15  C   UNL     1       1.944  -4.711  -4.315  0.00  0.00    +0.022 A 
ATOM     16  C   UNL     1       2.590  -5.934  -4.280  0.00  0.00    +0.041 A 
ATOM     17  C   UNL     1       2.243  -6.871  -3.323  0.00  0.00    +0.022 A 
ATOM     18  C   UNL     1       1.257  -6.583  -2.399  0.00  0.00    +0.030 A 
ATOM     19 CL   UNL     1       3.833  -6.293  -5.437  0.00  0.00    -0.084 Cl
ENDBRANCH  10  13
ENDBRANCH   1  10
BRANCH   1  20
ATOM     20  C   UNL     1       0.526  -5.398   1.137  0.00  0.00    +0.227 C 
BRANCH  20  21
ATOM     21  C   UNL     1      -0.540  -5.506   2.196  0.00  0.00    +0.232 C 
ATOM     22  O   UNL     1      -1.559  -4.855   2.101  0.00  0.00    -0.274 OA
ATOM     23  N   UNL     1      -0.362  -6.327   3.250  0.00  0.00    -0.310 N 
ATOM     24  H   UNL     1       0.453  -6.848   3.327  0.00  0.00    +0.149 HD
BRANCH  23  25
ATOM     25  C   UNL     1      -1.398  -6.432   4.280  0.00  0.00    +0.141 C 
BRANCH  25  26
ATOM     26  C   UNL     1      -0.956  -7.409   5.340  0.00  0.00    -0.006 A 
ATOM     27  C   UNL     1      -1.431  -8.705   5.327  0.00  0.00    +0.007 A 
ATOM     28  C   UNL     1      -1.026  -9.601   6.299  0.00  0.00    +0.000 A 
ATOM     29  C   UNL     1      -0.144  -9.202   7.287  0.00  0.00    +0.002 A 
ATOM     30  C   UNL     1       0.335  -7.907   7.304  0.00  0.00    +0.026 A 
ATOM     31  C   UNL     1      -0.066  -7.007   6.326  0.00  0.00    +0.052 A 
BRANCH  31  32
ATOM     32  N   UNL     1       0.423  -5.693   6.338  0.00  0.00    -0.305 N 
ATOM     33  C   UNL     1       1.724  -5.305   6.142  0.00  0.00    +0.110 A 
ATOM     34  C   UNL     1       1.749  -3.962   6.237  0.00  0.00    +0.102 A 
ATOM     35  N   UNL     1       0.501  -3.536   6.484  0.00  0.00    -0.350 N 
ATOM     36  C   UNL     1      -0.303  -4.563   6.541  0.00  0.00    +0.088 A 
ATOM     37  C   UNL     1      -1.787  -4.504   6.793  0.00  0.00    +0.084 C 
ATOM     38  H   UNL     1       0.237  -2.610   6.598  0.00  0.00    +0.166 HD
ENDBRANCH  31  32
ENDBRANCH  25  26
ENDBRANCH  23  25
ENDBRANCH  20  21
ENDBRANCH   1  20
TORSDOF 8
