REMARK  Name = ZINC36603167
REMARK  17 active torsions:
REMARK  status: ('A' for Active; 'I' for Inactive)
REMARK    1  A    between atoms: C_1  and  C_2
REMARK    2  A    between atoms: C_5  and  C_8
REMARK    3  A    between atoms: C_8  and  C_10
REMARK    4  A    between atoms: C_8  and  N_21
REMARK    5  A    between atoms: N_12  and  C_13
REMARK    6  A    between atoms: C_13  and  C_14
REMARK    7  A    between atoms: C_13  and  C_15
REMARK    8  A    between atoms: C_13  and  C_16
REMARK    9  A    between atoms: C_16  and  C_17
REMARK   10  A    between atoms: C_17  and  C_18
REMARK   11  A    between atoms: C_17  and  C_19
REMARK   12  A    between atoms: C_17  and  C_20
REMARK   13  A    between atoms: N_21  and  C_22
REMARK   14  A    between atoms: C_22  and  C_23
REMARK   15  A    between atoms: C_26  and  C_28
REMARK   16  A    between atoms: C_29  and  C_31
REMARK   17  A    between atoms: C_34  and  N_37
REMARK                            x       y       z     vdW  Elec       q    Type
REMARK                         _______ _______ _______ _____ _____    ______ ____
ROOT
ATOM      1  C   UNL     1       1.440  -5.002  -0.406  0.00  0.00    +0.193 C 
ENDROOT
BRANCH   1   6
ATOM      2  C   UNL     1      -0.363   0.270  -1.939  0.00  0.00    +0.044 C 
ATOM      3  C   UNL     1       0.107  -1.105  -1.539  0.00  0.00    -0.050 A 
ATOM      4  C   UNL     1       0.688  -1.937  -2.478  0.00  0.00    +0.004 A 
ATOM      5  C   UNL     1       1.119  -3.198  -2.111  0.00  0.00    +0.006 A 
ATOM      6  C   UNL     1       0.970  -3.627  -0.806  0.00  0.00    -0.018 A 
ATOM      7  C   UNL     1       0.390  -2.794   0.133  0.00  0.00    +0.006 A 
ATOM      8  C   UNL     1      -0.037  -1.532  -0.233  0.00  0.00    +0.004 A 
ENDBRANCH   1   6
BRANCH   1   9
ATOM      9  C   UNL     1       2.878  -4.932   0.039  0.00  0.00    +0.239 C 
ATOM     10  O   UNL     1       3.197  -5.360   1.128  0.00  0.00    -0.273 OA
ATOM     11  N   UNL     1       3.809  -4.395  -0.773  0.00  0.00    -0.308 N 
ATOM     12  H   UNL     1       3.568  -4.116  -1.670  0.00  0.00    +0.149 HD
BRANCH  11  13
ATOM     13  C   UNL     1       5.186  -4.230  -0.300  0.00  0.00    +0.030 C 
ATOM     14  C   UNL     1       5.254  -3.053   0.674  0.00  0.00    +0.031 C 
ATOM     15  C   UNL     1       5.637  -5.508   0.411  0.00  0.00    +0.031 C 
BRANCH  13  16
ATOM     16  C   UNL     1       6.106  -3.959  -1.493  0.00  0.00    +0.031 C 
BRANCH  16  17
ATOM     17  C   UNL     1       5.550  -4.659  -2.735  0.00  0.00    -0.036 C 
ATOM     18  C   UNL     1       4.494  -3.769  -3.393  0.00  0.00    +0.010 C 
ATOM     19  C   UNL     1       6.687  -4.919  -3.725  0.00  0.00    +0.010 C 
ATOM     20  C   UNL     1       4.914  -5.990  -2.328  0.00  0.00    +0.010 C 
ENDBRANCH  16  17
ENDBRANCH  13  16
ENDBRANCH  11  13
ENDBRANCH   1   9
BRANCH   1  21
ATOM     21  N   UNL     1       0.611  -5.500   0.695  0.00  0.00    -0.275 N 
ATOM     22  C   UNL     1      -0.646  -5.921   0.454  0.00  0.00    +0.248 C 
ATOM     23  O   UNL     1      -1.384  -6.191   1.382  0.00  0.00    -0.270 OA
BRANCH  22  24
ATOM     24  C   UNL     1      -1.128  -6.055  -0.937  0.00  0.00    +0.037 A 
ATOM     25  C   UNL     1      -0.417  -5.467  -1.984  0.00  0.00    +0.015 A 
ATOM     26  C   UNL     1      -0.872  -5.596  -3.280  0.00  0.00    +0.033 A 
ATOM     27  C   UNL     1      -2.030  -6.305  -3.543  0.00  0.00    +0.126 A 
ATOM     28  C   UNL     1      -2.740  -6.889  -2.509  0.00  0.00    +0.033 A 
ATOM     29  C   UNL     1      -2.293  -6.774  -1.209  0.00  0.00    +0.015 A 
BRANCH  27  30
ATOM     30  N   UNL     1      -2.513  -6.439  -4.936  0.00  0.00    +0.056 N 
ATOM     31  O   UNL     1      -1.895  -5.929  -5.841  0.00  0.00    -0.126 OA
ATOM     32  O   UNL     1      -3.525  -7.058  -5.168  0.00  0.00    -0.126 OA
ENDBRANCH  27  30
ENDBRANCH  22  24
BRANCH  21  33
ATOM     33  C   UNL     1       1.149  -5.540   2.057  0.00  0.00    +0.183 C 
BRANCH  33  34
ATOM     34  C   UNL     1       1.593  -6.943   2.380  0.00  0.00    +0.122 A 
ATOM     35  C   UNL     1       2.790  -7.479   2.081  0.00  0.00    +0.046 A 
ATOM     36  C   UNL     1       2.777  -8.807   2.565  0.00  0.00    +0.045 A 
ATOM     37  C   UNL     1       1.573  -9.004   3.131  0.00  0.00    +0.102 A 
ATOM     38  O   UNL     1       0.862  -7.870   3.022  0.00  0.00    -0.463 OA
ATOM     39  C   UNL     1       1.103 -10.279   3.784  0.00  0.00    +0.086 C 
ENDBRANCH  33  34
ENDBRANCH  21  33
ENDBRANCH   1  21
TORSDOF 10
