REMARK  Name = ZINC09731766
REMARK  12 active torsions:
REMARK  status: ('A' for Active; 'I' for Inactive)
REMARK    1  A    between atoms: C_1  and  C_2
REMARK    2  A    between atoms: C_2  and  C_3
REMARK    3  A    between atoms: C_6  and  C_9
REMARK    4  A    between atoms: C_11  and  C_15
REMARK    5  A    between atoms: C_12  and  C_14
REMARK    6  A    between atoms: C_15  and  N_75
REMARK    7  A    between atoms: C_18  and  C_21
REMARK    8  A    between atoms: N_23  and  C_24
REMARK    9  A    between atoms: C_24  and  C_25
REMARK   10  A    between atoms: C_25  and  C_26
REMARK   11  A    between atoms: C_26  and  S_27
REMARK   12  A    between atoms: S_27  and  C_28
REMARK                            x       y       z     vdW  Elec       q    Type
REMARK                         _______ _______ _______ _____ _____    ______ ____
ROOT
ATOM      1  C   UNL     1      -2.068   1.255   2.088  0.00  0.00    -0.078 C 
ATOM      2  C   UNL     1      -2.329   1.553   3.567  0.00  0.00    -0.006 C 
ATOM      3  C   UNL     1      -3.413   2.628   3.682  0.00  0.00    +0.071 C 
ATOM      4  C   UNL     1      -2.962   3.880   2.925  0.00  0.00    -0.006 C 
ATOM      5  C   UNL     1      -2.683   3.515   1.466  0.00  0.00    -0.078 C 
ATOM      6  N   UNL     1      -1.614   2.494   1.422  0.00  0.00    +0.383 N 
ATOM      7  H   UNL     1      -0.789   2.855   1.916  0.00  0.00    -0.081 HD
ENDROOT
BRANCH   3   8
ATOM      8  C   UNL     1      -3.632   2.968   5.134  0.00  0.00    +0.216 C 
ATOM      9  O   UNL     1      -3.446   4.101   5.526  0.00  0.00    -0.276 OA
ATOM     10  N   UNL     1      -4.035   2.014   5.996  0.00  0.00    -0.315 N 
ATOM     11  H   UNL     1      -4.184   1.109   5.683  0.00  0.00    +0.149 HD
BRANCH  10  12
ATOM     12  C   UNL     1      -4.248   2.345   7.407  0.00  0.00    +0.105 C 
BRANCH  12  13
ATOM     13  C   UNL     1      -4.699   1.093   8.162  0.00  0.00    +0.029 C 
BRANCH  13  14
ATOM     14  C   UNL     1      -4.921   1.439   9.636  0.00  0.00    +0.071 C 
BRANCH  14  15
ATOM     15  S   UNL     1      -5.456  -0.045  10.531  0.00  0.00    -0.157 S 
BRANCH  15  16
ATOM     16  C   UNL     1      -5.673   0.526  12.239  0.00  0.00    +0.046 C 
ATOM     17  C   UNL     1      -4.320   0.955  12.809  0.00  0.00    +0.014 C 
ATOM     18  C   UNL     1      -4.503   1.438  14.250  0.00  0.00    +0.001 C 
ATOM     19  C   UNL     1      -5.078   0.302  15.099  0.00  0.00    +0.000 C 
ATOM     20  C   UNL     1      -6.431  -0.127  14.528  0.00  0.00    +0.001 C 
ATOM     21  C   UNL     1      -6.248  -0.609  13.088  0.00  0.00    +0.014 C 
ENDBRANCH  15  16
ENDBRANCH  14  15
ENDBRANCH  13  14
ENDBRANCH  12  13
ENDBRANCH  10  12
ENDBRANCH   3   8
BRANCH   6  22
ATOM     22  C   UNL     1      -1.246   2.208   0.020  0.00  0.00    -0.019 C 
BRANCH  22  25
ATOM     23  C   UNL     1       1.251  -0.407  -0.012  0.00  0.00    +0.228 A 
ATOM     24  N   UNL     1       0.002  -0.004   0.002  0.00  0.00    -0.216 NA
ATOM     25  C   UNL     1      -0.016   1.337   0.009  0.00  0.00    +0.066 A 
ATOM     26  C   UNL     1       1.259   1.767  -0.001  0.00  0.00    +0.124 A 
ATOM     27  O   UNL     1       2.049   0.675  -0.014  0.00  0.00    -0.440 OA
ATOM     28  C   UNL     1       1.718   3.202   0.003  0.00  0.00    +0.088 C 
BRANCH  23  32
ATOM     29  C   UNL     1       2.553  -4.449  -0.043  0.00  0.00    -0.048 A 
ATOM     30  C   UNL     1       3.484  -3.426  -0.048  0.00  0.00    +0.004 A 
ATOM     31  C   UNL     1       3.068  -2.111  -0.038  0.00  0.00    +0.013 A 
ATOM     32  C   UNL     1       1.704  -1.814  -0.023  0.00  0.00    +0.037 A 
ATOM     33  C   UNL     1       0.770  -2.851  -0.013  0.00  0.00    +0.013 A 
ATOM     34  C   UNL     1       1.200  -4.162  -0.029  0.00  0.00    +0.004 A 
BRANCH  29  36
ATOM     35  C   UNL     1       3.186  -6.375   1.385  0.00  0.00    +0.009 C 
ATOM     36  C   UNL     1       3.015  -5.884  -0.054  0.00  0.00    +0.032 C 
ENDBRANCH  29  36
ENDBRANCH  23  32
ENDBRANCH  22  25
ENDBRANCH   6  22
TORSDOF 10
