REMARK  Name = ZINC15952568
REMARK  4 active torsions:
REMARK  status: ('A' for Active; 'I' for Inactive)
REMARK    1  A    between atoms: C_4  and  N_7
REMARK    2  A    between atoms: C_8  and  N_22
REMARK    3  A    between atoms: C_9  and  N_13
REMARK    4  A    between atoms: N_14  and  C_15
REMARK                            x       y       z     vdW  Elec       q    Type
REMARK                         _______ _______ _______ _____ _____    ______ ____
ROOT
ATOM      1  N   UNL     1       3.623  -0.651  -0.036  0.00  0.00    -0.215 N 
ATOM      2  C   UNL     1       3.869  -1.831   0.586  0.00  0.00    +0.149 A 
ATOM      3  C   UNL     1       5.198  -2.168   0.326  0.00  0.00    +0.166 A 
ATOM      4  C   UNL     1       5.738  -1.092  -0.508  0.00  0.00    +0.168 A 
ATOM      5  N   UNL     1       4.776  -0.225  -0.700  0.00  0.00    -0.148 NA
ATOM      6  N   UNL     1       7.037  -1.008  -1.010  0.00  0.00    -0.340 N 
ATOM      7  H   UNL     1       7.679  -1.708  -0.813  0.00  0.00    +0.144 HD
ATOM      8  H   UNL     1       7.299  -0.250  -1.556  0.00  0.00    +0.144 HD
ENDROOT
BRANCH   1  12
ATOM      9  C   UNL     1      -0.017   1.379   0.010  0.00  0.00    +0.000 A 
ATOM     10  C   UNL     1       1.170   2.089   0.002  0.00  0.00    +0.002 A 
ATOM     11  C   UNL     1       2.377   1.420  -0.013  0.00  0.00    +0.028 A 
ATOM     12  C   UNL     1       2.400   0.031  -0.021  0.00  0.00    +0.068 A 
ATOM     13  C   UNL     1       1.206  -0.680  -0.013  0.00  0.00    +0.028 A 
ATOM     14  C   UNL     1       0.002  -0.004   0.002  0.00  0.00    +0.002 A 
ENDBRANCH   1  12
BRANCH   2  15
ATOM     15  N   UNL     1       2.971  -2.563   1.338  0.00  0.00    -0.341 N 
ATOM     16  H   UNL     1       2.064  -2.241   1.460  0.00  0.00    +0.144 HD
ATOM     17  H   UNL     1       3.247  -3.400   1.744  0.00  0.00    +0.144 HD
ENDBRANCH   2  15
BRANCH   3  18
ATOM     18  N   UNL     1       5.858  -3.272   0.759  0.00  0.00    -0.142 NA
ATOM     19  N   UNL     1       7.094  -3.453   0.437  0.00  0.00    -0.149 NA
BRANCH  19  20
ATOM     20  C   UNL     1       7.759  -4.566   0.874  0.00  0.00    +0.089 A 
ATOM     21  C   UNL     1       7.101  -5.512   1.664  0.00  0.00    +0.030 A 
ATOM     22  C   UNL     1       7.777  -6.631   2.102  0.00  0.00    +0.005 A 
ATOM     23  C   UNL     1       9.104  -6.821   1.760  0.00  0.00    +0.038 A 
ATOM     24  C   UNL     1       9.764  -5.887   0.977  0.00  0.00    +0.125 A 
ATOM     25  C   UNL     1       9.097  -4.764   0.527  0.00  0.00    +0.068 A 
ATOM     26  F   UNL     1      11.061  -6.079   0.649  0.00  0.00    -0.205 F 
ENDBRANCH  19  20
ENDBRANCH   3  18
TORSDOF 4
