REMARK  Name = ZINC12155238
REMARK  12 active torsions:
REMARK  status: ('A' for Active; 'I' for Inactive)
REMARK    1  A    between atoms: C_1  and  C_2
REMARK    2  A    between atoms: C_2  and  C_37
REMARK    3  A    between atoms: C_4  and  N_9
REMARK    4  A    between atoms: C_10  and  C_12
REMARK    5  A    between atoms: C_12  and  O_13
REMARK    6  A    between atoms: O_13  and  C_14
REMARK    7  A    between atoms: C_17  and  C_28
REMARK    8  A    between atoms: C_19  and  C_20
REMARK    9  A    between atoms: C_20  and  N_70
REMARK   10  A    between atoms: C_21  and  N_70
REMARK   11  A    between atoms: C_22  and  C_23
REMARK   12  A    between atoms: C_22  and  N_70
REMARK                            x       y       z     vdW  Elec       q    Type
REMARK                         _______ _______ _______ _____ _____    ______ ____
ROOT
ATOM      1  C   UNL     1       3.627   1.603  -0.024  0.00  0.00    +0.123 A 
ATOM      2  C   UNL     1       3.789   2.982  -0.024  0.00  0.00    +0.046 A 
ATOM      3  C   UNL     1       5.055   3.529  -0.028  0.00  0.00    +0.012 A 
ATOM      4  C   UNL     1       6.173   2.696  -0.043  0.00  0.00    -0.017 A 
ATOM      5  C   UNL     1       6.007   1.312  -0.049  0.00  0.00    +0.013 A 
ATOM      6  C   UNL     1       4.739   0.771  -0.039  0.00  0.00    -0.022 A 
ENDROOT
BRANCH   4   7
ATOM      7  C   UNL     1       7.535   3.282  -0.053  0.00  0.00    -0.014 A 
ATOM      8  C   UNL     1       8.653   2.449  -0.068  0.00  0.00    +0.012 A 
ATOM      9  C   UNL     1       9.920   2.995  -0.077  0.00  0.00    +0.050 A 
ATOM     10  C   UNL     1      10.087   4.371  -0.072  0.00  0.00    +0.166 A 
ATOM     11  C   UNL     1       8.973   5.209  -0.057  0.00  0.00    +0.167 A 
ATOM     12  C   UNL     1       7.701   4.665  -0.054  0.00  0.00    +0.058 A 
ATOM     13  O   UNL     1       9.402   6.505  -0.054  0.00  0.00    -0.453 OA
ATOM     14  C   UNL     1      10.784   6.452   0.345  0.00  0.00    +0.466 C 
ATOM     15  O   UNL     1      11.213   5.144  -0.078  0.00  0.00    -0.453 OA
ENDBRANCH   4   7
BRANCH   1  16
ATOM     16  O   UNL     1       2.379   1.066  -0.015  0.00  0.00    -0.483 OA
BRANCH  16  17
ATOM     17  C   UNL     1       1.280   1.980   0.001  0.00  0.00    +0.324 C 
BRANCH  17  19
ATOM     18  N   UNL     1      -1.191   1.867   0.018  0.00  0.00    -0.309 N 
ATOM     19  C   UNL     1      -0.014   1.209   0.009  0.00  0.00    +0.251 C 
ATOM     20  O   UNL     1       0.002  -0.004   0.002  0.00  0.00    -0.272 OA
ATOM     21  H   UNL     1      -1.204   2.837   0.023  0.00  0.00    +0.149 HD
BRANCH  18  25
ATOM     22  C   UNL     1      -4.798  -0.049  -1.336  0.00  0.00    +0.041 C 
ATOM     23  C   UNL     1      -4.890   1.224  -0.492  0.00  0.00    +0.066 C 
ATOM     24  C   UNL     1      -3.564   1.986  -0.570  0.00  0.00    +0.056 C 
ATOM     25  C   UNL     1      -2.449   1.117   0.020  0.00  0.00    +0.078 C 
ATOM     26  C   UNL     1      -2.818   0.739   1.458  0.00  0.00    +0.050 C 
ATOM     27  C   UNL     1      -4.173   0.025   1.458  0.00  0.00    +0.162 C 
ATOM     28  O   UNL     1      -5.158   0.876   0.868  0.00  0.00    -0.374 OA
ATOM     29  C   UNL     1      -6.019   2.109  -1.024  0.00  0.00    +0.041 C 
ENDBRANCH  18  25
ENDBRANCH  17  19
ENDBRANCH  16  17
ENDBRANCH   1  16
BRANCH   6  30
ATOM     30  C   UNL     1       4.559  -0.726  -0.044  0.00  0.00    -0.039 C 
BRANCH  30  32
ATOM     31  C   UNL     1       2.942  -0.666  -1.846  0.00  0.00    -0.095 C 
ATOM     32  N   UNL     1       4.268  -1.166  -1.425  0.00  0.00    +0.384 N 
ATOM     33  H   UNL     1       4.984  -0.784  -2.054  0.00  0.00    -0.081 HD
BRANCH  32  34
ATOM     34  C   UNL     1       4.299  -2.642  -1.502  0.00  0.00    -0.022 C 
BRANCH  34  35
ATOM     35  C   UNL     1       4.220  -3.055  -2.949  0.00  0.00    +0.032 A 
ATOM     36  C   UNL     1       5.348  -3.293  -3.666  0.00  0.00    +0.068 A 
ATOM     37  S   UNL     1       4.643  -3.730  -5.249  0.00  0.00    -0.084 S 
ATOM     38  C   UNL     1       2.973  -3.548  -4.809  0.00  0.00    +0.156 A 
ATOM     39  N   UNL     1       3.056  -3.189  -3.549  0.00  0.00    -0.254 NA
ENDBRANCH  34  35
ENDBRANCH  32  34
ENDBRANCH  30  32
ENDBRANCH   6  30
TORSDOF 9
