REMARK  Name = ZINC21740189
REMARK  6 active torsions:
REMARK  status: ('A' for Active; 'I' for Inactive)
REMARK    1  A    between atoms: C_1  and  C_2
REMARK    2  A    between atoms: C_5  and  C_28
REMARK    3  A    between atoms: C_10  and  C_12
REMARK    4  A    between atoms: C_12  and  C_14
REMARK    5  A    between atoms: C_12  and  S_15
REMARK    6  A    between atoms: S_15  and  C_16
REMARK                            x       y       z     vdW  Elec       q    Type
REMARK                         _______ _______ _______ _____ _____    ______ ____
ROOT
ATOM      1  S   UNL     1      -1.461   2.311   0.022  0.00  0.00    -0.073 S 
ENDROOT
BRANCH   1   2
ATOM      2  C   UNL     1      -0.016   1.304   0.009  0.00  0.00    +0.198 A 
ATOM      3  N   UNL     1       0.002  -0.004   0.002  0.00  0.00    -0.121 NA
ATOM      4  N   UNL     1       1.341  -0.419  -0.013  0.00  0.00    -0.121 NA
ATOM      5  C   UNL     1       2.082   0.648  -0.014  0.00  0.00    +0.202 A 
ATOM      6  N   UNL     1       1.291   1.766  -0.001  0.00  0.00    -0.264 N 
ATOM      7  C   UNL     1       1.921   3.020   0.000  0.00  0.00    +0.065 A 
ATOM      8  C   UNL     1       1.288   4.273   0.013  0.00  0.00    +0.027 A 
ATOM      9  C   UNL     1       2.024   5.434   0.014  0.00  0.00    +0.002 A 
ATOM     10  C   UNL     1       3.409   5.406   0.001  0.00  0.00    +0.001 A 
ATOM     11  C   UNL     1       4.058   4.184  -0.013  0.00  0.00    +0.017 A 
ATOM     12  C   UNL     1       3.319   3.024  -0.013  0.00  0.00    +0.040 A 
ATOM     13  S   UNL     1       3.736   1.297  -0.026  0.00  0.00    -0.048 S 
ENDBRANCH   1   2
BRANCH   1  14
ATOM     14  C   UNL     1      -2.828   1.117   0.023  0.00  0.00    +0.137 C 
ATOM     15  C   UNL     1      -2.817   0.329  -1.289  0.00  0.00    +0.029 C 
BRANCH  14  23
ATOM     16  C   UNL     1      -8.949   1.750   0.375  0.00  0.00    +0.009 C 
ATOM     17  C   UNL     1      -7.585   1.102   0.127  0.00  0.00    +0.004 C 
ATOM     18  C   UNL     1      -7.582  -0.317   0.701  0.00  0.00    +0.009 C 
ATOM     19  C   UNL     1      -6.229  -0.978   0.424  0.00  0.00    +0.004 C 
ATOM     20  C   UNL     1      -5.124  -0.176   1.108  0.00  0.00    +0.111 C 
ATOM     21  N   UNL     1      -5.211   1.226   0.675  0.00  0.00    -0.300 N 
ATOM     22  C   UNL     1      -6.494   1.929   0.813  0.00  0.00    +0.111 C 
ATOM     23  C   UNL     1      -4.136   1.852   0.157  0.00  0.00    +0.229 C 
ATOM     24  O   UNL     1      -4.223   3.008  -0.201  0.00  0.00    -0.274 OA
ATOM     25  C   UNL     1      -6.239  -2.407   0.969  0.00  0.00    +0.009 C 
ENDBRANCH  14  23
ENDBRANCH   1  14
TORSDOF 3
