REMARK  Name = ZINC24838249
REMARK  10 active torsions:
REMARK  status: ('A' for Active; 'I' for Inactive)
REMARK    1  A    between atoms: C_1  and  C_2
REMARK    2  A    between atoms: C_2  and  C_3
REMARK    3  A    between atoms: C_2  and  C_4
REMARK    4  A    between atoms: C_2  and  C_5
REMARK    5  A    between atoms: C_8  and  O_26
REMARK    6  A    between atoms: C_9  and  N_11
REMARK    7  A    between atoms: C_12  and  C_14
REMARK    8  A    between atoms: C_16  and  S_21
REMARK    9  A    between atoms: S_21  and  N_24
REMARK   10  A    between atoms: N_24  and  C_25
REMARK                            x       y       z     vdW  Elec       q    Type
REMARK                         _______ _______ _______ _____ _____    ______ ____
ROOT
ATOM      1  N   UNL     1      -3.330   0.869  -4.910  0.00  0.00    -0.279 N 
ATOM      2  C   UNL     1      -3.400   2.205  -4.748  0.00  0.00    +0.249 C 
ATOM      3  O   UNL     1      -3.979   2.887  -5.572  0.00  0.00    -0.270 OA
ATOM      4  H   UNL     1      -2.745   0.260  -4.205  0.00  0.00    +0.155 HD
ENDROOT
BRANCH   2   5
ATOM      5  C   UNL     1      -2.774   2.841  -3.571  0.00  0.00    +0.053 A 
ATOM      6  C   UNL     1      -2.109   2.061  -2.623  0.00  0.00    +0.042 A 
ATOM      7  C   UNL     1      -1.527   2.661  -1.526  0.00  0.00    +0.106 A 
ATOM      8  C   UNL     1      -1.605   4.033  -1.360  0.00  0.00    +0.029 A 
ATOM      9  C   UNL     1      -2.258   4.813  -2.297  0.00  0.00    +0.018 A 
ATOM     10  C   UNL     1      -2.845   4.226  -3.401  0.00  0.00    +0.030 A 
ATOM     11 BR   UNL     1      -3.743   5.293  -4.678  0.00  0.00    -0.050 Br
BRANCH   7  12
ATOM     12  S   UNL     1      -0.688   1.677  -0.329  0.00  0.00    +0.058 S 
ATOM     13  O   UNL     1      -1.229   0.367  -0.428  0.00  0.00    -0.153 OA
ATOM     14  O   UNL     1      -0.699   2.417   0.884  0.00  0.00    -0.153 OA
BRANCH  12  15
ATOM     15  N   UNL     1       0.895   1.572  -0.804  0.00  0.00    -0.193 NA
ATOM     16  C   UNL     1       1.730   2.776  -0.844  0.00  0.00    +0.127 C 
ATOM     17  H   UNL     1       1.264   0.633  -1.243  0.00  0.00    +0.148 HD
ENDBRANCH  12  15
ENDBRANCH   7  12
ENDBRANCH   2   5
BRANCH   1  22
ATOM     18  C   UNL     1      -4.777   0.299  -8.243  0.00  0.00    -0.040 A 
ATOM     19  C   UNL     1      -5.333  -0.956  -8.080  0.00  0.00    +0.008 A 
ATOM     20  C   UNL     1      -5.228  -1.611  -6.867  0.00  0.00    +0.047 A 
ATOM     21  C   UNL     1      -4.563  -1.009  -5.810  0.00  0.00    +0.138 A 
ATOM     22  C   UNL     1      -4.003   0.255  -5.974  0.00  0.00    +0.076 A 
ATOM     23  C   UNL     1      -4.117   0.908  -7.193  0.00  0.00    +0.031 A 
BRANCH  18  25
ATOM     24  C   UNL     1      -5.671   0.126 -10.550  0.00  0.00    +0.015 C 
ATOM     25  C   UNL     1      -4.896   1.008  -9.568  0.00  0.00    -0.013 C 
ATOM     26  C   UNL     1      -5.640   2.331  -9.374  0.00  0.00    +0.015 C 
ATOM     27  C   UNL     1      -3.499   1.285 -10.126  0.00  0.00    +0.015 C 
ENDBRANCH  18  25
BRANCH  21  28
ATOM     28  O   UNL     1      -4.459  -1.652  -4.616  0.00  0.00    -0.505 OA
ATOM     29  H   UNL     1      -3.932  -1.173  -3.778  0.00  0.00    +0.292 HD
ENDBRANCH  21  28
ENDBRANCH   1  22
TORSDOF 6
