REMARK  Name = ZINC61820131
REMARK  4 active torsions:
REMARK  status: ('A' for Active; 'I' for Inactive)
REMARK    1  A    between atoms: C_1  and  C_2
REMARK    2  A    between atoms: C_2  and  C_18
REMARK    3  A    between atoms: N_5  and  C_8
REMARK    4  A    between atoms: C_15  and  N_17
REMARK                            x       y       z     vdW  Elec       q    Type
REMARK                         _______ _______ _______ _____ _____    ______ ____
ROOT
ATOM      1  C   UNL     1       1.723  -3.918  -0.031  0.00  0.00    +0.096 C 
ATOM      2  C   UNL     1       0.347  -4.614   0.070  0.00  0.00    +0.186 C 
ATOM      3  S   UNL     1       0.757  -6.070   1.128  0.00  0.00    -0.028 S 
ATOM      4  O   UNL     1       1.321  -7.095   0.321  0.00  0.00    -0.174 OA
ATOM      5  O   UNL     1      -0.348  -6.365   1.971  0.00  0.00    -0.174 OA
ATOM      6  C   UNL     1       2.091  -5.271   2.123  0.00  0.00    +0.186 C 
ATOM      7  C   UNL     1       2.676  -4.279   1.099  0.00  0.00    +0.091 C 
ENDROOT
BRANCH   1  12
ATOM      8  C   UNL     1      -0.017   1.526  -0.057  0.00  0.00    +0.011 C 
ATOM      9  C   UNL     1       0.004  -0.003  -0.080  0.00  0.00    -0.033 C 
ATOM     10  C   UNL     1       0.815  -0.486  -1.286  0.00  0.00    +0.022 C 
ATOM     11  C   UNL     1       0.883  -2.015  -1.269  0.00  0.00    +0.085 C 
ATOM     12  N   UNL     1       1.514  -2.464  -0.021  0.00  0.00    -0.296 NA
ATOM     13  C   UNL     1       0.729  -2.053   1.149  0.00  0.00    +0.085 C 
ATOM     14  C   UNL     1       0.655  -0.525   1.204  0.00  0.00    +0.022 C 
ATOM     15  C   UNL     1      -1.427  -0.533  -0.179  0.00  0.00    +0.011 C 
ENDBRANCH   1  12
BRANCH   7  16
ATOM     16  N   UNL     1       3.055  -3.047   1.804  0.00  0.00    -0.325 NA
ATOM     17  H   UNL     1       3.689  -3.246   2.563  0.00  0.00    +0.119 HD
ATOM     18  H   UNL     1       3.453  -2.374   1.167  0.00  0.00    +0.119 HD
ENDBRANCH   7  16
TORSDOF 2
