REMARK  Name = ZINC39710304
REMARK  10 active torsions:
REMARK  status: ('A' for Active; 'I' for Inactive)
REMARK    1  A    between atoms: C_1  and  C_2
REMARK    2  A    between atoms: C_9  and  C_14
REMARK    3  A    between atoms: C_14  and  C_16
REMARK    4  A    between atoms: C_14  and  N_28
REMARK    5  A    between atoms: N_20  and  C_21
REMARK    6  A    between atoms: C_21  and  C_22
REMARK    7  A    between atoms: N_28  and  C_29
REMARK    8  A    between atoms: N_28  and  C_36
REMARK    9  A    between atoms: C_29  and  C_30
REMARK   10  A    between atoms: C_36  and  C_37
REMARK                            x       y       z     vdW  Elec       q    Type
REMARK                         _______ _______ _______ _____ _____    ______ ____
ROOT
ATOM      1  C   UNL     1      -1.261  -5.488   2.607  0.00  0.00    +0.143 C 
ENDROOT
BRANCH   1  10
ATOM      2  C   UNL     1       4.867  -3.806   5.867  0.00  0.00    +0.044 C 
ATOM      3  C   UNL     1       3.731  -3.536   4.914  0.00  0.00    -0.050 A 
ATOM      4  C   UNL     1       3.438  -2.220   4.555  0.00  0.00    +0.005 A 
ATOM      5  C   UNL     1       2.430  -1.900   3.701  0.00  0.00    +0.024 A 
ATOM      6  C   UNL     1       1.627  -2.907   3.135  0.00  0.00    +0.040 A 
ATOM      7  N   UNL     1       0.642  -2.581   2.299  0.00  0.00    -0.284 N 
ATOM      8  C   UNL     1      -0.150  -3.476   1.732  0.00  0.00    +0.226 C 
ATOM      9  O   UNL     1      -1.034  -3.119   0.976  0.00  0.00    -0.275 OA
ATOM     10  C   UNL     1       0.047  -4.946   2.028  0.00  0.00    +0.123 C 
ATOM     11  C   UNL     1       1.167  -5.322   2.978  0.00  0.00    -0.003 C 
ATOM     12  C   UNL     1       1.914  -4.306   3.497  0.00  0.00    -0.007 A 
ATOM     13  C   UNL     1       3.017  -4.580   4.418  0.00  0.00    +0.012 A 
ATOM     14  H   UNL     1       0.498  -1.644   2.096  0.00  0.00    +0.155 HD
ENDBRANCH   1  10
BRANCH   1  15
ATOM     15  C   UNL     1      -2.383  -5.244   1.631  0.00  0.00    +0.170 A 
ATOM     16  N   UNL     1      -2.296  -5.244   0.323  0.00  0.00    -0.112 NA
ATOM     17  N   UNL     1      -3.466  -4.996  -0.154  0.00  0.00    -0.023 NA
ATOM     18  N   UNL     1      -4.298  -4.838   0.816  0.00  0.00    -0.044 NA
ATOM     19  N   UNL     1      -3.669  -4.988   1.932  0.00  0.00    -0.223 N 
BRANCH  19  20
ATOM     20  C   UNL     1      -4.246  -4.894   3.275  0.00  0.00    +0.182 C 
BRANCH  20  21
ATOM     21  C   UNL     1      -4.301  -3.449   3.699  0.00  0.00    -0.026 A 
ATOM     22  C   UNL     1      -3.188  -2.852   4.262  0.00  0.00    +0.005 A 
ATOM     23  C   UNL     1      -3.238  -1.526   4.651  0.00  0.00    +0.000 A 
ATOM     24  C   UNL     1      -4.400  -0.798   4.476  0.00  0.00    +0.000 A 
ATOM     25  C   UNL     1      -5.512  -1.395   3.912  0.00  0.00    +0.000 A 
ATOM     26  C   UNL     1      -5.461  -2.719   3.519  0.00  0.00    +0.005 A 
ENDBRANCH  20  21
ENDBRANCH  19  20
ENDBRANCH   1  15
BRANCH   1  27
ATOM     27  N   UNL     1      -1.129  -6.931   2.849  0.00  0.00    -0.283 NA
BRANCH  27  28
ATOM     28  C   UNL     1      -0.633  -7.194   4.207  0.00  0.00    +0.120 C 
BRANCH  28  29
ATOM     29  C   UNL     1      -1.754  -7.003   5.196  0.00  0.00    -0.033 A 
ATOM     30  C   UNL     1      -1.896  -5.796   5.856  0.00  0.00    +0.005 A 
ATOM     31  C   UNL     1      -2.924  -5.621   6.763  0.00  0.00    +0.000 A 
ATOM     32  C   UNL     1      -3.811  -6.652   7.011  0.00  0.00    +0.000 A 
ATOM     33  C   UNL     1      -3.670  -7.858   6.350  0.00  0.00    +0.000 A 
ATOM     34  C   UNL     1      -2.644  -8.032   5.440  0.00  0.00    +0.005 A 
ENDBRANCH  28  29
ENDBRANCH  27  28
BRANCH  27  35
ATOM     35  C   UNL     1      -0.261  -7.556   1.842  0.00  0.00    +0.122 C 
BRANCH  35  36
ATOM     36  C   UNL     1      -0.991  -7.631   0.526  0.00  0.00    -0.015 A 
ATOM     37  C   UNL     1      -2.011  -8.552   0.341  0.00  0.00    +0.008 A 
ATOM     38  C   UNL     1      -2.655  -8.584  -0.887  0.00  0.00    +0.020 A 
ATOM     39  C   UNL     1      -2.262  -7.704  -1.877  0.00  0.00    +0.111 A 
ATOM     40  N   UNL     1      -1.288  -6.842  -1.665  0.00  0.00    -0.263 NA
ATOM     41  C   UNL     1      -0.657  -6.779  -0.509  0.00  0.00    +0.115 A 
ENDBRANCH  35  36
ENDBRANCH  27  35
ENDBRANCH   1  27
TORSDOF 9
