REMARK  Name = ZINC35927978
REMARK  8 active torsions:
REMARK  status: ('A' for Active; 'I' for Inactive)
REMARK    1  A    between atoms: C_1  and  C_2
REMARK    2  A    between atoms: C_5  and  N_8
REMARK    3  A    between atoms: C_11  and  C_13
REMARK    4  A    between atoms: C_13  and  N_14
REMARK    5  A    between atoms: N_14  and  C_15
REMARK    6  A    between atoms: N_18  and  C_19
REMARK    7  A    between atoms: N_26  and  C_29
REMARK    8  A    between atoms: C_29  and  C_30
REMARK                            x       y       z     vdW  Elec       q    Type
REMARK                         _______ _______ _______ _____ _____    ______ ____
ROOT
ATOM      1  N   UNL     1       0.057  -4.172  -0.021  0.00  0.00    -0.236 N 
ATOM      2  C   UNL     1       0.764  -4.959   0.805  0.00  0.00    +0.045 A 
ATOM      3  C   UNL     1       0.511  -6.253   0.470  0.00  0.00    -0.018 A 
ATOM      4  C   UNL     1      -0.385  -6.252  -0.594  0.00  0.00    +0.082 A 
ATOM      5  N   UNL     1      -0.666  -5.005  -0.890  0.00  0.00    -0.169 NA
ATOM      6  C   UNL     1       1.136  -7.429   1.177  0.00  0.00    -0.039 C 
ATOM      7  N   UNL     1       2.306  -6.950   1.931  0.00  0.00    +0.385 N 
ATOM      8  C   UNL     1       1.928  -5.820   2.791  0.00  0.00    -0.072 C 
ATOM      9  C   UNL     1       1.692  -4.571   1.930  0.00  0.00    +0.037 C 
ATOM     10  H   UNL     1       3.022  -6.653   1.285  0.00  0.00    -0.081 HD
ENDROOT
BRANCH   1  15
ATOM     11  C   UNL     1      -0.016   1.503   0.008  0.00  0.00    +0.044 C 
ATOM     12  C   UNL     1       0.004  -0.004   0.001  0.00  0.00    -0.050 A 
ATOM     13  C   UNL     1       1.198  -0.680   0.170  0.00  0.00    +0.005 A 
ATOM     14  C   UNL     1       1.219  -2.061   0.163  0.00  0.00    +0.028 A 
ATOM     15  C   UNL     1       0.039  -2.771  -0.013  0.00  0.00    +0.066 A 
ATOM     16  C   UNL     1      -1.159  -2.089  -0.183  0.00  0.00    +0.028 A 
ATOM     17  C   UNL     1      -1.174  -0.708  -0.170  0.00  0.00    +0.005 A 
ENDBRANCH   1  15
BRANCH   4  18
ATOM     18  C   UNL     1      -0.942  -7.471  -1.283  0.00  0.00    +0.166 C 
BRANCH  18  19
ATOM     19  N   UNL     1      -2.179  -7.886  -0.617  0.00  0.00    -0.283 N 
ATOM     20  C   UNL     1      -3.467  -7.349  -1.062  0.00  0.00    +0.134 C 
ATOM     21  C   UNL     1      -2.132  -8.763   0.406  0.00  0.00    +0.303 C 
ATOM     22  O   UNL     1      -1.063  -9.210   0.775  0.00  0.00    -0.253 OA
ATOM     23  N   UNL     1      -3.270  -9.145   1.019  0.00  0.00    -0.296 N 
ATOM     24  H   UNL     1      -4.123  -8.789   0.724  0.00  0.00    +0.151 HD
BRANCH  23  25
ATOM     25  C   UNL     1      -3.219 -10.098   2.130  0.00  0.00    +0.074 C 
ATOM     26  C   UNL     1      -3.210 -11.525   1.578  0.00  0.00    +0.022 C 
ATOM     27  C   UNL     1      -3.157 -12.521   2.739  0.00  0.00    +0.002 C 
ATOM     28  C   UNL     1      -4.383 -12.327   3.633  0.00  0.00    +0.000 C 
ATOM     29  C   UNL     1      -4.392 -10.900   4.185  0.00  0.00    +0.002 C 
ATOM     30  C   UNL     1      -4.445  -9.905   3.024  0.00  0.00    +0.022 C 
ENDBRANCH  23  25
ENDBRANCH  18  19
ENDBRANCH   4  18
BRANCH   7  31
ATOM     31  C   UNL     1       2.828  -8.041   2.764  0.00  0.00    -0.043 C 
BRANCH  31  32
ATOM     32  C   UNL     1       4.096  -7.592   3.443  0.00  0.00    -0.064 A 
ATOM     33  C   UNL     1       5.317  -7.784   2.824  0.00  0.00    +0.004 A 
ATOM     34  C   UNL     1       6.480  -7.372   3.445  0.00  0.00    +0.038 A 
ATOM     35  C   UNL     1       6.423  -6.768   4.690  0.00  0.00    +0.123 A 
ATOM     36  C   UNL     1       5.200  -6.577   5.310  0.00  0.00    +0.038 A 
ATOM     37  C   UNL     1       4.037  -6.984   4.684  0.00  0.00    +0.004 A 
ATOM     38  F   UNL     1       7.560  -6.365   5.299  0.00  0.00    -0.205 F 
ENDBRANCH  31  32
ENDBRANCH   7  31
TORSDOF 6
