REMARK  Name = ZINC35619683
REMARK  19 active torsions:
REMARK  status: ('A' for Active; 'I' for Inactive)
REMARK    1  A    between atoms: C_1  and  C_2
REMARK    2  A    between atoms: C_2  and  C_3
REMARK    3  A    between atoms: C_2  and  C_4
REMARK    4  A    between atoms: C_4  and  N_5
REMARK    5  A    between atoms: N_5  and  C_6
REMARK    6  A    between atoms: C_6  and  C_7
REMARK    7  A    between atoms: C_9  and  N_22
REMARK    8  A    between atoms: C_12  and  N_13
REMARK    9  A    between atoms: N_13  and  C_14
REMARK   10  A    between atoms: N_13  and  C_15
REMARK   11  A    between atoms: N_18  and  C_21
REMARK   12  A    between atoms: C_23  and  C_25
REMARK   13  A    between atoms: C_25  and  C_26
REMARK   14  A    between atoms: C_26  and  C_27
REMARK   15  A    between atoms: C_26  and  C_28
REMARK   16  A    between atoms: C_26  and  C_29
REMARK   17  A    between atoms: C_30  and  C_32
REMARK   18  A    between atoms: C_35  and  O_38
REMARK   19  A    between atoms: O_38  and  C_39
REMARK                            x       y       z     vdW  Elec       q    Type
REMARK                         _______ _______ _______ _____ _____    ______ ____
ROOT
ATOM      1  C   UNL     1      -3.476  -3.227   1.475  0.00  0.00    -0.007 A 
ATOM      2  C   UNL     1      -4.228  -2.636   2.471  0.00  0.00    +0.030 A 
ATOM      3  C   UNL     1      -5.528  -3.062   2.705  0.00  0.00    +0.034 A 
ATOM      4  C   UNL     1      -6.073  -4.083   1.938  0.00  0.00    +0.025 A 
ATOM      5  C   UNL     1      -5.322  -4.674   0.942  0.00  0.00    +0.025 A 
ATOM      6  C   UNL     1      -4.023  -4.244   0.703  0.00  0.00    +0.035 A 
ENDROOT
BRANCH   3   7
ATOM      7  N   UNL     1      -6.291  -2.463   3.717  0.00  0.00    -0.285 N 
ATOM      8  C   UNL     1      -7.616  -2.286   3.546  0.00  0.00    +0.218 C 
ATOM      9  O   UNL     1      -8.163  -2.719   2.554  0.00  0.00    -0.275 OA
ATOM     10  H   UNL     1      -5.865  -2.175   4.539  0.00  0.00    +0.155 HD
BRANCH   8  11
ATOM     11  C   UNL     1      -8.418  -1.550   4.588  0.00  0.00    +0.102 C 
BRANCH  11  12
ATOM     12  C   UNL     1      -9.884  -1.489   4.154  0.00  0.00    -0.029 C 
ATOM     13  C   UNL     1     -10.430  -2.910   4.000  0.00  0.00    +0.011 C 
ATOM     14  C   UNL     1     -10.699  -0.742   5.213  0.00  0.00    +0.011 C 
ATOM     15  C   UNL     1      -9.990  -0.754   2.817  0.00  0.00    +0.011 C 
ENDBRANCH  11  12
ENDBRANCH   8  11
ENDBRANCH   3   7
BRANCH   6  16
ATOM     16  N   UNL     1      -3.264  -4.839  -0.310  0.00  0.00    -0.330 N 
ATOM     17  C   UNL     1      -3.194  -4.216  -1.634  0.00  0.00    +0.129 C 
BRANCH  16  18
ATOM     18  C   UNL     1      -2.538  -6.084  -0.047  0.00  0.00    +0.070 C 
ATOM     19  C   UNL     1      -1.037  -5.852  -0.236  0.00  0.00    +0.004 C 
ATOM     20  C   UNL     1      -0.292  -7.174  -0.038  0.00  0.00    -0.077 C 
ATOM     21  N   UNL     1      -0.765  -8.158  -1.020  0.00  0.00    +0.378 N 
ATOM     22  C   UNL     1      -2.188  -8.439  -0.797  0.00  0.00    -0.077 C 
ATOM     23  C   UNL     1      -3.006  -7.165  -1.025  0.00  0.00    +0.004 C 
ATOM     24  C   UNL     1       0.006  -9.400  -0.876  0.00  0.00    -0.096 C 
ATOM     25  H   UNL     1      -0.637  -7.790  -1.951  0.00  0.00    -0.082 HD
ENDBRANCH  16  18
ENDBRANCH   6  16
BRANCH   1  26
ATOM     26  C   UNL     1      -2.065  -2.764   1.221  0.00  0.00    +0.145 C 
BRANCH  26  27
ATOM     27  N   UNL     1      -1.780  -1.589   2.048  0.00  0.00    -0.293 N 
ATOM     28  C   UNL     1      -2.142  -0.362   1.623  0.00  0.00    +0.247 C 
ATOM     29  O   UNL     1      -2.731  -0.233   0.568  0.00  0.00    -0.270 OA
BRANCH  28  30
ATOM     30  C   UNL     1      -1.822   0.826   2.440  0.00  0.00    +0.037 A 
ATOM     31  C   UNL     1      -0.798   0.768   3.389  0.00  0.00    +0.016 A 
ATOM     32  C   UNL     1      -0.502   1.878   4.148  0.00  0.00    +0.046 A 
ATOM     33  C   UNL     1      -1.221   3.055   3.972  0.00  0.00    +0.120 A 
ATOM     34  C   UNL     1      -2.240   3.116   3.028  0.00  0.00    +0.046 A 
ATOM     35  C   UNL     1      -2.538   2.012   2.261  0.00  0.00    +0.016 A 
BRANCH  33  36
ATOM     36  O   UNL     1      -0.927   4.146   4.722  0.00  0.00    -0.495 OA
ATOM     37  C   UNL     1      -1.704   5.322   4.489  0.00  0.00    +0.277 C 
ENDBRANCH  33  36
ENDBRANCH  28  30
BRANCH  27  38
ATOM     38  C   UNL     1      -1.102  -1.748   3.337  0.00  0.00    +0.111 C 
BRANCH  38  40
ATOM     39  C   UNL     1       1.124  -1.898   4.460  0.00  0.00    +0.009 C 
ATOM     40  C   UNL     1       0.407  -1.858   3.110  0.00  0.00    +0.000 C 
ATOM     41  C   UNL     1       0.713  -3.139   2.331  0.00  0.00    +0.009 C 
ENDBRANCH  38  40
ENDBRANCH  27  38
ENDBRANCH  26  27
ENDBRANCH   1  26
TORSDOF 11
