REMARK  Name = ZINC12200162
REMARK  10 active torsions:
REMARK  status: ('A' for Active; 'I' for Inactive)
REMARK    1  A    between atoms: C_1  and  C_2
REMARK    2  A    between atoms: C_2  and  C_3
REMARK    3  A    between atoms: C_2  and  N_4
REMARK    4  A    between atoms: N_4  and  C_5
REMARK    5  A    between atoms: C_5  and  C_6
REMARK    6  A    between atoms: N_9  and  C_11
REMARK    7  A    between atoms: C_12  and  C_14
REMARK    8  A    between atoms: C_14  and  C_15
REMARK    9  A    between atoms: C_22  and  C_23
REMARK   10  A    between atoms: C_22  and  N_63
REMARK                            x       y       z     vdW  Elec       q    Type
REMARK                         _______ _______ _______ _____ _____    ______ ____
ROOT
ATOM      1  C   UNL     1       5.359   1.883  -1.543  0.00  0.00    +0.028 C 
ATOM      2  C   UNL     1       5.663   1.259  -2.876  0.00  0.00    +0.200 C 
ATOM      3  O   UNL     1       6.821   1.043  -3.165  0.00  0.00    -0.278 OA
ATOM      4  N   UNL     1       4.711   0.932  -3.756  0.00  0.00    -0.318 N 
ATOM      5  C   UNL     1       3.292   1.183  -3.521  0.00  0.00    +0.085 C 
ATOM      6  C   UNL     1       3.042   1.421  -2.030  0.00  0.00    -0.058 C 
ATOM      7  H   UNL     1       4.975   0.509  -4.588  0.00  0.00    +0.149 HD
ATOM      8  N   UNL     1       3.996   2.447  -1.564  0.00  0.00    +0.391 N 
ATOM      9  H   UNL     1       3.973   3.245  -2.210  0.00  0.00    -0.080 HD
ENDROOT
BRANCH   1  10
ATOM     10  C   UNL     1       6.359   3.008  -1.268  0.00  0.00    +0.090 C 
BRANCH  10  12
ATOM     11  N   UNL     1       6.895   5.238  -2.196  0.00  0.00    -0.295 N 
ATOM     12  C   UNL     1       6.186   4.096  -2.297  0.00  0.00    +0.215 C 
ATOM     13  O   UNL     1       5.409   3.944  -3.216  0.00  0.00    -0.276 OA
BRANCH  11  15
ATOM     14  C   UNL     1       9.215   5.774  -1.639  0.00  0.00    +0.028 C 
ATOM     15  C   UNL     1       7.833   5.421  -1.086  0.00  0.00    +0.070 C 
ATOM     16  C   UNL     1       7.341   6.554  -0.183  0.00  0.00    +0.028 C 
ENDBRANCH  11  15
BRANCH  11  17
ATOM     17  C   UNL     1       6.727   6.295  -3.196  0.00  0.00    +0.146 C 
BRANCH  17  18
ATOM     18  C   UNL     1       7.605   6.006  -4.385  0.00  0.00    +0.007 A 
ATOM     19  C   UNL     1       7.232   5.295  -5.530  0.00  0.00    +0.139 A 
ATOM     20  N   UNL     1       8.260   5.252  -6.338  0.00  0.00    -0.180 NA
ATOM     21  N   UNL     1       9.322   5.935  -5.732  0.00  0.00    -0.274 N 
ATOM     22  C   UNL     1       8.893   6.393  -4.537  0.00  0.00    +0.113 A 
ATOM     23  C   UNL     1      10.660   6.125  -6.298  0.00  0.00    +0.172 C 
ENDBRANCH  17  18
ENDBRANCH  11  17
ENDBRANCH  10  12
ENDBRANCH   1  10
BRANCH   8  24
ATOM     24  C   UNL     1       3.619   2.913  -0.210  0.00  0.00    -0.041 C 
BRANCH  24  25
ATOM     25  C   UNL     1       2.276   3.593  -0.281  0.00  0.00    -0.056 A 
ATOM     26  C   UNL     1       2.200   4.936  -0.484  0.00  0.00    +0.002 A 
ATOM     27  C   UNL     1       0.967   5.582  -0.553  0.00  0.00    +0.001 A 
ATOM     28  C   UNL     1      -0.196   4.888  -0.418  0.00  0.00    +0.008 A 
ATOM     29  C   UNL     1      -0.157   3.500  -0.206  0.00  0.00    -0.018 A 
ATOM     30  C   UNL     1       1.097   2.843  -0.136  0.00  0.00    -0.017 A 
ATOM     31  C   UNL     1       1.136   1.454   0.076  0.00  0.00    +0.009 A 
ATOM     32  C   UNL     1      -0.027   0.761   0.212  0.00  0.00    +0.001 A 
ATOM     33  C   UNL     1      -1.260   1.406   0.138  0.00  0.00    +0.001 A 
ATOM     34  C   UNL     1      -1.337   2.750  -0.061  0.00  0.00    +0.008 A 
ENDBRANCH  24  25
ENDBRANCH   8  24
TORSDOF 7
