REMARK  Name = ZINC39487313
REMARK  12 active torsions:
REMARK  status: ('A' for Active; 'I' for Inactive)
REMARK    1  A    between atoms: C_1  and  C_2
REMARK    2  A    between atoms: C_2  and  C_3
REMARK    3  A    between atoms: C_3  and  C_35
REMARK    4  A    between atoms: N_5  and  C_28
REMARK    5  A    between atoms: N_8  and  C_9
REMARK    6  A    between atoms: C_9  and  C_10
REMARK    7  A    between atoms: C_10  and  C_22
REMARK    8  A    between atoms: N_13  and  S_16
REMARK    9  A    between atoms: S_16  and  C_19
REMARK   10  A    between atoms: C_19  and  C_20
REMARK   11  A    between atoms: C_19  and  C_21
REMARK   12  A    between atoms: C_33  and  O_34
REMARK                            x       y       z     vdW  Elec       q    Type
REMARK                         _______ _______ _______ _____ _____    ______ ____
ROOT
ATOM      1  C   UNL     1       1.426  -3.216  -0.486  0.00  0.00    +0.117 C 
ENDROOT
BRANCH   1   7
ATOM      2  C   UNL     1       3.779  -2.975   0.614  0.00  0.00    +0.052 C 
ATOM      3  C   UNL     1       4.399  -1.831   1.439  0.00  0.00    +0.141 C 
ATOM      4  N   UNL     1       3.333  -0.819   1.496  0.00  0.00    -0.250 N 
ATOM      5  C   UNL     1       2.264  -1.269   0.827  0.00  0.00    +0.310 C 
ATOM      6  O   UNL     1       1.235  -0.631   0.714  0.00  0.00    -0.252 OA
ATOM      7  N   UNL     1       2.430  -2.487   0.293  0.00  0.00    -0.278 N 
ATOM      8  C   UNL     1       4.582  -3.215  -0.666  0.00  0.00    +0.033 C 
BRANCH   4   9
ATOM      9  C   UNL     1       3.423   0.419   2.146  0.00  0.00    +0.079 A 
ATOM     10  C   UNL     1       3.789   1.553   1.436  0.00  0.00    +0.027 A 
ATOM     11  C   UNL     1       3.877   2.773   2.079  0.00  0.00    +0.002 A 
ATOM     12  C   UNL     1       3.599   2.867   3.430  0.00  0.00    +0.004 A 
ATOM     13  C   UNL     1       3.233   1.741   4.145  0.00  0.00    +0.047 A 
ATOM     14  C   UNL     1       3.138   0.516   3.506  0.00  0.00    +0.138 A 
BRANCH  14  15
ATOM     15  O   UNL     1       2.772  -0.591   4.206  0.00  0.00    -0.505 OA
ATOM     16  H   UNL     1       3.505  -1.029   4.661  0.00  0.00    +0.292 HD
ENDBRANCH  14  15
ENDBRANCH   4   9
BRANCH   2  18
ATOM     17  C   UNL     1       5.118  -4.727   1.790  0.00  0.00    +0.006 C 
ATOM     18  C   UNL     1       3.703  -4.257   1.446  0.00  0.00    +0.024 C 
ENDBRANCH   2  18
ENDBRANCH   1   7
BRANCH   1  19
ATOM     19  C   UNL     1       0.285  -3.654   0.434  0.00  0.00    -0.008 C 
ATOM     20  C   UNL     1      -0.768  -4.407  -0.382  0.00  0.00    +0.026 C 
ATOM     21  C   UNL     1      -1.292  -3.496  -1.497  0.00  0.00    +0.109 C 
ATOM     22  N   UNL     1      -1.775  -2.245  -0.897  0.00  0.00    -0.181 NA
ATOM     23  C   UNL     1      -0.872  -1.487  -0.020  0.00  0.00    +0.109 C 
ATOM     24  C   UNL     1      -0.352  -2.421   1.078  0.00  0.00    +0.026 C 
BRANCH  19  25
ATOM     25  C   UNL     1       0.836  -4.573   1.526  0.00  0.00    -0.003 C 
ATOM     26  C   UNL     1       1.262  -5.905   0.906  0.00  0.00    +0.004 C 
ATOM     27  C   UNL     1       1.812  -6.823   1.998  0.00  0.00    +0.000 C 
ATOM     28  C   UNL     1       0.728  -7.074   3.048  0.00  0.00    +0.000 C 
ATOM     29  C   UNL     1       0.301  -5.742   3.669  0.00  0.00    +0.000 C 
ATOM     30  C   UNL     1      -0.249  -4.823   2.576  0.00  0.00    +0.004 C 
ENDBRANCH  19  25
BRANCH  22  31
ATOM     31  S   UNL     1      -3.308  -1.698  -1.203  0.00  0.00    +0.034 S 
ATOM     32  O   UNL     1      -4.071  -2.874  -1.440  0.00  0.00    -0.158 OA
ATOM     33  O   UNL     1      -3.614  -0.844  -0.110  0.00  0.00    -0.158 OA
BRANCH  31  34
ATOM     34  C   UNL     1      -3.161  -0.731  -2.731  0.00  0.00    +0.142 C 
ATOM     35  C   UNL     1      -2.613  -1.621  -3.848  0.00  0.00    +0.033 C 
ATOM     36  C   UNL     1      -4.538  -0.198  -3.131  0.00  0.00    +0.033 C 
ENDBRANCH  31  34
ENDBRANCH  22  31
ENDBRANCH   1  19
TORSDOF 8
