REMARK  Name = ZINC06554003
REMARK  4 active torsions:
REMARK  status: ('A' for Active; 'I' for Inactive)
REMARK    1  A    between atoms: C_4  and  N_10
REMARK    2  A    between atoms: C_6  and  N_7
REMARK    3  A    between atoms: C_11  and  C_12
REMARK    4  A    between atoms: C_13  and  O_22
REMARK                            x       y       z     vdW  Elec       q    Type
REMARK                         _______ _______ _______ _____ _____    ______ ____
ROOT
ATOM      1  N   UNL     1       1.182   3.460   0.009  0.00  0.00    -0.251 NA
ATOM      2  C   UNL     1       2.038   4.123  -0.724  0.00  0.00    +0.130 C 
ENDROOT
BRANCH   2   3
ATOM      3  C   UNL     1       2.030   5.586  -0.716  0.00  0.00    +0.117 A 
ATOM      4  C   UNL     1       2.935   6.316  -1.491  0.00  0.00    +0.206 A 
ATOM      5  N   UNL     1       2.891   7.679  -1.454  0.00  0.00    -0.306 N 
ATOM      6  H   UNL     1       3.518   8.190  -1.990  0.00  0.00    +0.171 HD
ATOM      7  C   UNL     1       1.998   8.328  -0.690  0.00  0.00    +0.161 A 
ATOM      8  S   UNL     1       1.999  10.040  -0.691  0.00  0.00    -0.013 S 
ATOM      9  N   UNL     1       1.103   7.681   0.075  0.00  0.00    -0.302 N 
ATOM     10  H   UNL     1       0.475   8.189   0.612  0.00  0.00    +0.171 HD
ATOM     11  C   UNL     1       1.065   6.332   0.101  0.00  0.00    +0.264 A 
ATOM     12  O   UNL     1       0.251   5.747   0.790  0.00  0.00    -0.267 OA
BRANCH   4  13
ATOM     13  O   UNL     1       3.839   5.682  -2.262  0.00  0.00    -0.493 OA
ATOM     14  H   UNL     1       4.442   6.236  -2.778  0.00  0.00    +0.294 HD
ENDBRANCH   4  13
ENDBRANCH   2   3
BRANCH   1  18
ATOM     15  C   UNL     1       1.208  -0.681  -0.014  0.00  0.00    +0.036 A 
ATOM     16  C   UNL     1       0.002  -0.004   0.002  0.00  0.00    +0.055 A 
ATOM     17  C   UNL     1      -0.017   1.380   0.010  0.00  0.00    +0.204 A 
ATOM     18  C   UNL     1       1.190   2.091   0.002  0.00  0.00    +0.113 A 
ATOM     19  C   UNL     1       2.401   1.397  -0.014  0.00  0.00    +0.064 A 
ATOM     20  C   UNL     1       2.402   0.017  -0.022  0.00  0.00    +0.128 A 
ATOM     21  O   UNL     1      -1.201   2.046   0.019  0.00  0.00    -0.286 OA
BRANCH  20  22
ATOM     22  N   UNL     1       3.687  -0.719  -0.039  0.00  0.00    +0.056 N 
ATOM     23  O   UNL     1       3.691  -1.937  -0.047  0.00  0.00    -0.126 OA
ATOM     24  O   UNL     1       4.739  -0.106  -0.047  0.00  0.00    -0.126 OA
ENDBRANCH  20  22
ENDBRANCH   1  18
TORSDOF 4
