REMARK  Name = ZINC34882500
REMARK  10 active torsions:
REMARK  status: ('A' for Active; 'I' for Inactive)
REMARK    1  A    between atoms: C_1  and  C_2
REMARK    2  A    between atoms: C_2  and  C_3
REMARK    3  A    between atoms: C_8  and  N_9
REMARK    4  A    between atoms: C_10  and  C_12
REMARK    5  A    between atoms: C_16  and  N_17
REMARK    6  A    between atoms: C_18  and  C_20
REMARK    7  A    between atoms: C_26  and  C_30
REMARK    8  A    between atoms: C_30  and  C_31
REMARK    9  A    between atoms: C_30  and  C_32
REMARK   10  A    between atoms: C_30  and  C_33
REMARK                            x       y       z     vdW  Elec       q    Type
REMARK                         _______ _______ _______ _____ _____    ______ ____
ROOT
ATOM      1  C   UNL     1      -1.470  -0.281  -4.828  0.00  0.00    +0.069 A 
ATOM      2  C   UNL     1      -0.696  -1.311  -5.498  0.00  0.00    -0.023 A 
ATOM      3  C   UNL     1      -0.136  -0.913  -6.660  0.00  0.00    -0.004 A 
ATOM      4  S   UNL     1      -0.630   0.776  -6.842  0.00  0.00    -0.077 S 
ATOM      5  C   UNL     1      -1.546   0.958  -5.446  0.00  0.00    +0.085 A 
ATOM      6  C   UNL     1       0.715  -1.736  -7.577  0.00  0.00    +0.046 C 
ATOM      7  C   UNL     1       1.170  -2.990  -6.817  0.00  0.00    -0.000 C 
ATOM      8  C   UNL     1      -0.044  -3.619  -6.128  0.00  0.00    +0.009 C 
ATOM      9  C   UNL     1      -0.509  -2.727  -4.974  0.00  0.00    +0.037 C 
ENDROOT
BRANCH   1  11
ATOM     10  N   UNL     1      -1.506  -0.315  -2.391  0.00  0.00    -0.281 N 
ATOM     11  C   UNL     1      -2.147  -0.541  -3.554  0.00  0.00    +0.251 C 
ATOM     12  O   UNL     1      -3.289  -0.962  -3.547  0.00  0.00    -0.270 OA
ATOM     13  H   UNL     1      -0.620   0.081  -2.395  0.00  0.00    +0.155 HD
BRANCH  10  19
ATOM     14  C   UNL     1      -1.349  -1.120  -0.120  0.00  0.00    -0.026 A 
ATOM     15  C   UNL     1      -1.954  -1.447   1.078  0.00  0.00    +0.005 A 
ATOM     16  C   UNL     1      -3.323  -1.314   1.222  0.00  0.00    +0.000 A 
ATOM     17  C   UNL     1      -4.090  -0.853   0.168  0.00  0.00    +0.002 A 
ATOM     18  C   UNL     1      -3.491  -0.524  -1.032  0.00  0.00    +0.023 A 
ATOM     19  C   UNL     1      -2.116  -0.652  -1.179  0.00  0.00    +0.037 A 
BRANCH  14  21
ATOM     20  C   UNL     1       0.820   0.074   0.019  0.00  0.00    +0.009 C 
ATOM     21  C   UNL     1       0.143  -1.266  -0.276  0.00  0.00    +0.033 C 
ENDBRANCH  14  21
ENDBRANCH  10  19
ENDBRANCH   1  11
BRANCH   5  22
ATOM     22  N   UNL     1      -2.220   2.087  -5.011  0.00  0.00    -0.273 N 
ATOM     23  C   UNL     1      -2.187   3.217  -5.745  0.00  0.00    +0.284 C 
ATOM     24  O   UNL     1      -1.563   3.245  -6.790  0.00  0.00    -0.266 OA
ATOM     25  H   UNL     1      -2.717   2.064  -4.178  0.00  0.00    +0.156 HD
BRANCH  23  26
ATOM     26  C   UNL     1      -2.900   4.412  -5.285  0.00  0.00    +0.189 A 
ATOM     27  C   UNL     1      -2.953   5.614  -5.931  0.00  0.00    +0.054 A 
ATOM     28  C   UNL     1      -3.740   6.463  -5.139  0.00  0.00    +0.042 A 
ATOM     29  C   UNL     1      -4.130   5.752  -4.058  0.00  0.00    +0.196 A 
ATOM     30  O   UNL     1      -3.626   4.515  -4.152  0.00  0.00    -0.458 OA
ENDBRANCH  23  26
ENDBRANCH   5  22
BRANCH   7  31
ATOM     31  C   UNL     1       1.781  -3.991  -7.799  0.00  0.00    -0.035 C 
ATOM     32  C   UNL     1       2.985  -3.353  -8.495  0.00  0.00    +0.011 C 
ATOM     33  C   UNL     1       2.234  -5.240  -7.039  0.00  0.00    +0.011 C 
ATOM     34  C   UNL     1       0.736  -4.382  -8.845  0.00  0.00    +0.011 C 
ENDBRANCH   7  31
TORSDOF 6
