REMARK  Name = ZINC14136122
REMARK  4 active torsions:
REMARK  status: ('A' for Active; 'I' for Inactive)
REMARK    1  A    between atoms: C_1  and  C_2
REMARK    2  A    between atoms: N_13  and  C_18
REMARK    3  A    between atoms: C_23  and  O_24
REMARK    4  A    between atoms: O_24  and  C_25
REMARK                            x       y       z     vdW  Elec       q    Type
REMARK                         _______ _______ _______ _____ _____    ______ ____
ROOT
ATOM      1  C   UNL     1       1.391   3.576  -0.241  0.00  0.00    +0.008 C 
ATOM      2  C   UNL     1       1.414   2.066  -0.000  0.00  0.00    -0.009 C 
ATOM      3  C   UNL     1      -0.019   1.525   0.010  0.00  0.00    +0.008 C 
ATOM      4  C   UNL     1       0.002  -0.004   0.002  0.00  0.00    +0.037 C 
ATOM      5  C   UNL     1       0.900  -0.490   1.134  0.00  0.00    -0.023 A 
ATOM      6  C   UNL     1       1.802   0.338   1.707  0.00  0.00    -0.004 A 
ATOM      7  S   UNL     1       2.600  -0.644   2.950  0.00  0.00    -0.075 S 
ATOM      8  C   UNL     1       1.758  -2.115   2.713  0.00  0.00    +0.092 A 
ATOM      9  C   UNL     1       0.859  -1.840   1.670  0.00  0.00    +0.074 A 
ATOM     10  C   UNL     1      -0.026  -2.945   1.233  0.00  0.00    +0.268 A 
ATOM     11  O   UNL     1      -0.839  -2.804   0.338  0.00  0.00    -0.267 OA
ATOM     12  N   UNL     1       0.123  -4.120   1.888  0.00  0.00    -0.253 N 
ATOM     13  C   UNL     1       1.007  -4.309   2.878  0.00  0.00    +0.166 A 
ATOM     14  S   UNL     1       1.084  -5.851   3.617  0.00  0.00    -0.012 S 
ATOM     15  N   UNL     1       1.841  -3.338   3.322  0.00  0.00    -0.329 N 
ATOM     16  H   UNL     1       2.564  -3.499   4.135  0.00  0.00    +0.168 HD
ATOM     17  C   UNL     1       2.063   1.771   1.360  0.00  0.00    +0.046 C 
ENDROOT
BRANCH  12  18
ATOM     18  C   UNL     1      -0.691  -5.197   1.511  0.00  0.00    +0.093 A 
ATOM     19  C   UNL     1      -1.917  -5.392   2.129  0.00  0.00    +0.030 A 
ATOM     20  C   UNL     1      -2.721  -6.451   1.752  0.00  0.00    +0.002 A 
ATOM     21  C   UNL     1      -2.301  -7.325   0.766  0.00  0.00    +0.004 A 
ATOM     22  C   UNL     1      -1.078  -7.141   0.149  0.00  0.00    +0.048 A 
ATOM     23  C   UNL     1      -0.269  -6.078   0.518  0.00  0.00    +0.144 A 
BRANCH  23  24
ATOM     24  O   UNL     1       0.935  -5.895  -0.088  0.00  0.00    -0.493 OA
ATOM     25  C   UNL     1       1.302  -6.838  -1.098  0.00  0.00    +0.277 C 
ENDBRANCH  23  24
ENDBRANCH  12  18
TORSDOF 2
