REMARK  Name = ZINC67246099
REMARK  4 active torsions:
REMARK  status: ('A' for Active; 'I' for Inactive)
REMARK    1  A    between atoms: C_4  and  C_7
REMARK    2  A    between atoms: C_4  and  N_23
REMARK    3  A    between atoms: C_7  and  N_8
REMARK    4  A    between atoms: C_9  and  C_11
REMARK                            x       y       z     vdW  Elec       q    Type
REMARK                         _______ _______ _______ _____ _____    ______ ____
ROOT
ATOM      1  N   UNL     1       4.268   0.032  -0.038  0.00  0.00    -0.316 N 
ATOM      2  C   UNL     1       5.112  -0.287   0.963  0.00  0.00    +0.216 C 
ATOM      3  O   UNL     1       4.733  -0.995   1.872  0.00  0.00    -0.276 OA
ATOM      4  H   UNL     1       4.571   0.598  -0.766  0.00  0.00    +0.149 HD
ENDROOT
BRANCH   2   5
ATOM      5  C   UNL     1       6.526   0.234   0.952  0.00  0.00    +0.075 C 
ATOM      6  C   UNL     1       7.242  -0.259  -0.307  0.00  0.00    +0.015 C 
ATOM      7  C   UNL     1       8.674   0.282  -0.323  0.00  0.00    +0.036 C 
ATOM      8  C   UNL     1       9.414  -0.195   0.922  0.00  0.00    +0.112 C 
ATOM      9  C   UNL     1       8.698   0.268   2.186  0.00  0.00    +0.036 C 
ATOM     10  C   UNL     1       7.266  -0.273   2.192  0.00  0.00    +0.015 C 
ATOM     11  C   UNL     1       9.549  -1.700   0.912  0.00  0.00    +0.244 C 
ATOM     12  O   UNL     1       8.653  -2.517   0.916  0.00  0.00    -0.273 OA
ATOM     13  N   UNL     1      10.876  -1.942   0.898  0.00  0.00    -0.238 N 
ATOM     14  C   UNL     1      11.585  -0.807   0.897  0.00  0.00    +0.307 C 
ATOM     15  O   UNL     1      12.800  -0.768   0.886  0.00  0.00    -0.252 OA
ATOM     16  N   UNL     1      10.801   0.288   0.911  0.00  0.00    -0.285 N 
ATOM     17  H   UNL     1      11.268  -2.830   0.890  0.00  0.00    +0.159 HD
ATOM     18  H   UNL     1      11.094   1.213   0.913  0.00  0.00    +0.151 HD
ENDBRANCH   2   5
BRANCH   1  19
ATOM     19  C   UNL     1       2.894  -0.475  -0.028  0.00  0.00    +0.092 C 
BRANCH  19  23
ATOM     20  C   UNL     1      -0.019   1.526   0.010  0.00  0.00    -0.000 C 
ATOM     21  C   UNL     1       1.417   2.055  -0.000  0.00  0.00    -0.001 C 
ATOM     22  C   UNL     1       2.133   1.562  -1.259  0.00  0.00    -0.010 C 
ATOM     23  C   UNL     1       2.154   0.032  -1.268  0.00  0.00    -0.050 C 
ATOM     24  C   UNL     1       0.718  -0.497  -1.257  0.00  0.00    -0.010 C 
ATOM     25  C   UNL     1       0.002  -0.004   0.002  0.00  0.00    -0.001 C 
BRANCH  23  26
ATOM     26  N   UNL     1       2.841  -0.442  -2.476  0.00  0.00    +0.384 N 
ATOM     27  C   UNL     1       2.135   0.053  -3.664  0.00  0.00    -0.078 C 
ATOM     28  C   UNL     1       2.893  -0.370  -4.925  0.00  0.00    -0.019 C 
ATOM     29  C   UNL     1       2.974  -1.898  -4.977  0.00  0.00    -0.004 C 
ATOM     30  C   UNL     1       3.646  -2.407  -3.698  0.00  0.00    -0.019 C 
ATOM     31  C   UNL     1       2.860  -1.909  -2.483  0.00  0.00    -0.078 C 
ATOM     32  H   UNL     1       3.788  -0.094  -2.481  0.00  0.00    -0.081 HD
ENDBRANCH  23  26
ENDBRANCH  19  23
ENDBRANCH   1  19
TORSDOF 4
