REMARK  Name = ZINC19850459
REMARK  9 active torsions:
REMARK  status: ('A' for Active; 'I' for Inactive)
REMARK    1  A    between atoms: C_1  and  C_2
REMARK    2  A    between atoms: C_2  and  O_3
REMARK    3  A    between atoms: O_3  and  C_4
REMARK    4  A    between atoms: C_9  and  C_10
REMARK    5  A    between atoms: N_11  and  N_12
REMARK    6  A    between atoms: C_13  and  C_15
REMARK    7  A    between atoms: C_15  and  N_16
REMARK    8  A    between atoms: N_19  and  S_22
REMARK    9  A    between atoms: S_22  and  C_25
REMARK                            x       y       z     vdW  Elec       q    Type
REMARK                         _______ _______ _______ _____ _____    ______ ____
ROOT
ATOM      1  N   UNL     1       0.288   3.683  -0.885  0.00  0.00    +0.387 N 
ATOM      2  C   UNL     1       1.473   4.478  -1.234  0.00  0.00    -0.061 C 
ATOM      3  C   UNL     1       1.039   5.902  -1.601  0.00  0.00    +0.091 C 
ATOM      4  N   UNL     1       0.230   6.442  -0.497  0.00  0.00    -0.180 NA
ATOM      5  C   UNL     1      -0.895   5.636   0.001  0.00  0.00    +0.091 C 
ATOM      6  C   UNL     1      -0.385   4.223   0.304  0.00  0.00    -0.061 C 
ATOM      7  H   UNL     1      -0.418   3.747  -1.727  0.00  0.00    -0.081 HD
ENDROOT
BRANCH   4   8
ATOM      8  S   UNL     1       0.578   7.918   0.167  0.00  0.00    +0.061 S 
ATOM      9  O   UNL     1       1.282   8.654  -0.824  0.00  0.00    -0.153 OA
ATOM     10  O   UNL     1      -0.625   8.392   0.756  0.00  0.00    -0.153 OA
BRANCH   8  11
ATOM     11  C   UNL     1       1.710   7.642   1.488  0.00  0.00    +0.106 A 
ATOM     12  C   UNL     1       1.238   7.413   2.767  0.00  0.00    +0.029 A 
ATOM     13  C   UNL     1       2.125   7.191   3.803  0.00  0.00    +0.017 A 
ATOM     14  C   UNL     1       3.487   7.208   3.562  0.00  0.00    +0.018 A 
ATOM     15  C   UNL     1       3.960   7.442   2.283  0.00  0.00    +0.017 A 
ATOM     16  C   UNL     1       3.071   7.659   1.247  0.00  0.00    +0.029 A 
ATOM     17 BR   UNL     1       4.703   6.911   4.980  0.00  0.00    -0.050 Br
ENDBRANCH   8  11
ENDBRANCH   4   8
BRANCH   1  18
ATOM     18  C   UNL     1       0.639   2.270  -0.695  0.00  0.00    +0.020 C 
BRANCH  18  20
ATOM     19  N   UNL     1       1.593   0.432  -2.049  0.00  0.00    -0.209 N 
ATOM     20  C   UNL     1       1.099   1.685  -2.006  0.00  0.00    +0.216 C 
ATOM     21  O   UNL     1       1.025   2.343  -3.022  0.00  0.00    -0.276 OA
ATOM     22  H   UNL     1       1.581  -0.195  -1.145  0.00  0.00    +0.177 HD
BRANCH  19  24
ATOM     23  C   UNL     1       2.467  -1.321  -3.325  0.00  0.00    +0.142 C 
ATOM     24  N   UNL     1       2.120  -0.073  -3.244  0.00  0.00    -0.188 NA
BRANCH  23  30
ATOM     25  C   UNL     1       2.489  -3.552  -2.214  0.00  0.00    +0.129 A 
ATOM     26  C   UNL     1       1.919  -4.475  -1.353  0.00  0.00    +0.046 A 
ATOM     27  C   UNL     1       0.739  -4.176  -0.698  0.00  0.00    +0.004 A 
ATOM     28  C   UNL     1       0.118  -2.955  -0.898  0.00  0.00    +0.001 A 
ATOM     29  C   UNL     1       0.671  -2.025  -1.752  0.00  0.00    +0.013 A 
ATOM     30  C   UNL     1       1.866  -2.313  -2.415  0.00  0.00    +0.036 A 
BRANCH  25  31
ATOM     31  O   UNL     1       3.649  -3.845  -2.857  0.00  0.00    -0.492 OA
BRANCH  31  33
ATOM     32  C   UNL     1       5.505  -5.285  -3.424  0.00  0.00    +0.048 C 
ATOM     33  C   UNL     1       4.170  -5.165  -2.686  0.00  0.00    +0.226 C 
ENDBRANCH  31  33
ENDBRANCH  25  31
ENDBRANCH  23  30
ENDBRANCH  19  24
ENDBRANCH  18  20
ENDBRANCH   1  18
TORSDOF 8
