REMARK  Name = ZINC35142328
REMARK  14 active torsions:
REMARK  status: ('A' for Active; 'I' for Inactive)
REMARK    1  A    between atoms: C_1  and  C_2
REMARK    2  A    between atoms: C_7  and  N_8
REMARK    3  A    between atoms: C_9  and  N_17
REMARK    4  A    between atoms: C_11  and  C_13
REMARK    5  A    between atoms: C_13  and  C_14
REMARK    6  A    between atoms: C_13  and  C_15
REMARK    7  A    between atoms: C_13  and  C_16
REMARK    8  A    between atoms: C_18  and  C_20
REMARK    9  A    between atoms: C_20  and  N_21
REMARK   10  A    between atoms: N_21  and  C_22
REMARK   11  A    between atoms: C_23  and  C_25
REMARK   12  A    between atoms: C_25  and  C_26
REMARK   13  A    between atoms: C_25  and  C_27
REMARK   14  A    between atoms: C_25  and  C_28
REMARK                            x       y       z     vdW  Elec       q    Type
REMARK                         _______ _______ _______ _____ _____    ______ ____
ROOT
ATOM      1  N   UNL     1      -1.065  -0.837   2.362  0.00  0.00    -0.218 N 
ATOM      2  C   UNL     1      -0.680  -1.215   3.611  0.00  0.00    +0.129 A 
ATOM      3  C   UNL     1      -1.015  -0.209   4.463  0.00  0.00    +0.069 A 
ATOM      4  C   UNL     1      -1.618   0.805   3.714  0.00  0.00    +0.071 A 
ATOM      5  N   UNL     1      -1.644   0.435   2.459  0.00  0.00    -0.169 NA
ENDROOT
BRANCH   1  12
ATOM      6  C   UNL     1      -3.303  -1.102   0.622  0.00  0.00    +0.046 C 
ATOM      7  C   UNL     1      -1.972  -1.738   0.311  0.00  0.00    -0.025 A 
ATOM      8  C   UNL     1      -1.811  -2.470  -0.850  0.00  0.00    +0.005 A 
ATOM      9  C   UNL     1      -0.591  -3.054  -1.136  0.00  0.00    +0.000 A 
ATOM     10  C   UNL     1       0.471  -2.907  -0.263  0.00  0.00    +0.002 A 
ATOM     11  C   UNL     1       0.316  -2.177   0.899  0.00  0.00    +0.028 A 
ATOM     12  C   UNL     1      -0.906  -1.584   1.187  0.00  0.00    +0.070 A 
ENDBRANCH   1  12
BRANCH   4  13
ATOM     13  C   UNL     1      -2.145   2.108   4.259  0.00  0.00    +0.006 C 
ATOM     14  C   UNL     1      -0.973   3.037   4.581  0.00  0.00    +0.017 C 
ATOM     15  C   UNL     1      -3.047   2.769   3.215  0.00  0.00    +0.017 C 
ATOM     16  C   UNL     1      -2.949   1.841   5.533  0.00  0.00    +0.017 C 
ENDBRANCH   4  13
BRANCH   2  17
ATOM     17  N   UNL     1      -0.056  -2.414   3.954  0.00  0.00    -0.269 N 
ATOM     18  C   UNL     1       0.160  -2.715   5.250  0.00  0.00    +0.236 C 
ATOM     19  O   UNL     1      -0.189  -1.942   6.118  0.00  0.00    -0.274 OA
ATOM     20  H   UNL     1       0.222  -3.033   3.261  0.00  0.00    +0.156 HD
BRANCH  18  21
ATOM     21  C   UNL     1       0.833  -4.010   5.622  0.00  0.00    +0.203 C 
BRANCH  21  22
ATOM     22  N   UNL     1       0.950  -4.100   7.079  0.00  0.00    -0.295 N 
ATOM     23  C   UNL     1      -0.122  -4.716   7.864  0.00  0.00    +0.132 C 
ATOM     24  C   UNL     1       2.045  -3.615   7.699  0.00  0.00    +0.221 C 
ATOM     25  O   UNL     1       2.899  -3.040   7.058  0.00  0.00    -0.275 OA
BRANCH  24  26
ATOM     26  C   UNL     1       2.207  -3.787   9.187  0.00  0.00    +0.039 C 
ATOM     27  C   UNL     1       3.641  -3.433   9.588  0.00  0.00    +0.020 C 
ATOM     28  C   UNL     1       1.231  -2.862   9.917  0.00  0.00    +0.020 C 
ATOM     29  C   UNL     1       1.915  -5.240   9.567  0.00  0.00    +0.020 C 
ENDBRANCH  24  26
ENDBRANCH  21  22
ENDBRANCH  18  21
ENDBRANCH   2  17
TORSDOF 6
