REMARK  Name = ZINC20151115
REMARK  8 active torsions:
REMARK  status: ('A' for Active; 'I' for Inactive)
REMARK    1  A    between atoms: C_1  and  C_2
REMARK    2  A    between atoms: C_2  and  C_3
REMARK    3  A    between atoms: C_2  and  C_4
REMARK    4  A    between atoms: C_2  and  C_5
REMARK    5  A    between atoms: C_12  and  N_17
REMARK    6  A    between atoms: C_13  and  C_14
REMARK    7  A    between atoms: C_18  and  C_20
REMARK    8  A    between atoms: C_20  and  N_21
REMARK                            x       y       z     vdW  Elec       q    Type
REMARK                         _______ _______ _______ _____ _____    ______ ____
ROOT
ATOM      1  C   UNL     1      -3.581  -1.938  -3.309  0.00  0.00    -0.000 C 
ATOM      2  C   UNL     1      -3.111  -0.509  -3.598  0.00  0.00    +0.009 C 
ATOM      3  C   UNL     1      -2.084  -0.078  -2.550  0.00  0.00    +0.037 C 
ATOM      4  C   UNL     1      -2.668  -0.317  -1.163  0.00  0.00    -0.023 A 
ATOM      5  C   UNL     1      -3.718  -1.148  -0.984  0.00  0.00    -0.004 A 
ATOM      6  S   UNL     1      -4.038  -1.105   0.756  0.00  0.00    -0.077 S 
ATOM      7  C   UNL     1      -2.792  -0.003   1.243  0.00  0.00    +0.084 A 
ATOM      8  C   UNL     1      -2.163   0.311   0.046  0.00  0.00    +0.068 A 
ATOM      9  C   UNL     1      -4.442  -1.928  -2.038  0.00  0.00    +0.046 C 
ENDROOT
BRANCH   8  10
ATOM     10  C   UNL     1      -1.026   1.236   0.005  0.00  0.00    +0.244 C 
ATOM     11  O   UNL     1      -1.217   2.428  -0.154  0.00  0.00    -0.270 OA
ATOM     12  N   UNL     1       0.230   0.767   0.142  0.00  0.00    -0.325 N 
ATOM     13  H   UNL     1       1.083   1.461   0.111  0.00  0.00    +0.145 HD
ATOM     14  H   UNL     1       0.402  -0.310   0.286  0.00  0.00    +0.145 HD
ENDBRANCH   8  10
BRANCH   1  16
ATOM     15  C   UNL     1      -3.557  -2.444  -5.756  0.00  0.00    +0.011 C 
ATOM     16  C   UNL     1      -4.412  -2.452  -4.487  0.00  0.00    -0.035 C 
ATOM     17  C   UNL     1      -4.881  -3.879  -4.196  0.00  0.00    +0.011 C 
ATOM     18  C   UNL     1      -5.629  -1.546  -4.686  0.00  0.00    +0.011 C 
ENDBRANCH   1  16
BRANCH   7  19
ATOM     19  N   UNL     1      -2.496   0.455   2.518  0.00  0.00    -0.278 N 
ATOM     20  C   UNL     1      -3.225   0.035   3.571  0.00  0.00    +0.232 C 
ATOM     21  O   UNL     1      -4.139  -0.744   3.403  0.00  0.00    -0.274 OA
ATOM     22  H   UNL     1      -1.667   1.162   2.670  0.00  0.00    +0.155 HD
BRANCH  20  23
ATOM     23  C   UNL     1      -2.904   0.533   4.956  0.00  0.00    +0.180 C 
BRANCH  23  24
ATOM     24  N   UNL     1      -3.924   0.053   5.898  0.00  0.00    -0.298 NA
ATOM     25  C   UNL     1      -3.521   0.311   7.287  0.00  0.00    +0.066 C 
ATOM     26  C   UNL     1      -4.570  -0.274   8.237  0.00  0.00    -0.067 C 
ATOM     27  N   UNL     1      -5.878   0.331   7.949  0.00  0.00    +0.381 N 
ATOM     28  C   UNL     1      -6.281   0.072   6.560  0.00  0.00    -0.067 C 
ATOM     29  C   UNL     1      -5.232   0.657   5.611  0.00  0.00    +0.066 C 
ATOM     30  H   UNL     1      -6.636  -0.097   8.623  0.00  0.00    -0.086 HD
ATOM     31  H   UNL     1      -5.822   1.418   8.105  0.00  0.00    -0.086 HD
ENDBRANCH  23  24
ENDBRANCH  20  23
ENDBRANCH   7  19
TORSDOF 5
