REMARK  Name = ZINC34774120
REMARK  6 active torsions:
REMARK  status: ('A' for Active; 'I' for Inactive)
REMARK    1  A    between atoms: C_1  and  S_2
REMARK    2  A    between atoms: S_2  and  C_3
REMARK    3  A    between atoms: C_7  and  C_12
REMARK    4  A    between atoms: N_21  and  C_24
REMARK    5  A    between atoms: C_24  and  C_25
REMARK    6  A    between atoms: N_27  and  C_28
REMARK                            x       y       z     vdW  Elec       q    Type
REMARK                         _______ _______ _______ _____ _____    ______ ____
ROOT
ATOM      1  C   UNL     1       0.768  -0.018  -3.362  0.00  0.00    +0.191 A 
ATOM      2  N   UNL     1       1.019  -1.285  -3.671  0.00  0.00    -0.206 NA
ATOM      3  C   UNL     1       2.166  -1.868  -3.365  0.00  0.00    +0.134 A 
ATOM      4  C   UNL     1       3.167  -1.123  -2.685  0.00  0.00    +0.055 A 
ATOM      5  C   UNL     1       4.496  -1.537  -2.245  0.00  0.00    +0.002 A 
ATOM      6  C   UNL     1       5.281  -0.637  -1.608  0.00  0.00    +0.056 A 
ATOM      7  S   UNL     1       4.274   0.833  -1.560  0.00  0.00    -0.076 S 
ATOM      8  C   UNL     1       2.834   0.214  -2.389  0.00  0.00    +0.115 A 
ATOM      9  N   UNL     1       1.667   0.727  -2.732  0.00  0.00    -0.215 NA
ATOM     10  N   UNL     1       2.389  -3.190  -3.704  0.00  0.00    -0.318 N 
ATOM     11  C   UNL     1       3.292  -3.546  -4.810  0.00  0.00    +0.088 C 
ATOM     12  C   UNL     1       2.563  -4.523  -5.737  0.00  0.00    -0.059 C 
ATOM     13  N   UNL     1       2.080  -5.670  -4.956  0.00  0.00    +0.387 N 
ATOM     14  C   UNL     1       1.075  -5.224  -3.983  0.00  0.00    -0.059 C 
ATOM     15  C   UNL     1       1.735  -4.281  -2.965  0.00  0.00    +0.088 C 
ATOM     16  H   UNL     1       2.856  -6.092  -4.468  0.00  0.00    -0.081 HD
ENDROOT
BRANCH   5  17
ATOM     17  C   UNL     1       4.976  -2.917  -2.491  0.00  0.00    -0.017 A 
ATOM     18  C   UNL     1       4.285  -4.005  -1.959  0.00  0.00    +0.008 A 
ATOM     19  C   UNL     1       4.736  -5.287  -2.192  0.00  0.00    +0.001 A 
ATOM     20  C   UNL     1       5.873  -5.496  -2.952  0.00  0.00    +0.000 A 
ATOM     21  C   UNL     1       6.564  -4.421  -3.483  0.00  0.00    +0.001 A 
ATOM     22  C   UNL     1       6.119  -3.134  -3.261  0.00  0.00    +0.008 A 
ENDBRANCH   5  17
BRANCH   1  24
ATOM     23  C   UNL     1      -0.675   2.397  -3.202  0.00  0.00    +0.093 C 
ATOM     24  S   UNL     1      -0.784   0.689  -3.804  0.00  0.00    -0.089 S 
ENDBRANCH   1  24
BRANCH  13  25
ATOM     25  C   UNL     1       1.479  -6.658  -5.861  0.00  0.00    +0.019 C 
BRANCH  25  26
ATOM     26  C   UNL     1       1.094  -7.887  -5.079  0.00  0.00    +0.197 C 
ATOM     27  O   UNL     1       1.301  -7.935  -3.885  0.00  0.00    -0.278 OA
ATOM     28  N   UNL     1       0.520  -8.933  -5.706  0.00  0.00    -0.314 N 
ATOM     29  H   UNL     1       0.355  -8.895  -6.661  0.00  0.00    +0.149 HD
BRANCH  28  30
ATOM     30  C   UNL     1       0.146 -10.128  -4.945  0.00  0.00    +0.073 C 
ATOM     31  C   UNL     1       1.358 -11.054  -4.822  0.00  0.00    +0.022 C 
ATOM     32  C   UNL     1       0.967 -12.302  -4.028  0.00  0.00    +0.002 C 
ATOM     33  C   UNL     1      -0.164 -13.035  -4.753  0.00  0.00    +0.000 C 
ATOM     34  C   UNL     1      -1.375 -12.108  -4.875  0.00  0.00    +0.002 C 
ATOM     35  C   UNL     1      -0.985 -10.860  -5.670  0.00  0.00    +0.022 C 
ENDBRANCH  28  30
ENDBRANCH  25  26
ENDBRANCH  13  25
TORSDOF 5
