REMARK  Name = ZINC16577459
REMARK  6 active torsions:
REMARK  status: ('A' for Active; 'I' for Inactive)
REMARK    1  A    between atoms: C_1  and  C_2
REMARK    2  A    between atoms: C_2  and  C_25
REMARK    3  A    between atoms: C_7  and  C_24
REMARK    4  A    between atoms: C_8  and  S_12
REMARK    5  A    between atoms: S_12  and  C_13
REMARK    6  A    between atoms: C_14  and  O_23
REMARK                            x       y       z     vdW  Elec       q    Type
REMARK                         _______ _______ _______ _____ _____    ______ ____
ROOT
ATOM      1  S   UNL     1       1.068   1.448   2.747  0.00  0.00    -0.089 S 
ENDROOT
BRANCH   1   8
ATOM      2  C   UNL     1      -0.236   2.988   4.816  0.00  0.00    +0.012 C 
ATOM      3  C   UNL     1       1.009   2.928   5.704  0.00  0.00    -0.019 C 
ATOM      4  C   UNL     1       2.075   4.006   5.297  0.00  0.00    +0.063 C 
ATOM      5  C   UNL     1       3.288   3.555   6.167  0.00  0.00    +0.012 C 
ATOM      6  C   UNL     1       3.176   2.014   6.224  0.00  0.00    +0.009 C 
ATOM      7  C   UNL     1       1.909   1.685   5.375  0.00  0.00    -0.007 C 
ATOM      8  C   UNL     1       2.328   2.025   3.912  0.00  0.00    +0.126 C 
ATOM      9  C   UNL     1       2.427   3.543   3.876  0.00  0.00    +0.151 C 
ATOM     10  O   UNL     1       2.720   4.236   2.932  0.00  0.00    -0.296 OA
ATOM     11  C   UNL     1       1.294   0.302   5.595  0.00  0.00    +0.013 C 
ATOM     12  C   UNL     1       0.652   3.004   7.190  0.00  0.00    +0.012 C 
ENDBRANCH   1   8
BRANCH   1  13
ATOM     13  C   UNL     1       1.867   1.824   1.222  0.00  0.00    +0.160 A 
ATOM     14  C   UNL     1       1.220   1.531  -0.001  0.00  0.00    +0.246 A 
ATOM     15  N   UNL     1       1.802   1.811  -1.147  0.00  0.00    -0.209 NA
ATOM     16  C   UNL     1       3.020   2.373  -1.156  0.00  0.00    +0.093 A 
ATOM     17  C   UNL     1       3.661   2.682  -2.366  0.00  0.00    +0.030 A 
ATOM     18  C   UNL     1       4.898   3.253  -2.350  0.00  0.00    +0.002 A 
ATOM     19  C   UNL     1       5.538   3.537  -1.147  0.00  0.00    +0.002 A 
ATOM     20  C   UNL     1       4.945   3.251   0.046  0.00  0.00    +0.030 A 
ATOM     21  C   UNL     1       3.671   2.662   0.067  0.00  0.00    +0.091 A 
ATOM     22  N   UNL     1       3.067   2.370   1.228  0.00  0.00    -0.234 NA
BRANCH  14  23
ATOM     23  O   UNL     1      -0.011   0.963   0.007  0.00  0.00    -0.491 OA
ATOM     24  H   UNL     1       0.002  -0.004   0.002  0.00  0.00    +0.294 HD
ENDBRANCH  14  23
ENDBRANCH   1  13
TORSDOF 3
