REMARK  Name = ZINC01504146
REMARK  5 active torsions:
REMARK  status: ('A' for Active; 'I' for Inactive)
REMARK    1  A    between atoms: C_9  and  N_12
REMARK    2  A    between atoms: N_12  and  N_13
REMARK    3  A    between atoms: N_13  and  C_14
REMARK    4  A    between atoms: C_14  and  N_16
REMARK    5  A    between atoms: N_16  and  N_17
REMARK                            x       y       z     vdW  Elec       q    Type
REMARK                         _______ _______ _______ _____ _____    ______ ____
ROOT
ATOM      1  C   UNL     1       5.369  -4.183   1.921  0.00  0.00    +0.164 C 
ATOM      2  S   UNL     1       6.780  -5.084   1.563  0.00  0.00    -0.016 S 
ENDROOT
BRANCH   1   3
ATOM      3  N   UNL     1       4.923  -3.255   1.051  0.00  0.00    -0.259 N 
ATOM      4  H   UNL     1       5.402  -3.097   0.222  0.00  0.00    +0.168 HD
BRANCH   3   5
ATOM      5  N   UNL     1       3.797  -2.536   1.337  0.00  0.00    -0.214 NA
ATOM      6  H   UNL     1       3.885  -2.062   2.223  0.00  0.00    +0.147 HD
BRANCH   5  15
ATOM      7  C   UNL     1       0.754   2.219   0.737  0.00  0.00    +0.001 A 
ATOM      8  C   UNL     1       1.996   2.799   0.953  0.00  0.00    +0.002 A 
ATOM      9  C   UNL     1       3.143   2.038   0.910  0.00  0.00    +0.023 A 
ATOM     10  C   UNL     1       3.070   0.670   0.647  0.00  0.00    +0.039 A 
ATOM     11  C   UNL     1       1.814   0.084   0.428  0.00  0.00    +0.042 A 
ATOM     12  C   UNL     1       0.657   0.872   0.476  0.00  0.00    +0.013 A 
ATOM     13  C   UNL     1       2.000  -1.352   0.174  0.00  0.00    +0.201 C 
ATOM     14  O   UNL     1       1.139  -2.175  -0.055  0.00  0.00    -0.288 OA
ATOM     15  C   UNL     1       3.492  -1.585   0.259  0.00  0.00    +0.228 C 
ATOM     16  N   UNL     1       4.080  -0.276   0.556  0.00  0.00    -0.321 N 
ATOM     17  H   UNL     1       5.027  -0.098   0.670  0.00  0.00    +0.148 HD
ENDBRANCH   5  15
ENDBRANCH   3   5
ENDBRANCH   1   3
BRANCH   1  18
ATOM     18  N   UNL     1       4.703  -4.402   3.072  0.00  0.00    -0.217 N 
ATOM     19  H   UNL     1       5.024  -5.071   3.698  0.00  0.00    +0.176 HD
BRANCH  18  20
ATOM     20  N   UNL     1       3.548  -3.665   3.365  0.00  0.00    -0.175 NA
ATOM     21  C   UNL     1       2.962  -3.801   4.530  0.00  0.00    +0.152 C 
ATOM     22  C   UNL     1       3.467  -4.532   5.715  0.00  0.00    +0.028 A 
ATOM     23  C   UNL     1       4.629  -5.255   5.964  0.00  0.00    +0.012 A 
ATOM     24  C   UNL     1       4.821  -5.838   7.200  0.00  0.00    +0.001 A 
ATOM     25  C   UNL     1       3.860  -5.703   8.188  0.00  0.00    +0.002 A 
ATOM     26  C   UNL     1       2.704  -4.987   7.951  0.00  0.00    +0.024 A 
ATOM     27  C   UNL     1       2.493  -4.393   6.712  0.00  0.00    +0.043 A 
ATOM     28  N   UNL     1       1.438  -3.633   6.219  0.00  0.00    -0.280 N 
ATOM     29  C   UNL     1       1.658  -3.252   4.949  0.00  0.00    +0.269 C 
ATOM     30  O   UNL     1       0.912  -2.576   4.265  0.00  0.00    -0.268 OA
ATOM     31  H   UNL     1       0.645  -3.403   6.729  0.00  0.00    +0.155 HD
ENDBRANCH  18  20
ENDBRANCH   1  18
TORSDOF 5
