REMARK  Name = ZINC20883331
REMARK  8 active torsions:
REMARK  status: ('A' for Active; 'I' for Inactive)
REMARK    1  A    between atoms: C_1  and  C_2
REMARK    2  A    between atoms: C_2  and  C_3
REMARK    3  A    between atoms: C_2  and  O_4
REMARK    4  A    between atoms: O_4  and  C_5
REMARK    5  A    between atoms: C_8  and  C_11
REMARK    6  A    between atoms: C_16  and  C_26
REMARK    7  A    between atoms: C_29  and  O_35
REMARK    8  A    between atoms: C_30  and  N_32
REMARK                            x       y       z     vdW  Elec       q    Type
REMARK                         _______ _______ _______ _____ _____    ______ ____
ROOT
ATOM      1  C   UNL     1       7.411  -0.295  -0.186  0.00  0.00    +0.032 C 
ATOM      2  C   UNL     1       7.927   0.820  -1.093  0.00  0.00    +0.059 C 
ATOM      3  C   UNL     1       6.913   1.950  -1.157  0.00  0.00    +0.017 C 
ATOM      4  C   UNL     1       6.133   2.226  -0.102  0.00  0.00    +0.036 C 
ATOM      5  C   UNL     1       5.099   3.323  -0.022  0.00  0.00    +0.136 C 
ATOM      6  N   UNL     1       5.154   4.279  -1.107  0.00  0.00    -0.331 N 
ATOM      7  C   UNL     1       4.886   3.891  -2.419  0.00  0.00    +0.049 A 
ATOM      8  C   UNL     1       3.791   4.384  -3.111  0.00  0.00    +0.025 A 
ATOM      9  C   UNL     1       3.539   3.933  -4.395  0.00  0.00    +0.002 A 
ATOM     10  C   UNL     1       4.369   2.995  -4.983  0.00  0.00    +0.002 A 
ATOM     11  C   UNL     1       5.473   2.514  -4.301  0.00  0.00    +0.025 A 
ATOM     12  C   UNL     1       5.739   2.982  -3.026  0.00  0.00    +0.052 A 
ATOM     13  N   UNL     1       6.890   2.630  -2.331  0.00  0.00    -0.316 N 
ATOM     14  C   UNL     1       6.237   1.456   1.085  0.00  0.00    +0.163 C 
ATOM     15  O   UNL     1       5.532   1.740   2.034  0.00  0.00    -0.292 OA
ATOM     16  C   UNL     1       7.187   0.303   1.208  0.00  0.00    +0.088 C 
ATOM     17  H   UNL     1       5.411   5.329  -0.903  0.00  0.00    +0.147 HD
ATOM     18  H   UNL     1       7.833   2.946  -2.802  0.00  0.00    +0.152 HD
ENDROOT
BRANCH   1  22
ATOM     19  C   UNL     1      10.299  -3.437   0.034  0.00  0.00    +0.121 A 
ATOM     20  C   UNL     1       9.026  -3.696  -0.454  0.00  0.00    +0.046 A 
ATOM     21  C   UNL     1       8.095  -2.679  -0.524  0.00  0.00    +0.007 A 
ATOM     22  C   UNL     1       8.429  -1.403  -0.109  0.00  0.00    -0.043 A 
ATOM     23  C   UNL     1       9.699  -1.141   0.373  0.00  0.00    +0.007 A 
ATOM     24  C   UNL     1      10.633  -2.157   0.450  0.00  0.00    +0.046 A 
BRANCH  19  25
ATOM     25  O   UNL     1      11.218  -4.436   0.103  0.00  0.00    -0.489 OA
BRANCH  25  27
ATOM     26  C   UNL     1      12.098  -6.476  -0.849  0.00  0.00    +0.051 C 
ATOM     27  C   UNL     1      10.842  -5.702  -0.443  0.00  0.00    +0.167 C 
ATOM     28  C   UNL     1      10.068  -6.502   0.608  0.00  0.00    +0.051 C 
ENDBRANCH  25  27
ENDBRANCH  19  25
ENDBRANCH   1  22
BRANCH   5  29
ATOM     29  C   UNL     1       3.731   2.691  -0.013  0.00  0.00    -0.020 A 
ATOM     30  C   UNL     1       3.284   1.997  -1.122  0.00  0.00    +0.009 A 
ATOM     31  C   UNL     1       2.031   1.417  -1.116  0.00  0.00    +0.048 A 
ATOM     32  C   UNL     1       1.221   1.529   0.005  0.00  0.00    +0.147 A 
ATOM     33  C   UNL     1       1.670   2.229   1.115  0.00  0.00    +0.168 A 
ATOM     34  C   UNL     1       2.926   2.804   1.106  0.00  0.00    +0.042 A 
BRANCH  33  35
ATOM     35  N   UNL     1       0.806   2.356   2.310  0.00  0.00    +0.060 N 
ATOM     36  O   UNL     1       1.201   2.971   3.285  0.00  0.00    -0.126 OA
ATOM     37  O   UNL     1      -0.299   1.845   2.320  0.00  0.00    -0.126 OA
ENDBRANCH  33  35
BRANCH  32  38
ATOM     38  O   UNL     1      -0.013   0.959   0.013  0.00  0.00    -0.504 OA
ATOM     39  H   UNL     1      -0.654   1.048   0.903  0.00  0.00    +0.292 HD
ENDBRANCH  32  38
ENDBRANCH   5  29
TORSDOF 6
