REMARK  Name = ZINC39531901
REMARK  10 active torsions:
REMARK  status: ('A' for Active; 'I' for Inactive)
REMARK    1  A    between atoms: C_1  and  C_2
REMARK    2  A    between atoms: C_2  and  O_3
REMARK    3  A    between atoms: O_3  and  C_4
REMARK    4  A    between atoms: N_7  and  C_11
REMARK    5  A    between atoms: C_11  and  C_13
REMARK    6  A    between atoms: C_11  and  C_22
REMARK    7  A    between atoms: C_13  and  N_14
REMARK    8  A    between atoms: N_14  and  C_15
REMARK    9  A    between atoms: C_20  and  O_21
REMARK   10  A    between atoms: C_25  and  C_28
REMARK                            x       y       z     vdW  Elec       q    Type
REMARK                         _______ _______ _______ _____ _____    ______ ____
ROOT
ATOM      1  C   UNL     1      -4.326  -4.209  -0.708  0.00  0.00    -0.020 C 
ENDROOT
BRANCH   1   4
ATOM      2  C   UNL     1      -1.216  -2.215  -0.043  0.00  0.00    +0.169 C 
ATOM      3  C   UNL     1      -2.694  -2.493  -0.325  0.00  0.00    -0.029 C 
ATOM      4  N   UNL     1      -2.910  -3.943  -0.420  0.00  0.00    +0.389 N 
ATOM      5  C   UNL     1      -2.542  -4.579   0.852  0.00  0.00    -0.062 C 
ATOM      6  C   UNL     1      -1.062  -4.318   1.143  0.00  0.00    +0.065 C 
ATOM      7  N   UNL     1      -0.828  -2.869   1.215  0.00  0.00    -0.295 NA
ATOM      8  H   UNL     1       0.134  -2.669   1.444  0.00  0.00    +0.124 HD
ATOM      9  H   UNL     1      -2.340  -4.320  -1.162  0.00  0.00    -0.081 HD
BRANCH   2  10
ATOM     10  O   UNL     1      -1.010  -0.805   0.070  0.00  0.00    -0.364 OA
BRANCH  10  12
ATOM     11  C   UNL     1       0.463   1.110   0.127  0.00  0.00    +0.034 C 
ATOM     12  C   UNL     1       0.362  -0.411  -0.004  0.00  0.00    +0.158 C 
ENDBRANCH  10  12
ENDBRANCH   2  10
ENDBRANCH   1   4
BRANCH   1  13
ATOM     13  C   UNL     1      -4.555  -5.697  -0.769  0.00  0.00    -0.059 A 
ATOM     14  C   UNL     1      -3.617  -6.517  -1.369  0.00  0.00    +0.002 A 
ATOM     15  C   UNL     1      -3.827  -7.882  -1.424  0.00  0.00    +0.003 A 
ATOM     16  C   UNL     1      -4.975  -8.428  -0.880  0.00  0.00    -0.050 A 
ATOM     17  C   UNL     1      -5.912  -7.608  -0.280  0.00  0.00    +0.003 A 
ATOM     18  C   UNL     1      -5.700  -6.243  -0.221  0.00  0.00    +0.002 A 
ATOM     19  C   UNL     1      -5.204  -9.916  -0.942  0.00  0.00    +0.044 C 
ENDBRANCH   1  13
BRANCH   1  20
ATOM     20  C   UNL     1      -4.699  -3.580  -2.052  0.00  0.00    +0.091 C 
BRANCH  20  21
ATOM     21  N   UNL     1      -6.129  -3.777  -2.303  0.00  0.00    -0.342 N 
ATOM     22  H   UNL     1      -6.690  -4.182  -1.622  0.00  0.00    +0.146 HD
BRANCH  21  23
ATOM     23  C   UNL     1      -6.687  -3.382  -3.524  0.00  0.00    +0.069 A 
ATOM     24  C   UNL     1      -5.886  -2.808  -4.501  0.00  0.00    +0.026 A 
ATOM     25  C   UNL     1      -6.439  -2.419  -5.706  0.00  0.00    +0.002 A 
ATOM     26  C   UNL     1      -7.789  -2.599  -5.942  0.00  0.00    +0.004 A 
ATOM     27  C   UNL     1      -8.594  -3.170  -4.973  0.00  0.00    +0.047 A 
ATOM     28  C   UNL     1      -8.046  -3.568  -3.764  0.00  0.00    +0.138 A 
BRANCH  28  29
ATOM     29  O   UNL     1      -8.836  -4.134  -2.812  0.00  0.00    -0.505 OA
ATOM     30  H   UNL     1      -9.233  -3.499  -2.201  0.00  0.00    +0.292 HD
ENDBRANCH  28  29
ENDBRANCH  21  23
ENDBRANCH  20  21
ENDBRANCH   1  20
TORSDOF 8
