REMARK  Name = ZINC32094512
REMARK  6 active torsions:
REMARK  status: ('A' for Active; 'I' for Inactive)
REMARK    1  A    between atoms: C_6  and  N_7
REMARK    2  A    between atoms: C_8  and  C_10
REMARK    3  A    between atoms: C_11  and  C_12
REMARK    4  A    between atoms: C_15  and  C_19
REMARK    5  A    between atoms: C_19  and  C_21
REMARK    6  A    between atoms: C_19  and  N_24
REMARK                            x       y       z     vdW  Elec       q    Type
REMARK                         _______ _______ _______ _____ _____    ______ ____
ROOT
ATOM      1  C   UNL     1      -0.335  -5.964  -1.822  0.00  0.00    +0.025 A 
ATOM      2  C   UNL     1       0.533  -5.473  -0.873  0.00  0.00    +0.028 A 
ATOM      3  C   UNL     1       0.330  -4.208  -0.331  0.00  0.00    +0.047 A 
ATOM      4  C   UNL     1      -0.766  -3.438  -0.759  0.00  0.00    +0.004 A 
ATOM      5  C   UNL     1      -1.641  -3.943  -1.722  0.00  0.00    +0.033 A 
ATOM      6  C   UNL     1      -1.423  -5.203  -2.249  0.00  0.00    +0.034 A 
ATOM      7  C   UNL     1      -0.696  -2.181  -0.009  0.00  0.00    -0.025 A 
ATOM      8  C   UNL     1       0.385  -2.257   0.784  0.00  0.00    +0.086 A 
ATOM      9  N   UNL     1       1.008  -3.462   0.610  0.00  0.00    -0.360 N 
ATOM     10  H   UNL     1       1.908  -3.871   1.091  0.00  0.00    +0.165 HD
ENDROOT
BRANCH   6  11
ATOM     11  N   UNL     1      -2.296  -5.716  -3.215  0.00  0.00    -0.282 N 
ATOM     12  C   UNL     1      -2.544  -7.040  -3.264  0.00  0.00    +0.241 C 
ATOM     13  O   UNL     1      -2.074  -7.778  -2.420  0.00  0.00    -0.270 OA
ATOM     14  H   UNL     1      -2.781  -5.039  -3.933  0.00  0.00    +0.155 HD
BRANCH  12  15
ATOM     15  C   UNL     1      -3.385  -7.594  -4.343  0.00  0.00    +0.075 C 
ATOM     16  C   UNL     1      -3.631  -8.913  -4.393  0.00  0.00    +0.101 C 
BRANCH  16  17
ATOM     17  C   UNL     1      -4.472  -9.466  -5.471  0.00  0.00    +0.380 C 
ATOM     18  O   UNL     1      -4.941  -8.729  -6.314  0.00  0.00    -0.241 OA
ATOM     19  O   UNL     1      -4.719 -10.790  -5.521  0.00  0.00    -0.241 OA
ENDBRANCH  16  17
ENDBRANCH  12  15
ENDBRANCH   6  11
BRANCH   7  20
ATOM     20  C   UNL     1      -1.652  -1.021  -0.113  0.00  0.00    +0.080 C 
BRANCH  20  21
ATOM     21  N   UNL     1      -0.965   0.216   0.282  0.00  0.00    +0.393 N 
ATOM     22  C   UNL     1       0.188   0.476  -0.583  0.00  0.00    -0.066 C 
ATOM     23  C   UNL     1       1.135   1.470   0.099  0.00  0.00    +0.050 C 
ATOM     24  S   UNL     1       0.237   3.031   0.358  0.00  0.00    -0.164 S 
ATOM     25  C   UNL     1      -1.299   2.482   1.163  0.00  0.00    +0.050 C 
ATOM     26  C   UNL     1      -1.900   1.343   0.330  0.00  0.00    -0.066 C 
ATOM     27  H   UNL     1      -0.572   0.090   1.302  0.00  0.00    -0.080 HD
ENDBRANCH  20  21
BRANCH  20  28
ATOM     28  C   UNL     1      -2.828  -1.256   0.799  0.00  0.00    +0.347 C 
ATOM     29  O   UNL     1      -2.796  -0.861   1.940  0.00  0.00    -0.248 OA
ATOM     30  O   UNL     1      -3.912  -1.904   0.344  0.00  0.00    -0.248 OA
ENDBRANCH  20  28
ENDBRANCH   7  20
TORSDOF 6
