REMARK  Name = ZINC59098854
REMARK  5 active torsions:
REMARK  status: ('A' for Active; 'I' for Inactive)
REMARK    1  A    between atoms: C_2  and  N_16
REMARK    2  A    between atoms: C_9  and  C_11
REMARK    3  A    between atoms: C_11  and  C_12
REMARK    4  A    between atoms: C_12  and  C_13
REMARK    5  A    between atoms: C_13  and  O_14
REMARK                            x       y       z     vdW  Elec       q    Type
REMARK                         _______ _______ _______ _____ _____    ______ ____
ROOT
ATOM      1  C   UNL     1      -0.017   1.383   0.010  0.00  0.00    +0.050 A 
ATOM      2  C   UNL     1       1.178   2.085   0.002  0.00  0.00    +0.028 A 
ATOM      3  C   UNL     1       2.393   1.404  -0.013  0.00  0.00    +0.040 A 
ATOM      4  C   UNL     1       2.424   0.038  -0.021  0.00  0.00    +0.047 A 
ATOM      5  C   UNL     1       1.229  -0.688  -0.013  0.00  0.00    +0.103 A 
ATOM      6  C   UNL     1       0.002  -0.004   0.002  0.00  0.00    +0.069 A 
ATOM      7  N   UNL     1      -0.977  -0.978   0.006  0.00  0.00    -0.342 N 
ATOM      8  H   UNL     1      -1.935  -0.829   0.015  0.00  0.00    +0.167 HD
ATOM      9  C   UNL     1      -0.347  -2.185  -0.007  0.00  0.00    +0.108 A 
ATOM     10  N   UNL     1       0.942  -2.016  -0.018  0.00  0.00    -0.231 NA
ATOM     11 BR   UNL     1       4.083  -0.870  -0.042  0.00  0.00    -0.048 Br
ENDROOT
BRANCH   2  12
ATOM     12  N   UNL     1       1.164   3.483   0.009  0.00  0.00    -0.358 N 
ATOM     13  H   UNL     1       0.319   3.959   0.019  0.00  0.00    +0.142 HD
ATOM     14  H   UNL     1       1.999   3.976   0.004  0.00  0.00    +0.142 HD
ENDBRANCH   2  12
BRANCH   9  15
ATOM     15  C   UNL     1      -1.043  -3.522  -0.008  0.00  0.00    +0.076 C 
BRANCH  15  16
ATOM     16  C   UNL     1      -0.556  -4.349  -1.199  0.00  0.00    +0.035 C 
BRANCH  16  17
ATOM     17  C   UNL     1      -1.263  -5.707  -1.200  0.00  0.00    +0.156 C 
BRANCH  17  18
ATOM     18  O   UNL     1      -0.808  -6.480  -2.312  0.00  0.00    -0.395 OA
ATOM     19  H   UNL     1      -1.215  -7.355  -2.376  0.00  0.00    +0.209 HD
ENDBRANCH  17  18
ENDBRANCH  16  17
ENDBRANCH  15  16
ENDBRANCH   9  15
TORSDOF 5
