REMARK  Name = ZINC06213279
REMARK  7 active torsions:
REMARK  status: ('A' for Active; 'I' for Inactive)
REMARK    1  A    between atoms: C_1  and  C_2
REMARK    2  A    between atoms: C_2  and  C_21
REMARK    3  A    between atoms: N_3  and  N_4
REMARK    4  A    between atoms: C_7  and  S_10
REMARK    5  A    between atoms: S_10  and  C_11
REMARK    6  A    between atoms: C_11  and  C_12
REMARK    7  A    between atoms: N_14  and  C_15
REMARK                            x       y       z     vdW  Elec       q    Type
REMARK                         _______ _______ _______ _____ _____    ______ ____
ROOT
ATOM      1  N   UNL     1      -1.050  -1.499   1.398  0.00  0.00    -0.205 N 
ATOM      2  C   UNL     1      -1.618  -1.739   2.636  0.00  0.00    +0.232 A 
ATOM      3  N   UNL     1      -1.498  -0.977   3.703  0.00  0.00    -0.186 NA
ATOM      4  C   UNL     1      -2.180  -1.516   4.720  0.00  0.00    +0.211 A 
ATOM      5  N   UNL     1      -2.743  -2.628   4.313  0.00  0.00    -0.144 NA
ATOM      6  N   UNL     1      -2.397  -2.792   2.962  0.00  0.00    -0.245 N 
ATOM      7  H   UNL     1      -1.200  -2.120   0.668  0.00  0.00    +0.177 HD
ATOM      8  H   UNL     1      -2.663  -3.520   2.378  0.00  0.00    +0.192 HD
ENDROOT
BRANCH   1  11
ATOM      9  C   UNL     1       1.175   1.043  -0.174  0.00  0.00    +0.068 C 
ATOM     10  C   UNL     1       0.189  -0.080   0.013  0.00  0.00    +0.063 C 
ATOM     11  N   UNL     1      -0.259  -0.360   1.199  0.00  0.00    -0.184 NA
BRANCH  10  12
ATOM     12  C   UNL     1      -0.269  -0.861  -1.151  0.00  0.00    -0.002 A 
ATOM     13  C   UNL     1      -1.596  -1.328  -1.201  0.00  0.00    +0.010 A 
ATOM     14  C   UNL     1      -2.040  -2.049  -2.262  0.00  0.00    +0.009 A 
ATOM     15  C   UNL     1      -1.171  -2.339  -3.330  0.00  0.00    -0.018 A 
ATOM     16  C   UNL     1      -1.608  -3.083  -4.438  0.00  0.00    +0.008 A 
ATOM     17  C   UNL     1      -0.745  -3.348  -5.457  0.00  0.00    +0.001 A 
ATOM     18  C   UNL     1       0.572  -2.892  -5.419  0.00  0.00    +0.001 A 
ATOM     19  C   UNL     1       1.032  -2.168  -4.363  0.00  0.00    +0.008 A 
ATOM     20  C   UNL     1       0.169  -1.874  -3.291  0.00  0.00    -0.017 A 
ATOM     21  C   UNL     1       0.609  -1.125  -2.190  0.00  0.00    +0.018 A 
ENDBRANCH  10  12
ENDBRANCH   1  11
BRANCH   4  22
ATOM     22  S   UNL     1      -2.302  -0.840   6.343  0.00  0.00    -0.075 S 
BRANCH  22  23
ATOM     23  C   UNL     1      -3.348  -2.025   7.233  0.00  0.00    +0.173 C 
BRANCH  23  24
ATOM     24  C   UNL     1      -3.535  -1.560   8.655  0.00  0.00    +0.227 C 
ATOM     25  O   UNL     1      -3.014  -0.531   9.030  0.00  0.00    -0.275 OA
ATOM     26  N   UNL     1      -4.282  -2.288   9.509  0.00  0.00    -0.285 N 
ATOM     27  H   UNL     1      -4.750  -3.076   9.193  0.00  0.00    +0.155 HD
BRANCH  26  28
ATOM     28  C   UNL     1      -4.381  -1.906  10.851  0.00  0.00    +0.033 A 
ATOM     29  C   UNL     1      -4.385  -2.870  11.851  0.00  0.00    +0.023 A 
ATOM     30  C   UNL     1      -4.484  -2.490  13.175  0.00  0.00    +0.002 A 
ATOM     31  C   UNL     1      -4.578  -1.150  13.506  0.00  0.00    +0.000 A 
ATOM     32  C   UNL     1      -4.575  -0.188  12.513  0.00  0.00    +0.002 A 
ATOM     33  C   UNL     1      -4.471  -0.561  11.187  0.00  0.00    +0.023 A 
ENDBRANCH  26  28
ENDBRANCH  23  24
ENDBRANCH  22  23
ENDBRANCH   4  22
TORSDOF 6
