REMARK  Name = ZINC36648061
REMARK  11 active torsions:
REMARK  status: ('A' for Active; 'I' for Inactive)
REMARK    1  A    between atoms: C_1  and  C_2
REMARK    2  A    between atoms: C_2  and  C_3
REMARK    3  A    between atoms: N_12  and  C_13
REMARK    4  A    between atoms: C_13  and  C_14
REMARK    5  A    between atoms: C_14  and  C_15
REMARK    6  A    between atoms: C_15  and  N_16
REMARK    7  A    between atoms: N_16  and  C_17
REMARK    8  A    between atoms: N_16  and  C_18
REMARK    9  A    between atoms: C_19  and  C_21
REMARK   10  A    between atoms: N_27  and  S_28
REMARK   11  A    between atoms: S_28  and  C_31
REMARK                            x       y       z     vdW  Elec       q    Type
REMARK                         _______ _______ _______ _____ _____    ______ ____
ROOT
ATOM      1  C   UNL     1       1.663  -1.588  -1.011  0.00  0.00    -0.021 A 
ATOM      2  C   UNL     1       1.232  -2.127  -2.195  0.00  0.00    +0.006 A 
ATOM      3  C   UNL     1       2.119  -2.690  -3.101  0.00  0.00    +0.001 A 
ATOM      4  C   UNL     1       3.469  -2.710  -2.803  0.00  0.00    +0.017 A 
ATOM      5  C   UNL     1       3.910  -2.173  -1.620  0.00  0.00    +0.041 A 
ATOM      6  C   UNL     1       3.037  -1.585  -0.676  0.00  0.00    +0.083 A 
ATOM      7  N   UNL     1       3.623  -1.095   0.438  0.00  0.00    -0.224 NA
ATOM      8  C   UNL     1       4.919  -1.153   0.636  0.00  0.00    +0.168 A 
ATOM      9  S   UNL     1       5.495  -1.980  -0.840  0.00  0.00    -0.052 S 
ATOM     10  N   UNL     1       5.654  -0.696   1.718  0.00  0.00    -0.249 N 
ATOM     11  C   UNL     1       5.029  -0.099   2.753  0.00  0.00    +0.240 C 
ATOM     12  O   UNL     1       3.818  -0.045   2.780  0.00  0.00    -0.273 OA
ENDROOT
BRANCH  11  13
ATOM     13  C   UNL     1       5.836   0.503   3.874  0.00  0.00    +0.166 C 
ATOM     14  C   UNL     1       5.544   2.004   3.970  0.00  0.00    +0.030 C 
ATOM     15  C   UNL     1       6.257   2.581   5.194  0.00  0.00    +0.003 C 
ATOM     16  C   UNL     1       5.727   1.905   6.461  0.00  0.00    +0.017 C 
ATOM     17  C   UNL     1       6.021   0.403   6.394  0.00  0.00    +0.110 C 
ATOM     18  N   UNL     1       5.465  -0.135   5.145  0.00  0.00    -0.164 NA
BRANCH  18  19
ATOM     19  S   UNL     1       4.436  -1.433   5.169  0.00  0.00    +0.068 S 
ATOM     20  O   UNL     1       4.503  -2.027   3.880  0.00  0.00    -0.152 OA
ATOM     21  O   UNL     1       4.724  -2.157   6.357  0.00  0.00    -0.152 OA
BRANCH  19  22
ATOM     22  C   UNL     1       2.802  -0.799   5.347  0.00  0.00    +0.143 A 
ATOM     23  C   UNL     1       1.868  -0.565   4.393  0.00  0.00    +0.036 A 
ATOM     24  C   UNL     1       0.638  -0.059   4.769  0.00  0.00    +0.010 A 
ATOM     25  C   UNL     1       0.401   0.186   6.081  0.00  0.00    +0.047 A 
ATOM     26  S   UNL     1       1.943  -0.308   6.833  0.00  0.00    -0.077 S 
ENDBRANCH  19  22
ENDBRANCH  18  19
ENDBRANCH  11  13
BRANCH   1  28
ATOM     27  C   UNL     1       0.571   0.521  -0.299  0.00  0.00    +0.009 C 
ATOM     28  C   UNL     1       0.663  -0.987  -0.057  0.00  0.00    +0.034 C 
ENDBRANCH   1  28
BRANCH  10  29
ATOM     29  C   UNL     1       7.109  -0.862   1.739  0.00  0.00    +0.114 C 
BRANCH  29  30
ATOM     30  C   UNL     1       7.770   0.345   1.071  0.00  0.00    +0.001 C 
BRANCH  30  31
ATOM     31  C   UNL     1       9.280   0.115   0.981  0.00  0.00    -0.078 C 
BRANCH  31  32
ATOM     32  N   UNL     1       9.914   1.274   0.339  0.00  0.00    +0.376 N 
ATOM     33  C   UNL     1      11.374   1.108   0.361  0.00  0.00    -0.097 C 
ATOM     34  C   UNL     1       9.454   1.377  -1.052  0.00  0.00    -0.097 C 
ATOM     35  H   UNL     1       9.664   2.114   0.839  0.00  0.00    -0.083 HD
ENDBRANCH  31  32
ENDBRANCH  30  31
ENDBRANCH  29  30
ENDBRANCH  10  29
TORSDOF 8
