REMARK  Name = ZINC40320260
REMARK  13 active torsions:
REMARK  status: ('A' for Active; 'I' for Inactive)
REMARK    1  A    between atoms: C_1  and  C_2
REMARK    2  A    between atoms: C_2  and  O_3
REMARK    3  A    between atoms: O_3  and  C_4
REMARK    4  A    between atoms: C_6  and  C_33
REMARK    5  A    between atoms: C_9  and  O_10
REMARK    6  A    between atoms: O_10  and  C_11
REMARK    7  A    between atoms: C_11  and  C_12
REMARK    8  A    between atoms: C_12  and  C_14
REMARK    9  A    between atoms: C_12  and  O_32
REMARK   10  A    between atoms: C_14  and  N_15
REMARK   11  A    between atoms: N_15  and  C_16
REMARK   12  A    between atoms: N_15  and  C_24
REMARK   13  A    between atoms: C_16  and  C_17
REMARK                            x       y       z     vdW  Elec       q    Type
REMARK                         _______ _______ _______ _____ _____    ______ ____
ROOT
ATOM      1  C   UNL     1      -7.499  -1.504   0.724  0.00  0.00    -0.043 C 
ENDROOT
BRANCH   1   2
ATOM      2  N   UNL     1      -8.726  -0.811   0.312  0.00  0.00    +0.387 N 
ATOM      3  H   UNL     1      -9.100  -0.294   1.094  0.00  0.00    -0.081 HD
BRANCH   2   4
ATOM      4  C   UNL     1      -8.420   0.117  -0.785  0.00  0.00    -0.045 C 
ATOM      5  C   UNL     1      -9.528   1.177  -0.894  0.00  0.00    +0.009 C 
ATOM      6  C   UNL     1      -9.387   1.953  -2.226  0.00  0.00    +0.164 C 
ATOM      7  S   UNL     1      -8.586   0.719  -3.330  0.00  0.00    -0.033 S 
ATOM      8  O   UNL     1      -7.310   1.206  -3.719  0.00  0.00    -0.174 OA
ATOM      9  O   UNL     1      -9.516   0.319  -4.327  0.00  0.00    -0.174 OA
ATOM     10  C   UNL     1      -8.362  -0.662  -2.131  0.00  0.00    +0.151 C 
ENDBRANCH   2   4
BRANCH   2  11
ATOM     11  C   UNL     1      -9.717  -1.796  -0.143  0.00  0.00    -0.042 C 
BRANCH  11  12
ATOM     12  C   UNL     1     -11.027  -1.103  -0.414  0.00  0.00    -0.063 A 
ATOM     13  C   UNL     1     -11.771  -0.595   0.635  0.00  0.00    +0.002 A 
ATOM     14  C   UNL     1     -12.972   0.041   0.387  0.00  0.00    +0.001 A 
ATOM     15  C   UNL     1     -13.432   0.170  -0.910  0.00  0.00    +0.015 A 
ATOM     16  C   UNL     1     -12.688  -0.338  -1.960  0.00  0.00    +0.018 A 
ATOM     17  C   UNL     1     -11.483  -0.970  -1.712  0.00  0.00    +0.017 A 
ATOM     18 BR   UNL     1     -13.316  -0.163  -3.735  0.00  0.00    -0.050 Br
ENDBRANCH  11  12
ENDBRANCH   2  11
ENDBRANCH   1   2
BRANCH   1  19
ATOM     19  C   UNL     1      -6.526  -0.497   1.341  0.00  0.00    +0.135 C 
BRANCH  19  20
ATOM     20  O   UNL     1      -7.133   0.112   2.482  0.00  0.00    -0.390 OA
ATOM     21  H   UNL     1      -7.376  -0.512   3.179  0.00  0.00    +0.210 HD
ENDBRANCH  19  20
BRANCH  19  22
ATOM     22  C   UNL     1      -5.247  -1.220   1.768  0.00  0.00    +0.258 C 
BRANCH  22  23
ATOM     23  O   UNL     1      -4.294  -0.264   2.236  0.00  0.00    -0.486 OA
BRANCH  23  29
ATOM     24  C   UNL     1      -2.120   0.137   3.125  0.00  0.00    +0.163 A 
ATOM     25  C   UNL     1      -0.903  -0.348   3.558  0.00  0.00    +0.060 A 
ATOM     26  C   UNL     1      -0.648  -1.724   3.519  0.00  0.00    +0.018 A 
ATOM     27  C   UNL     1      -1.630  -2.601   3.041  0.00  0.00    +0.015 A 
ATOM     28  C   UNL     1      -2.841  -2.108   2.611  0.00  0.00    +0.050 A 
ATOM     29  C   UNL     1      -3.095  -0.743   2.656  0.00  0.00    +0.162 A 
BRANCH  26  30
ATOM     30  C   UNL     1       0.646  -2.247   3.977  0.00  0.00    +0.258 C 
ATOM     31  O   UNL     1       0.865  -3.440   3.942  0.00  0.00    -0.296 OA
ENDBRANCH  26  30
BRANCH  24  32
ATOM     32  O   UNL     1      -2.371   1.473   3.162  0.00  0.00    -0.489 OA
BRANCH  32  34
ATOM     33  C   UNL     1      -1.791   3.774   3.621  0.00  0.00    +0.048 C 
ATOM     34  C   UNL     1      -1.328   2.316   3.655  0.00  0.00    +0.226 C 
ENDBRANCH  32  34
ENDBRANCH  24  32
ENDBRANCH  23  29
ENDBRANCH  22  23
ENDBRANCH  19  22
ENDBRANCH   1  19
TORSDOF 12
