REMARK  Name = ZINC52759496
REMARK  7 active torsions:
REMARK  status: ('A' for Active; 'I' for Inactive)
REMARK    1  A    between atoms: C_5  and  S_8
REMARK    2  A    between atoms: C_6  and  N_7
REMARK    3  A    between atoms: S_8  and  N_11
REMARK    4  A    between atoms: C_15  and  C_17
REMARK    5  A    between atoms: C_17  and  C_18
REMARK    6  A    between atoms: C_18  and  C_19
REMARK    7  A    between atoms: C_19  and  O_20
REMARK                            x       y       z     vdW  Elec       q    Type
REMARK                         _______ _______ _______ _____ _____    ______ ____
ROOT
ATOM      1  S   UNL     1       2.075  -1.789  -0.500  0.00  0.00    +0.064 S 
ATOM      2  O   UNL     1       3.363  -1.268  -0.799  0.00  0.00    -0.153 OA
ATOM      3  O   UNL     1       0.888  -1.263  -1.077  0.00  0.00    -0.153 OA
ENDROOT
BRANCH   1   8
ATOM      4  C   UNL     1       3.364  -5.521  -1.302  0.00  0.00    +0.040 A 
ATOM      5  C   UNL     1       2.185  -6.196  -1.554  0.00  0.00    +0.021 A 
ATOM      6  C   UNL     1       0.975  -5.528  -1.485  0.00  0.00    +0.032 A 
ATOM      7  C   UNL     1       0.942  -4.183  -1.163  0.00  0.00    +0.047 A 
ATOM      8  C   UNL     1       2.118  -3.502  -0.910  0.00  0.00    +0.140 A 
ATOM      9  C   UNL     1       3.334  -4.170  -0.979  0.00  0.00    +0.053 A 
ATOM     10 BR   UNL     1      -0.713  -3.274  -1.071  0.00  0.00    -0.048 Br
ATOM     11 BR   UNL     1       2.225  -8.035  -1.994  0.00  0.00    -0.050 Br
BRANCH   9  12
ATOM     12  N   UNL     1       4.524  -3.486  -0.723  0.00  0.00    -0.356 N 
ATOM     13  H   UNL     1       5.354  -3.790  -1.122  0.00  0.00    +0.142 HD
ATOM     14  H   UNL     1       4.521  -2.705  -0.146  0.00  0.00    +0.142 HD
ENDBRANCH   9  12
ENDBRANCH   1   8
BRANCH   1  15
ATOM     15  N   UNL     1       1.891  -1.682   1.142  0.00  0.00    -0.173 NA
ATOM     16  C   UNL     1       2.979  -1.743   2.134  0.00  0.00    +0.110 C 
ATOM     17  C   UNL     1       2.298  -2.218   3.442  0.00  0.00    +0.019 C 
ATOM     18  C   UNL     1       0.930  -1.490   3.362  0.00  0.00    +0.022 C 
ATOM     19  C   UNL     1       0.616  -1.505   1.851  0.00  0.00    +0.080 C 
BRANCH  19  20
ATOM     20  C   UNL     1      -0.030  -0.181   1.438  0.00  0.00    +0.023 C 
BRANCH  20  21
ATOM     21  C   UNL     1      -1.381  -0.030   2.141  0.00  0.00    +0.029 C 
BRANCH  21  22
ATOM     22  C   UNL     1      -2.057   1.261   1.676  0.00  0.00    +0.156 C 
BRANCH  22  23
ATOM     23  O   UNL     1      -3.274   1.448   2.401  0.00  0.00    -0.395 OA
ATOM     24  H   UNL     1      -3.794   2.208   2.105  0.00  0.00    +0.209 HD
ENDBRANCH  22  23
ENDBRANCH  21  22
ENDBRANCH  20  21
ENDBRANCH  19  20
ENDBRANCH   1  15
TORSDOF 7
