REMARK  Name = ZINC62960713
REMARK  7 active torsions:
REMARK  status: ('A' for Active; 'I' for Inactive)
REMARK    1  A    between atoms: C_1  and  C_2
REMARK    2  A    between atoms: C_2  and  C_3
REMARK    3  A    between atoms: C_3  and  C_19
REMARK    4  A    between atoms: N_6  and  C_9
REMARK    5  A    between atoms: C_12  and  N_18
REMARK    6  A    between atoms: C_14  and  C_15
REMARK    7  A    between atoms: C_19  and  C_20
REMARK                            x       y       z     vdW  Elec       q    Type
REMARK                         _______ _______ _______ _____ _____    ______ ____
ROOT
ATOM      1  C   UNL     1      -1.310  -3.400  -3.148  0.00  0.00    +0.042 A 
ATOM      2  C   UNL     1      -2.463  -4.157  -2.979  0.00  0.00    +0.025 A 
ATOM      3  C   UNL     1      -2.772  -5.157  -3.877  0.00  0.00    +0.024 A 
ATOM      4  C   UNL     1      -1.934  -5.417  -4.957  0.00  0.00    +0.025 A 
ATOM      5  C   UNL     1      -0.783  -4.672  -5.139  0.00  0.00    +0.037 A 
ATOM      6  C   UNL     1      -0.465  -3.652  -4.239  0.00  0.00    +0.059 A 
ENDROOT
BRANCH   1  10
ATOM      7  C   UNL     1      -1.309  -0.709   0.011  0.00  0.00    -0.027 C 
ATOM      8  C   UNL     1      -2.213  -0.541  -1.213  0.00  0.00    +0.026 C 
ATOM      9  C   UNL     1      -1.467  -1.016  -2.463  0.00  0.00    +0.105 C 
ATOM     10  N   UNL     1      -0.999  -2.391  -2.242  0.00  0.00    -0.329 N 
ATOM     11  C   UNL     1      -0.197  -2.680  -1.046  0.00  0.00    +0.105 C 
ATOM     12  C   UNL     1      -0.958  -2.188   0.189  0.00  0.00    +0.026 C 
BRANCH   7  14
ATOM     13  C   UNL     1       0.853  -0.020   1.057  0.00  0.00    +0.004 C 
ATOM     14  C   UNL     1      -0.025   0.099  -0.190  0.00  0.00    +0.003 C 
ENDBRANCH   7  14
BRANCH   7  15
ATOM     15  C   UNL     1      -2.039  -0.204   1.257  0.00  0.00    +0.003 C 
ATOM     16  C   UNL     1      -3.365  -0.952   1.409  0.00  0.00    +0.004 C 
ENDBRANCH   7  15
ENDBRANCH   1  10
BRANCH   6  17
ATOM     17  C   UNL     1       0.757  -2.849  -4.430  0.00  0.00    +0.243 C 
ATOM     18  O   UNL     1       1.082  -2.028  -3.594  0.00  0.00    -0.270 OA
ATOM     19  N   UNL     1       1.514  -3.025  -5.531  0.00  0.00    -0.325 N 
ATOM     20  H   UNL     1       1.255  -3.680  -6.198  0.00  0.00    +0.145 HD
ATOM     21  H   UNL     1       2.318  -2.497  -5.657  0.00  0.00    +0.145 HD
ENDBRANCH   6  17
BRANCH   4  22
ATOM     22  N   UNL     1      -2.257  -6.436  -5.862  0.00  0.00    -0.358 N 
ATOM     23  H   UNL     1      -3.064  -6.959  -5.735  0.00  0.00    +0.142 HD
ATOM     24  H   UNL     1      -1.674  -6.618  -6.615  0.00  0.00    +0.142 HD
ENDBRANCH   4  22
TORSDOF 5
