REMARK  Name = ZINC17163387
REMARK  4 active torsions:
REMARK  status: ('A' for Active; 'I' for Inactive)
REMARK    1  A    between atoms: N_9  and  C1*_10
REMARK    2  A    between atoms: C3*_13  and  O3*_20
REMARK    3  A    between atoms: C4*_15  and  C5*_18
REMARK    4  A    between atoms: C5*_18  and  O5*_19
REMARK                            x       y       z     vdW  Elec       q    Type
REMARK                         _______ _______ _______ _____ _____    ______ ____
ROOT
ATOM      1  C   UNL     1       1.159  -0.636  -4.542  0.00  0.00    +0.224 A 
ATOM      2  N   UNL     1       0.515  -0.115  -3.519  0.00  0.00    -0.216 NA
ATOM      3  C   UNL     1       0.620   1.181  -3.241  0.00  0.00    +0.167 A 
ATOM      4  C   UNL     1       1.430   1.990  -4.054  0.00  0.00    +0.140 A 
ATOM      5  C   UNL     1       2.098   1.388  -5.135  0.00  0.00    +0.138 A 
ATOM      6  N   UNL     1       1.931   0.084  -5.335  0.00  0.00    -0.226 NA
ATOM      7  N   UNL     1       1.363   3.249  -3.559  0.00  0.00    -0.231 NA
ATOM      8  C   UNL     1       0.578   3.265  -2.521  0.00  0.00    +0.203 A 
ATOM      9  N   UNL     1       0.099   2.011  -2.281  0.00  0.00    -0.288 N 
ATOM     10  S   UNL     1       3.131   2.338  -6.200  0.00  0.00    -0.028 SA
ENDROOT
BRANCH   9  11
ATOM     11  C1* UNL     1      -0.811   1.623  -1.200  0.00  0.00    +0.225 C 
ATOM     12  C2* UNL     1      -0.013   1.086   0.008  0.00  0.00    +0.088 C 
ATOM     13  C3* UNL     1      -0.788   1.610   1.237  0.00  0.00    +0.150 C 
ATOM     14  C4* UNL     1      -1.968   2.402   0.623  0.00  0.00    +0.175 C 
ATOM     15  O4* UNL     1      -1.513   2.779  -0.694  0.00  0.00    -0.348 OA
BRANCH  13  16
ATOM     16  O3* UNL     1      -1.271   0.521   2.026  0.00  0.00    -0.389 OA
ATOM     17  H3* UNL     1      -0.574  -0.045   2.384  0.00  0.00    +0.210 HD
ENDBRANCH  13  16
BRANCH  14  18
ATOM     18  C5* UNL     1      -2.265   3.647   1.461  0.00  0.00    +0.190 C 
BRANCH  18  19
ATOM     19  O5* UNL     1      -3.383   4.341   0.903  0.00  0.00    -0.392 OA
ATOM     20  H5* UNL     1      -3.628   5.143   1.385  0.00  0.00    +0.210 HD
ENDBRANCH  18  19
ENDBRANCH  14  18
ENDBRANCH   9  11
TORSDOF 4
