REMARK  Name = ZINC40361656
REMARK  10 active torsions:
REMARK  status: ('A' for Active; 'I' for Inactive)
REMARK    1  A    between atoms: C_1  and  O_2
REMARK    2  A    between atoms: O_2  and  C_3
REMARK    3  A    between atoms: C_3  and  C_4
REMARK    4  A    between atoms: C_4  and  N_5
REMARK    5  A    between atoms: N_5  and  C_6
REMARK    6  A    between atoms: C_6  and  C_7
REMARK    7  A    between atoms: N_9  and  C_10
REMARK    8  A    between atoms: C_12  and  C_22
REMARK    9  A    between atoms: N_14  and  C_15
REMARK   10  A    between atoms: C_28  and  C_30
REMARK                            x       y       z     vdW  Elec       q    Type
REMARK                         _______ _______ _______ _____ _____    ______ ____
ROOT
ATOM      1  C   UNL     1      -1.312  -3.003  -3.318  0.00  0.00    +0.236 C 
ATOM      2  O   UNL     1      -0.743  -3.998  -2.923  0.00  0.00    -0.274 OA
ATOM      3  N   UNL     1      -1.825  -2.970  -4.564  0.00  0.00    -0.269 N 
ATOM      4  H   UNL     1      -2.281  -2.174  -4.880  0.00  0.00    +0.156 HD
ENDROOT
BRANCH   3   5
ATOM      5  C   UNL     1      -1.701  -4.080  -5.399  0.00  0.00    +0.129 A 
ATOM      6  C   UNL     1      -1.096  -5.255  -5.085  0.00  0.00    +0.074 A 
ATOM      7  C   UNL     1      -1.192  -6.102  -6.205  0.00  0.00    +0.095 A 
ATOM      8  N   UNL     1      -1.833  -5.454  -7.156  0.00  0.00    -0.165 NA
ATOM      9  N   UNL     1      -2.168  -4.183  -6.674  0.00  0.00    -0.218 N 
BRANCH   9  10
ATOM     10  C   UNL     1      -2.862  -3.190  -7.380  0.00  0.00    +0.068 A 
ATOM     11  C   UNL     1      -3.734  -2.342  -6.711  0.00  0.00    +0.030 A 
ATOM     12  C   UNL     1      -4.416  -1.365  -7.408  0.00  0.00    +0.040 A 
ATOM     13  C   UNL     1      -4.230  -1.229  -8.774  0.00  0.00    +0.124 A 
ATOM     14  C   UNL     1      -3.360  -2.074  -9.443  0.00  0.00    +0.040 A 
ATOM     15  C   UNL     1      -2.672  -3.049  -8.748  0.00  0.00    +0.030 A 
ATOM     16  F   UNL     1      -4.898  -0.272  -9.454  0.00  0.00    -0.205 F 
ENDBRANCH   9  10
BRANCH   7  17
ATOM     17  C   UNL     1      -0.664  -7.485  -6.299  0.00  0.00    +0.002 A 
ATOM     18  C   UNL     1      -0.007  -8.058  -5.212  0.00  0.00    +0.010 A 
ATOM     19  C   UNL     1       0.483  -9.345  -5.304  0.00  0.00    +0.001 A 
ATOM     20  C   UNL     1       0.322 -10.066  -6.473  0.00  0.00    +0.000 A 
ATOM     21  C   UNL     1      -0.329  -9.503  -7.556  0.00  0.00    +0.001 A 
ATOM     22  C   UNL     1      -0.828  -8.219  -7.473  0.00  0.00    +0.010 A 
ENDBRANCH   7  17
ENDBRANCH   3   5
BRANCH   1  23
ATOM     23  C   UNL     1      -1.447  -1.803  -2.416  0.00  0.00    +0.204 C 
BRANCH  23  24
ATOM     24  N   UNL     1      -0.813  -2.089  -1.126  0.00  0.00    -0.287 N 
ATOM     25  C   UNL     1      -1.562  -2.496  -0.082  0.00  0.00    +0.247 C 
ATOM     26  O   UNL     1      -1.048  -2.659   1.008  0.00  0.00    -0.270 OA
BRANCH  25  27
ATOM     27  C   UNL     1      -3.006  -2.744  -0.262  0.00  0.00    +0.041 A 
ATOM     28  C   UNL     1      -3.454  -3.530  -1.327  0.00  0.00    +0.017 A 
ATOM     29  C   UNL     1      -4.801  -3.762  -1.493  0.00  0.00    +0.050 A 
ATOM     30  C   UNL     1      -5.719  -3.216  -0.605  0.00  0.00    +0.166 A 
ATOM     31  C   UNL     1      -5.278  -2.430   0.461  0.00  0.00    +0.167 A 
ATOM     32  C   UNL     1      -3.927  -2.199   0.635  0.00  0.00    +0.062 A 
ATOM     33  O   UNL     1      -6.365  -2.020   1.178  0.00  0.00    -0.453 OA
ATOM     34  C   UNL     1      -7.496  -2.221   0.310  0.00  0.00    +0.466 C 
ATOM     35  O   UNL     1      -7.079  -3.297  -0.552  0.00  0.00    -0.453 OA
ENDBRANCH  25  27
BRANCH  24  36
ATOM     36  C   UNL     1       0.635  -1.931  -0.972  0.00  0.00    +0.136 C 
BRANCH  36  37
ATOM     37  C   UNL     1       0.958  -0.471  -0.649  0.00  0.00    +0.178 C 
BRANCH  37  39
ATOM     38  C   UNL     1       0.648   1.220   1.021  0.00  0.00    +0.194 C 
ATOM     39  O   UNL     1       0.403  -0.130   0.623  0.00  0.00    -0.381 OA
ENDBRANCH  37  39
ENDBRANCH  36  37
ENDBRANCH  24  36
ENDBRANCH  23  24
ENDBRANCH   1  23
TORSDOF 9
