REMARK  Name = ZINC17072718
REMARK  8 active torsions:
REMARK  status: ('A' for Active; 'I' for Inactive)
REMARK    1  A    between atoms: C_1  and  C_2
REMARK    2  A    between atoms: C_3  and  C_25
REMARK    3  A    between atoms: C_5  and  N_10
REMARK    4  A    between atoms: C_6  and  C_7
REMARK    5  A    between atoms: C_11  and  C_13
REMARK    6  A    between atoms: C_16  and  C_24
REMARK    7  A    between atoms: C_17  and  C_23
REMARK    8  A    between atoms: C_19  and  C_21
REMARK                            x       y       z     vdW  Elec       q    Type
REMARK                         _______ _______ _______ _____ _____    ______ ____
ROOT
ATOM      1  N   UNL     1      -1.581   3.053   0.802  0.00  0.00    -0.279 N 
ATOM      2  C   UNL     1      -0.890   1.908   0.970  0.00  0.00    +0.222 C 
ATOM      3  O   UNL     1      -0.945   1.315   2.027  0.00  0.00    -0.275 OA
ATOM      4  H   UNL     1      -1.536   3.527  -0.043  0.00  0.00    +0.155 HD
ENDROOT
BRANCH   2   5
ATOM      5  C   UNL     1      -0.048   1.364  -0.155  0.00  0.00    +0.093 C 
ATOM      6  C   UNL     1      -0.168  -0.161  -0.196  0.00  0.00    +0.044 C 
ATOM      7  C   UNL     1       0.530  -0.767   0.986  0.00  0.00    -0.073 C 
ATOM      8  C   UNL     1       1.396  -0.140   1.716  0.00  0.00    -0.073 C 
ATOM      9  C   UNL     1       1.815   1.283   1.488  0.00  0.00    +0.046 C 
ATOM     10  C   UNL     1       1.423   1.728   0.078  0.00  0.00    +0.118 C 
ATOM     11  C   UNL     1       2.022  -0.885   2.866  0.00  0.00    +0.039 C 
ATOM     12  C   UNL     1       0.203  -2.193   1.345  0.00  0.00    +0.039 C 
BRANCH  10  13
ATOM     13  C   UNL     1       1.602   3.219  -0.051  0.00  0.00    +0.360 C 
ATOM     14  O   UNL     1       0.652   3.922  -0.303  0.00  0.00    -0.246 OA
ATOM     15  O   UNL     1       2.817   3.766   0.115  0.00  0.00    -0.246 OA
ENDBRANCH  10  13
ENDBRANCH   2   5
BRANCH   1  20
ATOM     16  C   UNL     1      -4.712   6.213   3.216  0.00  0.00    +0.045 C 
ATOM     17  C   UNL     1      -3.841   4.992   3.080  0.00  0.00    -0.027 A 
ATOM     18  C   UNL     1      -3.692   4.120   4.094  0.00  0.00    -0.008 A 
ATOM     19  S   UNL     1      -2.589   2.894   3.422  0.00  0.00    -0.078 S 
ATOM     20  C   UNL     1      -2.355   3.554   1.838  0.00  0.00    +0.084 A 
ATOM     21  C   UNL     1      -3.126   4.710   1.859  0.00  0.00    +0.068 A 
ATOM     22  C   UNL     1      -4.309   4.170   5.468  0.00  0.00    +0.052 C 
BRANCH  21  23
ATOM     23  C   UNL     1      -3.212   5.597   0.695  0.00  0.00    +0.244 C 
ATOM     24  O   UNL     1      -4.077   5.420  -0.143  0.00  0.00    -0.270 OA
ATOM     25  N   UNL     1      -2.334   6.610   0.553  0.00  0.00    -0.325 N 
ATOM     26  H   UNL     1      -1.645   6.752   1.220  0.00  0.00    +0.145 HD
ATOM     27  H   UNL     1      -2.391   7.197  -0.217  0.00  0.00    +0.145 HD
ENDBRANCH  21  23
ENDBRANCH   1  20
TORSDOF 4
