REMARK  Name = ZINC43253789
REMARK  7 active torsions:
REMARK  status: ('A' for Active; 'I' for Inactive)
REMARK    1  A    between atoms: C_1  and  C_2
REMARK    2  A    between atoms: C_6  and  C_22
REMARK    3  A    between atoms: N_9  and  C_10
REMARK    4  A    between atoms: C_10  and  C_12
REMARK    5  A    between atoms: C_10  and  C_18
REMARK    6  A    between atoms: C_18  and  C_20
REMARK    7  A    between atoms: C_18  and  N_21
REMARK                            x       y       z     vdW  Elec       q    Type
REMARK                         _______ _______ _______ _____ _____    ______ ____
ROOT
ATOM      1  C   UNL     1       0.345   0.080   2.397  0.00  0.00    +0.079 C 
ENDROOT
BRANCH   1   8
ATOM      2  C   UNL     1      -0.716   1.589   0.272  0.00  0.00    +0.024 C 
ATOM      3  C   UNL     1      -0.411   0.100   0.097  0.00  0.00    +0.054 C 
ATOM      4  C   UNL     1       0.022  -0.166  -1.347  0.00  0.00    +0.019 C 
ATOM      5  C   UNL     1       0.346  -1.653  -1.512  0.00  0.00    +0.015 C 
ATOM      6  C   UNL     1       1.440  -2.043  -0.513  0.00  0.00    +0.089 C 
ATOM      7  C   UNL     1       0.966  -1.723   0.906  0.00  0.00    +0.098 C 
ATOM      8  N   UNL     1       0.670  -0.289   1.013  0.00  0.00    -0.293 NA
BRANCH   6   9
ATOM      9  C   UNL     1       1.724  -3.518  -0.629  0.00  0.00    +0.215 C 
ATOM     10  O   UNL     1       1.566  -4.244   0.330  0.00  0.00    -0.276 OA
ATOM     11  N   UNL     1       2.153  -4.032  -1.799  0.00  0.00    -0.329 N 
ATOM     12  H   UNL     1       2.279  -3.453  -2.566  0.00  0.00    +0.145 HD
ATOM     13  H   UNL     1       2.336  -4.982  -1.873  0.00  0.00    +0.145 HD
ENDBRANCH   6   9
ENDBRANCH   1   8
BRANCH   1  14
ATOM     14  C   UNL     1      -0.933  -0.602   2.812  0.00  0.00    +0.007 A 
ATOM     15  C   UNL     1      -2.081  -0.053   3.279  0.00  0.00    +0.014 A 
ATOM     16  C   UNL     1      -3.139  -0.883   3.601  0.00  0.00    +0.028 A 
ATOM     17  C   UNL     1      -2.997  -2.222   3.439  0.00  0.00    +0.078 A 
ATOM     18  S   UNL     1      -1.331  -2.343   2.808  0.00  0.00    -0.080 S 
ATOM     19 CL   UNL     1      -4.139  -3.490   3.757  0.00  0.00    -0.076 Cl
ENDBRANCH   1  14
BRANCH   1  20
ATOM     20  C   UNL     1       1.481  -0.360   3.322  0.00  0.00    -0.056 C 
ATOM     21  C   UNL     1       2.779   0.333   2.901  0.00  0.00    -0.012 C 
BRANCH  20  22
ATOM     22  N   UNL     1       1.156   0.009   4.707  0.00  0.00    +0.381 N 
ATOM     23  H   UNL     1       0.300  -0.448   4.984  0.00  0.00    -0.090 HD
ATOM     24  H   UNL     1       1.905  -0.281   5.317  0.00  0.00    -0.090 HD
ATOM     25  H   UNL     1       1.039   1.009   4.769  0.00  0.00    -0.090 HD
ENDBRANCH  20  22
ENDBRANCH   1  20
TORSDOF 5
