REMARK  Name = ZINC46652398
REMARK  6 active torsions:
REMARK  status: ('A' for Active; 'I' for Inactive)
REMARK    1  A    between atoms: C_1  and  C_2
REMARK    2  A    between atoms: C_2  and  C_4
REMARK    3  A    between atoms: C_2  and  N_21
REMARK    4  A    between atoms: C_8  and  N_10
REMARK    5  A    between atoms: C_11  and  C_13
REMARK    6  A    between atoms: C_13  and  C_14
REMARK                            x       y       z     vdW  Elec       q    Type
REMARK                         _______ _______ _______ _____ _____    ______ ____
ROOT
ATOM      1  C   UNL     1       0.749  -0.356   1.291  0.00  0.00    -0.026 A 
ATOM      2  C   UNL     1       2.120  -0.529   1.243  0.00  0.00    +0.005 A 
ATOM      3  C   UNL     1       2.779  -1.144   2.292  0.00  0.00    +0.002 A 
ATOM      4  C   UNL     1       2.069  -1.587   3.391  0.00  0.00    +0.023 A 
ATOM      5  C   UNL     1       0.692  -1.415   3.442  0.00  0.00    +0.034 A 
ATOM      6  C   UNL     1       0.034  -0.792   2.389  0.00  0.00    +0.028 A 
ENDROOT
BRANCH   5   7
ATOM      7  N   UNL     1      -0.030  -1.863   4.553  0.00  0.00    -0.285 N 
ATOM      8  C   UNL     1       0.530  -1.831   5.779  0.00  0.00    +0.222 C 
ATOM      9  O   UNL     1       1.623  -1.326   5.933  0.00  0.00    -0.275 OA
ATOM     10  H   UNL     1      -0.934  -2.196   4.442  0.00  0.00    +0.155 HD
BRANCH   8  11
ATOM     11  C   UNL     1      -0.200  -2.422   6.957  0.00  0.00    +0.134 C 
BRANCH  11  12
ATOM     12  C   UNL     1       0.637  -2.258   8.200  0.00  0.00    -0.003 A 
ATOM     13  C   UNL     1       1.467  -3.283   8.614  0.00  0.00    +0.007 A 
ATOM     14  C   UNL     1       2.234  -3.133   9.754  0.00  0.00    +0.000 A 
ATOM     15  C   UNL     1       2.172  -1.958  10.481  0.00  0.00    +0.003 A 
ATOM     16  C   UNL     1       1.343  -0.933  10.069  0.00  0.00    +0.038 A 
ATOM     17  C   UNL     1       0.578  -1.080   8.924  0.00  0.00    +0.127 A 
ATOM     18  F   UNL     1      -0.230  -0.076   8.517  0.00  0.00    -0.205 F 
ENDBRANCH  11  12
ENDBRANCH   8  11
ENDBRANCH   5   7
BRANCH   1  20
ATOM     19  C   UNL     1       0.199   1.833   0.262  0.00  0.00    +0.033 C 
ATOM     20  C   UNL     1       0.035   0.316   0.147  0.00  0.00    +0.102 C 
BRANCH  20  21
ATOM     21  N   UNL     1       0.607  -0.142  -1.122  0.00  0.00    -0.293 N 
ATOM     22  C   UNL     1      -0.133  -0.105  -2.248  0.00  0.00    +0.303 C 
ATOM     23  O   UNL     1      -1.276   0.307  -2.210  0.00  0.00    -0.253 OA
ATOM     24  N   UNL     1       0.393  -0.527  -3.414  0.00  0.00    -0.286 N 
ATOM     25  C   UNL     1       1.753  -1.017  -3.424  0.00  0.00    +0.109 C 
ATOM     26  C   UNL     1       2.728   0.160  -3.678  0.00  0.00    +0.019 C 
ATOM     27  C   UNL     1       2.622   0.619  -5.071  0.00  0.00    +0.002 C 
ATOM     28  C   UNL     1       1.252   1.176  -5.447  0.00  0.00    +0.002 C 
ATOM     29  C   UNL     1       0.345   0.040  -5.851  0.00  0.00    +0.019 C 
ATOM     30  C   UNL     1      -0.444  -0.474  -4.629  0.00  0.00    +0.109 C 
ATOM     31  H   UNL     1       1.519  -0.471  -1.152  0.00  0.00    +0.151 HD
ENDBRANCH  20  21
ENDBRANCH   1  20
TORSDOF 5
