REMARK  Name = ZINC05144196
REMARK  7 active torsions:
REMARK  status: ('A' for Active; 'I' for Inactive)
REMARK    1  A    between atoms: C_1  and  N_64
REMARK    2  A    between atoms: C_2  and  C_3
REMARK    3  A    between atoms: C_2  and  N_64
REMARK    4  A    between atoms: C_3  and  C_4
REMARK    5  A    between atoms: C_4  and  N_5
REMARK    6  A    between atoms: C_6  and  C_8
REMARK    7  A    between atoms: C_24  and  N_64
REMARK                            x       y       z     vdW  Elec       q    Type
REMARK                         _______ _______ _______ _____ _____    ______ ____
ROOT
ATOM      1  N   UNL     1      -2.762   5.394  -1.019  0.00  0.00    -0.315 N 
ATOM      2  C   UNL     1      -3.023   6.701  -1.216  0.00  0.00    +0.216 C 
ATOM      3  O   UNL     1      -2.524   7.535  -0.491  0.00  0.00    -0.276 OA
ATOM      4  H   UNL     1      -3.162   4.727  -1.599  0.00  0.00    +0.149 HD
ENDROOT
BRANCH   2   5
ATOM      5  C   UNL     1      -3.936   7.127  -2.338  0.00  0.00    +0.078 C 
ATOM      6  C   UNL     1      -3.352   6.663  -3.676  0.00  0.00    +0.032 C 
ATOM      7  C   UNL     1      -4.250   7.152  -4.815  0.00  0.00    +0.108 C 
ATOM      8  N   UNL     1      -4.338   8.617  -4.778  0.00  0.00    -0.308 N 
ATOM      9  C   UNL     1      -4.939   9.082  -3.522  0.00  0.00    +0.108 C 
ATOM     10  C   UNL     1      -4.061   8.653  -2.345  0.00  0.00    +0.032 C 
ATOM     11  C   UNL     1      -5.038   9.101  -5.875  0.00  0.00    +0.186 A 
ATOM     12  N   UNL     1      -6.114   9.874  -5.925  0.00  0.00    -0.124 NA
ATOM     13  N   UNL     1      -6.629  10.229  -7.020  0.00  0.00    -0.121 NA
ATOM     14  C   UNL     1      -6.135   9.844  -8.185  0.00  0.00    +0.202 A 
ATOM     15  S   UNL     1      -4.752   8.854  -7.625  0.00  0.00    -0.013 S 
ATOM     16  N   UNL     1      -6.568  10.129  -9.481  0.00  0.00    -0.301 N 
ATOM     17  C   UNL     1      -5.982   9.684 -10.632  0.00  0.00    +0.093 A 
ATOM     18  C   UNL     1      -6.687  10.165 -11.677  0.00  0.00    +0.019 A 
ATOM     19  C   UNL     1      -7.741  10.941 -11.154  0.00  0.00    +0.019 A 
ATOM     20  C   UNL     1      -7.645  10.902  -9.810  0.00  0.00    +0.093 A 
ENDBRANCH   2   5
BRANCH   1  21
ATOM     21  C   UNL     1      -1.876   4.980   0.071  0.00  0.00    +0.102 C 
BRANCH  21  22
ATOM     22  C   UNL     1      -1.748   3.455   0.075  0.00  0.00    +0.000 C 
BRANCH  22  23
ATOM     23  C   UNL     1      -0.822   3.023   1.213  0.00  0.00    -0.077 C 
BRANCH  23  25
ATOM     24  C   UNL     1      -0.013   1.086   0.008  0.00  0.00    -0.096 C 
ATOM     25  N   UNL     1      -0.727   1.548   1.217  0.00  0.00    +0.380 N 
ATOM     26  H   UNL     1      -1.674   1.153   1.216  0.00  0.00    -0.082 HD
BRANCH  25  27
ATOM     27  C   UNL     1      -0.016   1.091   2.429  0.00  0.00    -0.069 C 
ATOM     28  C   UNL     1       1.427   1.599   2.429  0.00  0.00    -0.015 C 
ATOM     29  C   UNL     1       2.139   1.111   3.692  0.00  0.00    -0.002 C 
ATOM     30  C   UNL     1       2.137  -0.419   3.720  0.00  0.00    -0.000 C 
ATOM     31  C   UNL     1       0.694  -0.926   3.720  0.00  0.00    -0.002 C 
ATOM     32  C   UNL     1      -0.018  -0.439   2.457  0.00  0.00    -0.015 C 
ENDBRANCH  25  27
ENDBRANCH  23  25
ENDBRANCH  22  23
ENDBRANCH  21  22
ENDBRANCH   1  21
TORSDOF 6
