REMARK  Name = ZINC62563281
REMARK  3 active torsions:
REMARK  status: ('A' for Active; 'I' for Inactive)
REMARK    1  A    between atoms: C_1  and  N_2
REMARK    2  A    between atoms: C_7  and  N_21
REMARK    3  A    between atoms: C_10  and  C_14
REMARK                            x       y       z     vdW  Elec       q    Type
REMARK                         _______ _______ _______ _____ _____    ______ ____
ROOT
ATOM      1  C   UNL     1      -0.018   1.461   0.010  0.00  0.00    +0.138 C 
ATOM      2  N   UNL     1       0.002  -0.004   0.002  0.00  0.00    -0.268 N 
ATOM      3  C   UNL     1      -1.196  -0.732   0.004  0.00  0.00    +0.081 A 
ATOM      4  C   UNL     1      -2.399  -0.115  -0.306  0.00  0.00    +0.047 A 
ATOM      5  C   UNL     1      -3.573  -0.848  -0.299  0.00  0.00    +0.045 A 
ATOM      6  C   UNL     1      -3.551  -2.195   0.016  0.00  0.00    +0.046 A 
ATOM      7  C   UNL     1      -2.351  -2.819   0.326  0.00  0.00    +0.070 A 
ATOM      8  C   UNL     1      -1.170  -2.087   0.320  0.00  0.00    +0.164 A 
ATOM      9  O   UNL     1       0.018  -2.682   0.619  0.00  0.00    -0.471 OA
ATOM     10  C   UNL     1       1.175  -2.181  -0.054  0.00  0.00    +0.289 C 
ATOM     11  C   UNL     1       1.175  -0.674  -0.013  0.00  0.00    +0.265 C 
ATOM     12  O   UNL     1       2.224  -0.065   0.011  0.00  0.00    -0.271 OA
ATOM     13 CL   UNL     1      -5.078  -0.074  -0.688  0.00  0.00    -0.083 Cl
ENDROOT
BRANCH  10  14
ATOM     14  C   UNL     1       1.157  -2.638  -1.490  0.00  0.00    +0.002 A 
ATOM     15  C   UNL     1      -0.030  -2.647  -2.197  0.00  0.00    +0.010 A 
ATOM     16  C   UNL     1      -0.048  -3.065  -3.514  0.00  0.00    +0.039 A 
ATOM     17  C   UNL     1       1.125  -3.476  -4.125  0.00  0.00    +0.123 A 
ATOM     18  C   UNL     1       2.314  -3.466  -3.416  0.00  0.00    +0.039 A 
ATOM     19  C   UNL     1       2.330  -3.042  -2.101  0.00  0.00    +0.010 A 
ATOM     20  F   UNL     1       1.109  -3.885  -5.413  0.00  0.00    -0.205 F 
ENDBRANCH  10  14
BRANCH   7  21
ATOM     21  N   UNL     1      -2.330  -4.182   0.645  0.00  0.00    -0.355 N 
ATOM     22  H   UNL     1      -3.155  -4.692   0.649  0.00  0.00    +0.142 HD
ATOM     23  H   UNL     1      -1.490  -4.617   0.862  0.00  0.00    +0.142 HD
ENDBRANCH   7  21
TORSDOF 2
