REMARK  Name = ZINC12631142
REMARK  11 active torsions:
REMARK  status: ('A' for Active; 'I' for Inactive)
REMARK    1  A    between atoms: C_1  and  N_2
REMARK    2  A    between atoms: N_2  and  C_3
REMARK    3  A    between atoms: N_2  and  C_4
REMARK    4  A    between atoms: C_4  and  C_6
REMARK    5  A    between atoms: C_4  and  C_29
REMARK    6  A    between atoms: C_6  and  N_7
REMARK    7  A    between atoms: N_7  and  C_8
REMARK    8  A    between atoms: C_8  and  C_10
REMARK    9  A    between atoms: C_8  and  C_16
REMARK   10  A    between atoms: N_18  and  C_19
REMARK   11  A    between atoms: C_22  and  N_26
REMARK                            x       y       z     vdW  Elec       q    Type
REMARK                         _______ _______ _______ _____ _____    ______ ____
ROOT
ATOM      1  C   UNL     1       3.370  -0.984   1.738  0.00  0.00    +0.171 C 
ENDROOT
BRANCH   1   2
ATOM      2  C   UNL     1       4.225  -1.885   2.591  0.00  0.00    -0.022 A 
ATOM      3  C   UNL     1       5.100  -1.340   3.511  0.00  0.00    +0.005 A 
ATOM      4  C   UNL     1       5.882  -2.167   4.296  0.00  0.00    +0.000 A 
ATOM      5  C   UNL     1       5.795  -3.539   4.154  0.00  0.00    +0.000 A 
ATOM      6  C   UNL     1       4.923  -4.084   3.231  0.00  0.00    +0.000 A 
ATOM      7  C   UNL     1       4.138  -3.258   2.449  0.00  0.00    +0.005 A 
ENDBRANCH   1   2
BRANCH   1   8
ATOM      8  C   UNL     1       2.176  -0.523   2.535  0.00  0.00    +0.239 C 
ATOM      9  O   UNL     1       1.999   0.661   2.731  0.00  0.00    -0.273 OA
ATOM     10  N   UNL     1       1.306  -1.426   3.029  0.00  0.00    -0.283 N 
ATOM     11  H   UNL     1       1.417  -2.491   2.777  0.00  0.00    +0.155 HD
BRANCH  10  12
ATOM     12  C   UNL     1       0.262  -1.008   3.861  0.00  0.00    +0.052 A 
ATOM     13  C   UNL     1       0.346   0.207   4.527  0.00  0.00    +0.027 A 
ATOM     14  C   UNL     1      -0.686   0.616   5.348  0.00  0.00    +0.034 A 
ATOM     15  C   UNL     1      -1.804  -0.182   5.508  0.00  0.00    +0.128 A 
ATOM     16  C   UNL     1      -1.892  -1.393   4.846  0.00  0.00    +0.054 A 
ATOM     17  C   UNL     1      -0.865  -1.806   4.019  0.00  0.00    +0.064 A 
ATOM     18 CL   UNL     1      -0.979  -3.324   3.183  0.00  0.00    -0.082 Cl
BRANCH  15  19
ATOM     19  N   UNL     1      -2.908   0.260   6.388  0.00  0.00    +0.056 N 
ATOM     20  O   UNL     1      -2.832   1.327   6.971  0.00  0.00    -0.126 OA
ATOM     21  O   UNL     1      -3.893  -0.442   6.530  0.00  0.00    -0.126 OA
ENDBRANCH  15  19
ENDBRANCH  10  12
ENDBRANCH   1   8
BRANCH   1  22
ATOM     22  N   UNL     1       4.157   0.182   1.316  0.00  0.00    -0.303 NA
ATOM     23  H   UNL     1       4.840   0.461   2.132  0.00  0.00    +0.123 HD
BRANCH  22  24
ATOM     24  C   UNL     1       4.935  -0.118   0.107  0.00  0.00    +0.071 C 
BRANCH  24  25
ATOM     25  C   UNL     1       5.862   1.058  -0.208  0.00  0.00    -0.024 C 
BRANCH  25  26
ATOM     26  C   UNL     1       6.650   0.757  -1.457  0.00  0.00    -0.060 A 
ATOM     27  C   UNL     1       6.217   1.233  -2.680  0.00  0.00    +0.002 A 
ATOM     28  C   UNL     1       6.942   0.960  -3.824  0.00  0.00    +0.000 A 
ATOM     29  C   UNL     1       8.096   0.202  -3.747  0.00  0.00    +0.000 A 
ATOM     30  C   UNL     1       8.527  -0.278  -2.525  0.00  0.00    +0.000 A 
ATOM     31  C   UNL     1       7.804  -0.001  -1.379  0.00  0.00    +0.002 A 
ENDBRANCH  25  26
BRANCH  25  33
ATOM     32  C   UNL     1       3.792   1.955  -1.088  0.00  0.00    -0.096 C 
ATOM     33  N   UNL     1       5.060   2.271  -0.417  0.00  0.00    +0.381 N 
ATOM     34  C   UNL     1       4.823   2.971   0.853  0.00  0.00    -0.096 C 
ATOM     35  H   UNL     1       5.630   2.945  -1.073  0.00  0.00    -0.082 HD
ENDBRANCH  25  33
ENDBRANCH  24  25
ENDBRANCH  22  24
ENDBRANCH   1  22
TORSDOF 9
