REMARK  Name = ZINC49468799
REMARK  12 active torsions:
REMARK  status: ('A' for Active; 'I' for Inactive)
REMARK    1  A    between atoms: C_1  and  C_2
REMARK    2  A    between atoms: C_3  and  C_12
REMARK    3  A    between atoms: C_5  and  C_7
REMARK    4  A    between atoms: N_17  and  C_19
REMARK    5  A    between atoms: C_19  and  C_20
REMARK    6  A    between atoms: C_20  and  N_21
REMARK    7  A    between atoms: C_22  and  C_24
REMARK    8  A    between atoms: C_24  and  C_26
REMARK    9  A    between atoms: C_24  and  O_27
REMARK   10  A    between atoms: O_27  and  C_28
REMARK   11  A    between atoms: C_31  and  O_34
REMARK   12  A    between atoms: O_34  and  C_35
REMARK                            x       y       z     vdW  Elec       q    Type
REMARK                         _______ _______ _______ _____ _____    ______ ____
ROOT
ATOM      1  C   UNL     1      -0.191  -0.453  -3.663  0.00  0.00    +0.100 A 
ATOM      2  C   UNL     1      -0.124  -1.162  -4.888  0.00  0.00    +0.036 A 
ATOM      3  C   UNL     1      -0.052  -0.445  -6.045  0.00  0.00    +0.074 A 
ATOM      4  C   UNL     1      -0.049   0.965  -5.951  0.00  0.00    +0.267 A 
ATOM      5  O   UNL     1       0.014   1.647  -6.961  0.00  0.00    -0.266 OA
ATOM      6  N   UNL     1      -0.116   1.550  -4.741  0.00  0.00    -0.227 N 
ATOM      7  N   UNL     1      -0.188   0.862  -3.660  0.00  0.00    -0.168 NA
ENDROOT
BRANCH   1  10
ATOM      8  C   UNL     1      -0.360   0.767  -0.841  0.00  0.00    +0.067 C 
ATOM      9  C   UNL     1      -0.348  -0.717  -1.102  0.00  0.00    +0.055 A 
ATOM     10  C   UNL     1      -0.271  -1.192  -2.388  0.00  0.00    +0.062 A 
ATOM     11  S   UNL     1      -0.293  -2.956  -2.090  0.00  0.00    -0.065 S 
ATOM     12  C   UNL     1      -0.402  -2.875  -0.307  0.00  0.00    +0.116 A 
ATOM     13  N   UNL     1      -0.406  -1.561  -0.103  0.00  0.00    -0.243 NA
BRANCH  12  14
ATOM     14  C   UNL     1      -0.465  -3.969   0.673  0.00  0.00    +0.044 A 
ATOM     15  C   UNL     1      -0.554  -3.901   2.051  0.00  0.00    +0.018 A 
ATOM     16  C   UNL     1      -0.600  -5.078   2.763  0.00  0.00    +0.008 A 
ATOM     17  C   UNL     1      -0.556  -6.260   2.095  0.00  0.00    +0.046 A 
ATOM     18  S   UNL     1      -0.453  -5.732   0.393  0.00  0.00    -0.095 S 
ENDBRANCH  12  14
ENDBRANCH   1  10
BRANCH   6  19
ATOM     19  C   UNL     1      -0.111   3.013  -4.656  0.00  0.00    +0.166 C 
BRANCH  19  20
ATOM     20  C   UNL     1      -1.550   3.531  -4.710  0.00  0.00    +0.127 C 
BRANCH  20  21
ATOM     21  N   UNL     1      -1.545   4.994  -4.625  0.00  0.00    -0.311 N 
ATOM     22  C   UNL     1      -2.708   5.674  -4.654  0.00  0.00    +0.254 C 
ATOM     23  O   UNL     1      -3.759   5.075  -4.751  0.00  0.00    -0.272 OA
ATOM     24  H   UNL     1      -0.705   5.472  -4.548  0.00  0.00    +0.149 HD
BRANCH  22  25
ATOM     25  C   UNL     1      -2.704   7.178  -4.567  0.00  0.00    +0.255 C 
ATOM     26  C   UNL     1      -2.017   7.759  -5.804  0.00  0.00    +0.062 C 
BRANCH  25  27
ATOM     27  O   UNL     1      -4.049   7.656  -4.500  0.00  0.00    -0.480 OA
BRANCH  27  28
ATOM     28  C   UNL     1      -4.246   8.867  -3.915  0.00  0.00    +0.122 A 
ATOM     29  C   UNL     1      -5.534   9.338  -3.712  0.00  0.00    +0.049 A 
ATOM     30  C   UNL     1      -5.734  10.569  -3.117  0.00  0.00    +0.049 A 
ATOM     31  C   UNL     1      -4.646  11.333  -2.723  0.00  0.00    +0.120 A 
ATOM     32  C   UNL     1      -3.358  10.862  -2.925  0.00  0.00    +0.049 A 
ATOM     33  C   UNL     1      -3.158   9.630  -3.516  0.00  0.00    +0.049 A 
BRANCH  31  34
ATOM     34  O   UNL     1      -4.843  12.545  -2.138  0.00  0.00    -0.495 OA
ATOM     35  C   UNL     1      -3.678  13.279  -1.758  0.00  0.00    +0.277 C 
ENDBRANCH  31  34
ENDBRANCH  27  28
ENDBRANCH  25  27
ENDBRANCH  22  25
ENDBRANCH  20  21
ENDBRANCH  19  20
ENDBRANCH   6  19
TORSDOF 9
