REMARK  Name = ZINC51925428
REMARK  3 active torsions:
REMARK  status: ('A' for Active; 'I' for Inactive)
REMARK    1  A    between atoms: C_1  and  C_2
REMARK    2  A    between atoms: C_3  and  C_18
REMARK    3  A    between atoms: C_12  and  N_17
REMARK                            x       y       z     vdW  Elec       q    Type
REMARK                         _______ _______ _______ _____ _____    ______ ____
ROOT
ATOM      1  C   UNL     1      -0.018   1.503   0.010  0.00  0.00    +0.067 C 
ATOM      2  C   UNL     1       0.002  -0.004   0.002  0.00  0.00    +0.059 A 
ATOM      3  C   UNL     1       0.008  -0.787  -1.093  0.00  0.00    +0.044 A 
ATOM      4  N   UNL     1       0.027  -2.086  -0.652  0.00  0.00    -0.287 N 
ATOM      5  C   UNL     1       0.033  -2.045   0.707  0.00  0.00    +0.205 A 
ATOM      6  N   UNL     1       0.024  -0.796   1.085  0.00  0.00    -0.240 NA
ATOM      7  C   UNL     1       0.039  -3.234  -1.448  0.00  0.00    +0.140 A 
ATOM      8  C   UNL     1       0.053  -4.492  -0.834  0.00  0.00    +0.047 A 
ATOM      9  C   UNL     1       0.065  -5.621  -1.598  0.00  0.00    +0.013 A 
ATOM     10  C   UNL     1       0.062  -5.478  -3.000  0.00  0.00    +0.002 A 
ATOM     11  C   UNL     1       0.072  -6.598  -3.845  0.00  0.00    +0.032 A 
ATOM     12  C   UNL     1       0.069  -6.417  -5.211  0.00  0.00    +0.025 A 
ATOM     13  C   UNL     1       0.055  -5.128  -5.758  0.00  0.00    +0.025 A 
ATOM     14  C   UNL     1       0.044  -4.029  -4.959  0.00  0.00    +0.030 A 
ATOM     15  C   UNL     1       0.047  -4.176  -3.560  0.00  0.00    +0.073 A 
ATOM     16  N   UNL     1       0.032  -3.106  -2.758  0.00  0.00    -0.229 NA
ATOM     17  C   UNL     1      -0.005  -0.326  -2.527  0.00  0.00    +0.066 C 
ENDROOT
BRANCH  12  18
ATOM     18  N   UNL     1       0.079  -7.528  -6.057  0.00  0.00    -0.358 N 
ATOM     19  H   UNL     1       0.089  -8.423  -5.683  0.00  0.00    +0.142 HD
ATOM     20  H   UNL     1       0.076  -7.406  -7.019  0.00  0.00    +0.142 HD
ENDBRANCH  12  18
TORSDOF 1
