REMARK  Name = ZINC11700081
REMARK  9 active torsions:
REMARK  status: ('A' for Active; 'I' for Inactive)
REMARK    1  A    between atoms: C_4  and  S_24
REMARK    2  A    between atoms: C_5  and  C_7
REMARK    3  A    between atoms: C_7  and  O_9
REMARK    4  A    between atoms: O_9  and  C_10
REMARK    5  A    between atoms: C_10  and  C_11
REMARK    6  A    between atoms: C_13  and  N_21
REMARK    7  A    between atoms: S_24  and  C_25
REMARK    8  A    between atoms: C_25  and  C_26
REMARK    9  A    between atoms: N_28  and  C_29
REMARK                            x       y       z     vdW  Elec       q    Type
REMARK                         _______ _______ _______ _____ _____    ______ ____
ROOT
ATOM      1  C   UNL     1      -1.247   3.533   0.000  0.00  0.00    +0.001 A 
ATOM      2  C   UNL     1      -0.057   4.245  -0.007  0.00  0.00    +0.001 A 
ATOM      3  C   UNL     1       1.153   3.582  -0.013  0.00  0.00    +0.015 A 
ATOM      4  C   UNL     1       1.186   2.192  -0.011  0.00  0.00    +0.022 A 
ATOM      5  C   UNL     1      -0.018   1.469  -0.003  0.00  0.00    +0.072 A 
ATOM      6  C   UNL     1      -1.236   2.156  -0.003  0.00  0.00    +0.016 A 
ENDROOT
BRANCH   5   7
ATOM      7  C   UNL     1       0.002  -0.003  -0.002  0.00  0.00    +0.341 C 
ATOM      8  O   UNL     1       1.062  -0.597  -0.007  0.00  0.00    -0.245 OA
BRANCH   7   9
ATOM      9  O   UNL     1      -1.156  -0.693   0.006  0.00  0.00    -0.456 OA
BRANCH   9  10
ATOM     10  C   UNL     1      -1.061  -2.142   0.007  0.00  0.00    +0.271 C 
BRANCH  10  11
ATOM     11  C   UNL     1      -2.445  -2.736   0.015  0.00  0.00    +0.034 A 
ATOM     12  C   UNL     1      -3.552  -1.910   0.021  0.00  0.00    +0.043 A 
ATOM     13  C   UNL     1      -4.823  -2.455   0.028  0.00  0.00    +0.127 A 
ATOM     14  C   UNL     1      -4.988  -3.828   0.032  0.00  0.00    +0.042 A 
ATOM     15  C   UNL     1      -3.884  -4.659   0.027  0.00  0.00    +0.022 A 
ATOM     16  C   UNL     1      -2.609  -4.115   0.012  0.00  0.00    +0.135 A 
ATOM     17  O   UNL     1      -1.514  -4.921  -0.005  0.00  0.00    -0.465 OA
ATOM     18  C   UNL     1      -1.714  -6.290   0.357  0.00  0.00    +0.394 C 
ATOM     19  O   UNL     1      -2.852  -6.790  -0.355  0.00  0.00    -0.339 OA
ATOM     20  C   UNL     1      -4.076  -6.154   0.038  0.00  0.00    +0.202 C 
BRANCH  13  21
ATOM     21  N   UNL     1      -6.007  -1.568   0.033  0.00  0.00    +0.056 N 
ATOM     22  O   UNL     1      -5.863  -0.359   0.030  0.00  0.00    -0.126 OA
ATOM     23  O   UNL     1      -7.127  -2.047   0.040  0.00  0.00    -0.126 OA
ENDBRANCH  13  21
ENDBRANCH  10  11
ENDBRANCH   9  10
ENDBRANCH   7   9
ENDBRANCH   5   7
BRANCH   4  24
ATOM     24  S   UNL     1       2.730   1.343  -0.019  0.00  0.00    -0.115 S 
BRANCH  24  25
ATOM     25  C   UNL     1       3.864   2.753  -0.027  0.00  0.00    +0.170 C 
BRANCH  25  26
ATOM     26  C   UNL     1       5.286   2.254  -0.035  0.00  0.00    +0.227 C 
ATOM     27  O   UNL     1       5.511   1.062  -0.035  0.00  0.00    -0.275 OA
ATOM     28  N   UNL     1       6.309   3.132  -0.041  0.00  0.00    -0.285 N 
ATOM     29  H   UNL     1       6.131   4.083  -0.109  0.00  0.00    +0.155 HD
BRANCH  28  30
ATOM     30  C   UNL     1       7.628   2.671   0.049  0.00  0.00    +0.034 A 
ATOM     31  C   UNL     1       8.579   3.415   0.736  0.00  0.00    +0.026 A 
ATOM     32  C   UNL     1       9.878   2.956   0.829  0.00  0.00    +0.040 A 
ATOM     33  C   UNL     1      10.235   1.760   0.229  0.00  0.00    +0.124 A 
ATOM     34  C   UNL     1       9.290   1.020  -0.461  0.00  0.00    +0.040 A 
ATOM     35  C   UNL     1       7.989   1.473  -0.552  0.00  0.00    +0.026 A 
ATOM     36  F   UNL     1      11.508   1.316   0.316  0.00  0.00    -0.205 F 
ENDBRANCH  28  30
ENDBRANCH  25  26
ENDBRANCH  24  25
ENDBRANCH   4  24
TORSDOF 9
