REMARK  Name = ZINC38596283
REMARK  13 active torsions:
REMARK  status: ('A' for Active; 'I' for Inactive)
REMARK    1  A    between atoms: C_1  and  C_2
REMARK    2  A    between atoms: C_2  and  O_3
REMARK    3  A    between atoms: O_3  and  C_4
REMARK    4  A    between atoms: C_7  and  S_11
REMARK    5  A    between atoms: C_9  and  C_10
REMARK    6  A    between atoms: S_11  and  N_14
REMARK    7  A    between atoms: N_14  and  C_15
REMARK    8  A    between atoms: C_15  and  C_17
REMARK    9  A    between atoms: C_15  and  C_18
REMARK   10  A    between atoms: C_18  and  C_20
REMARK   11  A    between atoms: C_18  and  N_25
REMARK   12  A    between atoms: N_28  and  C_31
REMARK   13  A    between atoms: C_31  and  C_32
REMARK                            x       y       z     vdW  Elec       q    Type
REMARK                         _______ _______ _______ _____ _____    ______ ____
ROOT
ATOM      1  C   UNL     1      -1.909  -6.145  -4.356  0.00  0.00    +0.112 C 
ENDROOT
BRANCH   1   2
ATOM      2  N   UNL     1      -2.198  -5.785  -5.750  0.00  0.00    -0.297 NA
ATOM      3  C   UNL     1      -1.497  -4.551  -6.131  0.00  0.00    +0.066 C 
ATOM      4  C   UNL     1      -1.775  -4.243  -7.604  0.00  0.00    -0.063 C 
ATOM      5  N   UNL     1      -3.222  -4.087  -7.807  0.00  0.00    +0.384 N 
ATOM      6  C   UNL     1      -3.906  -5.336  -7.446  0.00  0.00    -0.063 C 
ATOM      7  C   UNL     1      -3.645  -5.653  -5.971  0.00  0.00    +0.066 C 
ATOM      8  H   UNL     1      -3.564  -3.337  -7.226  0.00  0.00    -0.081 HD
BRANCH   5   9
ATOM      9  C   UNL     1      -3.487  -3.774  -9.217  0.00  0.00    -0.043 C 
BRANCH   9  10
ATOM     10  C   UNL     1      -4.957  -3.494  -9.402  0.00  0.00    -0.064 A 
ATOM     11  C   UNL     1      -5.825  -4.527  -9.702  0.00  0.00    +0.002 A 
ATOM     12  C   UNL     1      -7.173  -4.270  -9.871  0.00  0.00    +0.000 A 
ATOM     13  C   UNL     1      -7.652  -2.980  -9.740  0.00  0.00    +0.000 A 
ATOM     14  C   UNL     1      -6.784  -1.947  -9.438  0.00  0.00    +0.000 A 
ATOM     15  C   UNL     1      -5.437  -2.205  -9.265  0.00  0.00    +0.002 A 
ENDBRANCH   9  10
ENDBRANCH   5   9
ENDBRANCH   1   2
BRANCH   1  16
ATOM     16  C   UNL     1      -2.539  -5.133  -3.434  0.00  0.00    +0.008 A 
ATOM     17  C   UNL     1      -3.309  -5.340  -2.338  0.00  0.00    +0.013 A 
ATOM     18  C   UNL     1      -3.784  -4.247  -1.637  0.00  0.00    +0.008 A 
ATOM     19  C   UNL     1      -3.466  -3.002  -2.066  0.00  0.00    +0.045 A 
ATOM     20  S   UNL     1      -2.460  -3.351  -3.499  0.00  0.00    -0.100 S 
ENDBRANCH   1  16
BRANCH   1  21
ATOM     21  C   UNL     1      -0.395  -6.162  -4.136  0.00  0.00    +0.095 C 
ATOM     22  C   UNL     1       0.245  -7.189  -5.072  0.00  0.00    +0.027 C 
BRANCH  21  23
ATOM     23  N   UNL     1      -0.107  -6.521  -2.745  0.00  0.00    -0.185 NA
ATOM     24  H   UNL     1      -0.673  -7.158  -2.282  0.00  0.00    +0.148 HD
BRANCH  23  25
ATOM     25  S   UNL     1       1.185  -5.840  -1.965  0.00  0.00    +0.059 S 
ATOM     26  O   UNL     1       2.301  -5.974  -2.834  0.00  0.00    -0.153 OA
ATOM     27  O   UNL     1       1.182  -6.362  -0.643  0.00  0.00    -0.153 OA
BRANCH  25  31
ATOM     28  C   UNL     1       0.348  -1.404  -1.607  0.00  0.00    +0.123 A 
ATOM     29  C   UNL     1      -0.063  -2.272  -0.606  0.00  0.00    +0.048 A 
ATOM     30  C   UNL     1       0.193  -3.625  -0.717  0.00  0.00    +0.032 A 
ATOM     31  C   UNL     1       0.860  -4.114  -1.826  0.00  0.00    +0.106 A 
ATOM     32  C   UNL     1       1.271  -3.252  -2.825  0.00  0.00    +0.035 A 
ATOM     33  C   UNL     1       1.012  -1.899  -2.721  0.00  0.00    -0.007 A 
ATOM     34  C   UNL     1       1.455  -0.960  -3.813  0.00  0.00    +0.047 C 
BRANCH  28  35
ATOM     35  O   UNL     1       0.097  -0.073  -1.500  0.00  0.00    -0.492 OA
BRANCH  35  37
ATOM     36  C   UNL     1      -0.782   1.882  -0.384  0.00  0.00    +0.048 C 
ATOM     37  C   UNL     1      -0.590   0.365  -0.326  0.00  0.00    +0.225 C 
ENDBRANCH  35  37
ENDBRANCH  28  35
ENDBRANCH  25  31
ENDBRANCH  23  25
ENDBRANCH  21  23
ENDBRANCH   1  21
TORSDOF 10
