REMARK  Name = ZINC41150948
REMARK  8 active torsions:
REMARK  status: ('A' for Active; 'I' for Inactive)
REMARK    1  A    between atoms: C_1  and  C_2
REMARK    2  A    between atoms: C_6  and  S_8
REMARK    3  A    between atoms: S_8  and  N_11
REMARK    4  A    between atoms: N_11  and  C_12
REMARK    5  A    between atoms: C_12  and  C_14
REMARK    6  A    between atoms: C_12  and  C_21
REMARK    7  A    between atoms: C_14  and  C_15
REMARK    8  A    between atoms: C_24  and  C_26
REMARK                            x       y       z     vdW  Elec       q    Type
REMARK                         _______ _______ _______ _____ _____    ______ ____
ROOT
ATOM      1  C   UNL     1       2.489  -2.047   3.444  0.00  0.00    +0.168 C 
ENDROOT
BRANCH   1   2
ATOM      2  C   UNL     1       2.503  -1.834   4.936  0.00  0.00    +0.236 A 
ATOM      3  N   UNL     1       2.654  -2.756   5.844  0.00  0.00    -0.111 NA
ATOM      4  N   UNL     1       2.616  -2.215   7.011  0.00  0.00    -0.113 NA
ATOM      5  C   UNL     1       2.439  -0.930   6.887  0.00  0.00    +0.214 A 
ATOM      6  O   UNL     1       2.369  -0.659   5.573  0.00  0.00    -0.423 OA
ATOM      7  C   UNL     1       2.338   0.069   8.011  0.00  0.00    +0.111 C 
ENDBRANCH   1   2
BRANCH   1   8
ATOM      8  N   UNL     1       1.644  -3.200   3.123  0.00  0.00    -0.178 NA
ATOM      9  H   UNL     1       2.014  -4.096   3.154  0.00  0.00    +0.149 HD
BRANCH   8  10
ATOM     10  S   UNL     1       0.057  -2.973   2.709  0.00  0.00    +0.059 S 
ATOM     11  O   UNL     1      -0.500  -2.110   3.691  0.00  0.00    -0.153 OA
ATOM     12  O   UNL     1      -0.479  -4.260   2.433  0.00  0.00    -0.153 OA
BRANCH  10  18
ATOM     13  C   UNL     1      -0.018   1.503   0.010  0.00  0.00    +0.044 C 
ATOM     14  C   UNL     1       0.002  -0.004   0.002  0.00  0.00    -0.049 A 
ATOM     15  C   UNL     1       0.006  -0.689  -1.199  0.00  0.00    +0.003 A 
ATOM     16  C   UNL     1       0.025  -2.071  -1.207  0.00  0.00    +0.002 A 
ATOM     17  C   UNL     1       0.040  -2.768  -0.013  0.00  0.00    +0.028 A 
ATOM     18  C   UNL     1       0.037  -2.084   1.188  0.00  0.00    +0.106 A 
ATOM     19  C   UNL     1       0.023  -0.702   1.195  0.00  0.00    +0.032 A 
ENDBRANCH  10  18
ENDBRANCH   8  10
ENDBRANCH   1   8
BRANCH   1  20
ATOM     20  C   UNL     1       3.914  -2.307   2.952  0.00  0.00    +0.065 C 
BRANCH  20  21
ATOM     21  C   UNL     1       3.917  -2.397   1.448  0.00  0.00    -0.045 A 
ATOM     22  C   UNL     1       3.723  -3.618   0.828  0.00  0.00    +0.004 A 
ATOM     23  C   UNL     1       3.726  -3.700  -0.552  0.00  0.00    +0.000 A 
ATOM     24  C   UNL     1       3.923  -2.563  -1.312  0.00  0.00    +0.000 A 
ATOM     25  C   UNL     1       4.117  -1.343  -0.693  0.00  0.00    +0.000 A 
ATOM     26  C   UNL     1       4.110  -1.259   0.687  0.00  0.00    +0.004 A 
ENDBRANCH  20  21
ENDBRANCH   1  20
TORSDOF 6
