REMARK  Name = ZINC40737823
REMARK  14 active torsions:
REMARK  status: ('A' for Active; 'I' for Inactive)
REMARK    1  A    between atoms: C_1  and  C_2
REMARK    2  A    between atoms: C_2  and  O_3
REMARK    3  A    between atoms: O_3  and  C_4
REMARK    4  A    between atoms: C_6  and  C_19
REMARK    5  A    between atoms: C_9  and  O_10
REMARK    6  A    between atoms: O_10  and  C_11
REMARK    7  A    between atoms: C_11  and  C_12
REMARK    8  A    between atoms: C_19  and  N_20
REMARK    9  A    between atoms: N_20  and  C_21
REMARK   10  A    between atoms: C_21  and  C_22
REMARK   11  A    between atoms: C_22  and  C_23
REMARK   12  A    between atoms: C_23  and  S_24
REMARK   13  A    between atoms: S_24  and  C_25
REMARK   14  A    between atoms: N_29  and  C_30
REMARK                            x       y       z     vdW  Elec       q    Type
REMARK                         _______ _______ _______ _____ _____    ______ ____
ROOT
ATOM      1  C   UNL     1      -0.229  -4.969   0.477  0.00  0.00    -0.047 C 
ENDROOT
BRANCH   1   4
ATOM      2  C   UNL     1       0.777  -1.811  -1.336  0.00  0.00    +0.162 A 
ATOM      3  C   UNL     1       0.243  -2.669  -0.388  0.00  0.00    +0.051 A 
ATOM      4  C   UNL     1       0.352  -4.037  -0.555  0.00  0.00    -0.061 A 
ATOM      5  C   UNL     1       0.992  -4.552  -1.667  0.00  0.00    +0.005 A 
ATOM      6  C   UNL     1       1.526  -3.702  -2.616  0.00  0.00    +0.049 A 
ATOM      7  C   UNL     1       1.416  -2.330  -2.458  0.00  0.00    +0.162 A 
BRANCH   2   8
ATOM      8  O   UNL     1       0.671  -0.465  -1.174  0.00  0.00    -0.489 OA
BRANCH   8  10
ATOM      9  C   UNL     1      -0.019   1.526   0.010  0.00  0.00    +0.048 C 
ATOM     10  C   UNL     1       0.002  -0.004   0.002  0.00  0.00    +0.226 C 
ENDBRANCH   8  10
ENDBRANCH   2   8
BRANCH   7  11
ATOM     11  O   UNL     1       1.936  -1.492  -3.394  0.00  0.00    -0.484 OA
BRANCH  11  12
ATOM     12  C   UNL     1       2.578  -2.095  -4.520  0.00  0.00    +0.264 C 
BRANCH  12  13
ATOM     13  C   UNL     1       3.088  -1.019  -5.443  0.00  0.00    -0.009 A 
ATOM     14  C   UNL     1       2.278  -0.532  -6.452  0.00  0.00    +0.007 A 
ATOM     15  C   UNL     1       2.745   0.455  -7.299  0.00  0.00    +0.002 A 
ATOM     16  C   UNL     1       4.024   0.956  -7.139  0.00  0.00    +0.020 A 
ATOM     17  C   UNL     1       4.835   0.469  -6.130  0.00  0.00    +0.041 A 
ATOM     18  C   UNL     1       4.364  -0.514  -5.278  0.00  0.00    +0.027 A 
ATOM     19 CL   UNL     1       6.441   1.098  -5.927  0.00  0.00    -0.084 Cl
ENDBRANCH  12  13
ENDBRANCH  11  12
ENDBRANCH   7  11
ENDBRANCH   1   4
BRANCH   1  20
ATOM     20  N   UNL     1      -1.621  -5.283   0.127  0.00  0.00    +0.382 N 
ATOM     21  H   UNL     1      -2.161  -4.431   0.100  0.00  0.00    -0.085 HD
ATOM     22  H   UNL     1      -1.647  -5.726  -0.779  0.00  0.00    -0.085 HD
BRANCH  20  23
ATOM     23  C   UNL     1      -2.187  -6.191   1.133  0.00  0.00    -0.081 C 
BRANCH  23  24
ATOM     24  C   UNL     1      -3.636  -6.518   0.767  0.00  0.00    -0.008 C 
BRANCH  24  25
ATOM     25  C   UNL     1      -4.225  -7.464   1.815  0.00  0.00    +0.075 C 
BRANCH  25  26
ATOM     26  S   UNL     1      -5.943  -7.851   1.382  0.00  0.00    -0.084 S 
BRANCH  26  27
ATOM     27  C   UNL     1      -6.473  -8.934   2.667  0.00  0.00    +0.214 A 
ATOM     28  N   UNL     1      -5.757  -9.340   3.693  0.00  0.00    -0.101 NA
ATOM     29  N   UNL     1      -6.446 -10.123   4.442  0.00  0.00    -0.022 NA
ATOM     30  N   UNL     1      -7.632 -10.276   3.961  0.00  0.00    -0.038 NA
ATOM     31  N   UNL     1      -7.699  -9.503   2.788  0.00  0.00    -0.187 N 
BRANCH  31  32
ATOM     32  C   UNL     1      -8.796  -9.354   1.927  0.00  0.00    +0.070 A 
ATOM     33  C   UNL     1      -9.022  -8.141   1.291  0.00  0.00    +0.028 A 
ATOM     34  C   UNL     1     -10.103  -7.997   0.444  0.00  0.00    +0.002 A 
ATOM     35  C   UNL     1     -10.961  -9.061   0.229  0.00  0.00    +0.000 A 
ATOM     36  C   UNL     1     -10.739 -10.270   0.861  0.00  0.00    +0.002 A 
ATOM     37  C   UNL     1      -9.656 -10.421   1.705  0.00  0.00    +0.028 A 
ENDBRANCH  31  32
ENDBRANCH  26  27
ENDBRANCH  25  26
ENDBRANCH  24  25
ENDBRANCH  23  24
ENDBRANCH  20  23
ENDBRANCH   1  20
TORSDOF 13
