REMARK  Name = ZINC04743793
REMARK  5 active torsions:
REMARK  status: ('A' for Active; 'I' for Inactive)
REMARK    1  A    between atoms: N_5  and  C1*_6
REMARK    2  A    between atoms: C2*_8  and  O2*_18
REMARK    3  A    between atoms: C3*_10  and  O3*_17
REMARK    4  A    between atoms: C4*_12  and  C5*_15
REMARK    5  A    between atoms: C5*_15  and  O5*_16
REMARK                            x       y       z     vdW  Elec       q    Type
REMARK                         _______ _______ _______ _____ _____    ______ ____
ROOT
ATOM      1  C   UNL     1       1.308  -0.396  -0.013  0.00  0.00    +0.203 A 
ATOM      2  N   UNL     1       2.087   0.647  -0.014  0.00  0.00    -0.231 NA
ATOM      3  C   UNL     1       1.332   1.774  -0.001  0.00  0.00    +0.140 A 
ATOM      4  C   UNL     1      -0.017   1.368   0.010  0.00  0.00    +0.169 A 
ATOM      5  N   UNL     1       0.002  -0.004   0.002  0.00  0.00    -0.285 N 
ATOM      6  N   UNL     1      -0.969   2.292   0.028  0.00  0.00    -0.195 NA
ATOM      7  C   UNL     1      -0.655   3.577   0.029  0.00  0.00    +0.216 A 
ATOM      8  N   UNL     1       0.604   3.998   0.019  0.00  0.00    -0.206 NA
ATOM      9  C   UNL     1       1.613   3.143   0.004  0.00  0.00    +0.139 A 
ATOM     10 BR   UNL     1       3.400   3.760  -0.010  0.00  0.00    -0.026 Br
ATOM     11  N   UNL     1      -1.674   4.515   0.044  0.00  0.00    -0.327 N 
ATOM     12  H   UNL     1      -1.462   5.462   0.048  0.00  0.00    +0.145 HD
ATOM     13  H   UNL     1      -2.600   4.226   0.051  0.00  0.00    +0.145 HD
ENDROOT
BRANCH   5  14
ATOM     14  C1* UNL     1      -1.167  -0.887   0.009  0.00  0.00    +0.253 C 
ATOM     15  C2* UNL     1      -1.658  -1.118   1.456  0.00  0.00    +0.195 C 
ATOM     16  C3* UNL     1      -2.108  -2.596   1.468  0.00  0.00    +0.178 C 
ATOM     17  C4* UNL     1      -1.837  -3.083   0.027  0.00  0.00    +0.177 C 
ATOM     18  O4* UNL     1      -0.809  -2.200  -0.473  0.00  0.00    -0.346 OA
BRANCH  16  19
ATOM     19  O3* UNL     1      -1.337  -3.347   2.407  0.00  0.00    -0.386 OA
ATOM     20  H3* UNL     1      -1.577  -4.282   2.456  0.00  0.00    +0.210 HD
ENDBRANCH  16  19
BRANCH  15  21
ATOM     21  O2* UNL     1      -2.758  -0.256   1.755  0.00  0.00    -0.385 OA
ATOM     22  H2* UNL     1      -3.106  -0.359   2.651  0.00  0.00    +0.210 HD
ENDBRANCH  15  21
BRANCH  17  23
ATOM     23  C5* UNL     1      -1.337  -4.529   0.039  0.00  0.00    +0.190 C 
BRANCH  23  24
ATOM     24  O5* UNL     1      -1.203  -4.998  -1.304  0.00  0.00    -0.392 OA
ATOM     25  H5* UNL     1      -0.890  -5.910  -1.373  0.00  0.00    +0.210 HD
ENDBRANCH  23  24
ENDBRANCH  17  23
ENDBRANCH   5  14
TORSDOF 5
