REMARK  Name = ZINC01374671
REMARK  12 active torsions:
REMARK  status: ('A' for Active; 'I' for Inactive)
REMARK    1  A    between atoms: C_1  and  C_2
REMARK    2  A    between atoms: C_2  and  C_3
REMARK    3  A    between atoms: C_3  and  C_5
REMARK    4  A    between atoms: C_3  and  N_17
REMARK    5  A    between atoms: N_9  and  C_10
REMARK    6  A    between atoms: C_10  and  C_11
REMARK    7  A    between atoms: N_17  and  C_18
REMARK    8  A    between atoms: N_17  and  C_28
REMARK    9  A    between atoms: C_18  and  C_19
REMARK   10  A    between atoms: C_28  and  C_29
REMARK   11  A    between atoms: C_34  and  O_41
REMARK   12  A    between atoms: O_41  and  C_42
REMARK                            x       y       z     vdW  Elec       q    Type
REMARK                         _______ _______ _______ _____ _____    ______ ____
ROOT
ATOM      1  N   UNL     1      -0.160  -0.269  -2.480  0.00  0.00    -0.284 NA
ENDROOT
BRANCH   1   2
ATOM      2  C   UNL     1       0.882  -0.591  -1.496  0.00  0.00    +0.127 C 
BRANCH   2   3
ATOM      3  C   UNL     1       2.238  -0.320  -2.094  0.00  0.00    +0.169 A 
ATOM      4  N   UNL     1       2.644  -0.652  -3.295  0.00  0.00    -0.112 NA
ATOM      5  N   UNL     1       3.860  -0.246  -3.430  0.00  0.00    -0.023 NA
ATOM      6  N   UNL     1       4.240   0.335  -2.346  0.00  0.00    -0.044 NA
ATOM      7  N   UNL     1       3.266   0.315  -1.500  0.00  0.00    -0.223 N 
BRANCH   7   8
ATOM      8  C   UNL     1       3.278   0.875  -0.146  0.00  0.00    +0.182 C 
BRANCH   8   9
ATOM      9  C   UNL     1       3.754  -0.173   0.826  0.00  0.00    -0.026 A 
ATOM     10  C   UNL     1       2.844  -1.022   1.428  0.00  0.00    +0.005 A 
ATOM     11  C   UNL     1       3.280  -1.983   2.321  0.00  0.00    +0.000 A 
ATOM     12  C   UNL     1       4.627  -2.096   2.610  0.00  0.00    +0.000 A 
ATOM     13  C   UNL     1       5.538  -1.248   2.007  0.00  0.00    +0.000 A 
ATOM     14  C   UNL     1       5.101  -0.290   1.112  0.00  0.00    +0.005 A 
ENDBRANCH   8   9
ENDBRANCH   7   8
ENDBRANCH   2   3
BRANCH   2  16
ATOM     15  C   UNL     1      -0.550  -2.318  -0.397  0.00  0.00    +0.006 C 
ATOM     16  C   UNL     1       0.780  -2.067  -1.110  0.00  0.00    +0.023 C 
ENDBRANCH   2  16
ENDBRANCH   1   2
BRANCH   1  17
ATOM     17  C   UNL     1       0.087  -0.958  -3.753  0.00  0.00    +0.120 C 
BRANCH  17  18
ATOM     18  C   UNL     1      -1.169  -0.943  -4.586  0.00  0.00    -0.030 A 
ATOM     19  C   UNL     1      -2.141  -1.906  -4.385  0.00  0.00    +0.009 A 
ATOM     20  C   UNL     1      -3.296  -1.895  -5.146  0.00  0.00    +0.050 A 
ATOM     21  C   UNL     1      -3.481  -0.919  -6.112  0.00  0.00    +0.166 A 
ATOM     22  C   UNL     1      -2.502   0.050  -6.313  0.00  0.00    +0.167 A 
ATOM     23  C   UNL     1      -1.350   0.037  -5.543  0.00  0.00    +0.054 A 
ATOM     24  O   UNL     1      -2.916   0.888  -7.308  0.00  0.00    -0.453 OA
ATOM     25  C   UNL     1      -3.969   0.182  -7.991  0.00  0.00    +0.466 C 
ATOM     26  O   UNL     1      -4.508  -0.690  -6.980  0.00  0.00    -0.453 OA
ENDBRANCH  17  18
ENDBRANCH   1  17
BRANCH   1  27
ATOM     27  C   UNL     1      -0.266   1.183  -2.680  0.00  0.00    +0.126 C 
BRANCH  27  28
ATOM     28  C   UNL     1      -0.991   1.799  -1.511  0.00  0.00    +0.031 A 
ATOM     29  C   UNL     1      -0.284   2.365  -0.499  0.00  0.00    +0.020 A 
ATOM     30  C   UNL     1      -1.017   2.955   0.620  0.00  0.00    -0.001 A 
ATOM     31  C   UNL     1      -0.341   3.553   1.691  0.00  0.00    +0.013 A 
ATOM     32  C   UNL     1      -1.051   4.095   2.722  0.00  0.00    +0.046 A 
ATOM     33  C   UNL     1      -2.445   4.059   2.718  0.00  0.00    +0.122 A 
ATOM     34  C   UNL     1      -3.131   3.473   1.669  0.00  0.00    +0.072 A 
ATOM     35  C   UNL     1      -2.425   2.916   0.611  0.00  0.00    +0.053 A 
ATOM     36  N   UNL     1      -3.083   2.326  -0.448  0.00  0.00    -0.322 N 
ATOM     37  H   UNL     1      -4.053   2.300  -0.454  0.00  0.00    +0.169 HD
ATOM     38  C   UNL     1      -2.400   1.791  -1.475  0.00  0.00    +0.254 A 
ATOM     39  O   UNL     1      -3.015   1.282  -2.397  0.00  0.00    -0.268 OA
BRANCH  33  40
ATOM     40  O   UNL     1      -3.135   4.604   3.753  0.00  0.00    -0.495 OA
ATOM     41  C   UNL     1      -2.369   5.193   4.805  0.00  0.00    +0.277 C 
ENDBRANCH  33  40
ENDBRANCH  27  28
ENDBRANCH   1  27
TORSDOF 10
