REMARK  Name = ZINC38597095
REMARK  11 active torsions:
REMARK  status: ('A' for Active; 'I' for Inactive)
REMARK    1  A    between atoms: C_1  and  C_2
REMARK    2  A    between atoms: C_4  and  N_37
REMARK    3  A    between atoms: C_7  and  N_8
REMARK    4  A    between atoms: C_9  and  C_11
REMARK    5  A    between atoms: N_13  and  C_14
REMARK    6  A    between atoms: C_14  and  C_16
REMARK    7  A    between atoms: C_14  and  C_17
REMARK    8  A    between atoms: C_17  and  C_19
REMARK    9  A    between atoms: C_17  and  N_24
REMARK   10  A    between atoms: N_27  and  C_30
REMARK   11  A    between atoms: C_30  and  C_31
REMARK                            x       y       z     vdW  Elec       q    Type
REMARK                         _______ _______ _______ _____ _____    ______ ____
ROOT
ATOM      1  C   UNL     1      -0.356   0.090   7.298  0.00  0.00    +0.092 C 
ATOM      2  C   UNL     1      -1.823   0.433   7.566  0.00  0.00    +0.030 C 
ENDROOT
BRANCH   1   5
ATOM      3  C   UNL     1      -0.167   0.044   4.869  0.00  0.00    +0.300 C 
ATOM      4  O   UNL     1      -0.183   1.257   4.874  0.00  0.00    -0.265 OA
ATOM      5  N   UNL     1      -0.248  -0.636   6.030  0.00  0.00    -0.303 N 
ATOM      6  H   UNL     1      -0.235  -1.606   6.026  0.00  0.00    +0.149 HD
BRANCH   3   8
ATOM      7  N   UNL     1       0.025  -0.016   2.416  0.00  0.00    -0.278 N 
ATOM      8  C   UNL     1      -0.056  -0.696   3.577  0.00  0.00    +0.303 C 
ATOM      9  O   UNL     1      -0.040  -1.910   3.572  0.00  0.00    -0.265 OA
ATOM     10  H   UNL     1       0.078   0.952   2.424  0.00  0.00    +0.155 HD
BRANCH   7  17
ATOM     11  C   UNL     1      -1.268   1.182   0.182  0.00  0.00    +0.046 C 
ATOM     12  C   UNL     1      -0.586  -0.159   0.085  0.00  0.00    -0.027 A 
ATOM     13  C   UNL     1      -0.571  -0.841  -1.116  0.00  0.00    +0.038 A 
ATOM     14  C   UNL     1       0.055  -2.071  -1.206  0.00  0.00    +0.127 A 
ATOM     15  C   UNL     1       0.667  -2.622  -0.095  0.00  0.00    +0.034 A 
ATOM     16  C   UNL     1       0.655  -1.946   1.108  0.00  0.00    +0.026 A 
ATOM     17  C   UNL     1       0.033  -0.706   1.201  0.00  0.00    +0.037 A 
BRANCH  14  18
ATOM     18  N   UNL     1       0.069  -2.799  -2.495  0.00  0.00    +0.056 N 
ATOM     19  O   UNL     1      -0.467  -2.319  -3.467  0.00  0.00    -0.126 OA
ATOM     20  O   UNL     1       0.615  -3.874  -2.575  0.00  0.00    -0.126 OA
ENDBRANCH  14  18
ENDBRANCH   7  17
ENDBRANCH   3   8
ENDBRANCH   1   5
BRANCH   1  21
ATOM     21  C   UNL     1       0.178  -0.785   8.434  0.00  0.00    +0.113 C 
BRANCH  21  22
ATOM     22  N   UNL     1      -0.040  -0.107   9.719  0.00  0.00    -0.297 NA
ATOM     23  C   UNL     1       0.581   1.226   9.723  0.00  0.00    +0.066 C 
ATOM     24  C   UNL     1       0.281   1.920  11.053  0.00  0.00    -0.063 C 
ATOM     25  N   UNL     1       0.810   1.111  12.158  0.00  0.00    +0.384 N 
ATOM     26  C   UNL     1       0.164  -0.207  12.156  0.00  0.00    -0.063 C 
ATOM     27  C   UNL     1       0.463  -0.920  10.835  0.00  0.00    +0.066 C 
ATOM     28  H   UNL     1       1.807   0.998  12.044  0.00  0.00    -0.081 HD
BRANCH  25  29
ATOM     29  C   UNL     1       0.538   1.788  13.434  0.00  0.00    -0.043 C 
BRANCH  29  30
ATOM     30  C   UNL     1       1.188   1.022  14.557  0.00  0.00    -0.064 A 
ATOM     31  C   UNL     1       0.491   0.016  15.201  0.00  0.00    +0.002 A 
ATOM     32  C   UNL     1       1.087  -0.687  16.232  0.00  0.00    +0.000 A 
ATOM     33  C   UNL     1       2.379  -0.385  16.618  0.00  0.00    +0.000 A 
ATOM     34  C   UNL     1       3.076   0.621  15.974  0.00  0.00    +0.000 A 
ATOM     35  C   UNL     1       2.482   1.321  14.940  0.00  0.00    +0.002 A 
ENDBRANCH  29  30
ENDBRANCH  25  29
ENDBRANCH  21  22
BRANCH  21  36
ATOM     36  C   UNL     1      -0.547  -2.106   8.434  0.00  0.00    +0.009 A 
ATOM     37  C   UNL     1      -0.141  -3.303   7.944  0.00  0.00    +0.013 A 
ATOM     38  C   UNL     1      -0.982  -4.394   8.056  0.00  0.00    +0.008 A 
ATOM     39  C   UNL     1      -2.188  -4.235   8.654  0.00  0.00    +0.045 A 
ATOM     40  S   UNL     1      -2.160  -2.503   9.087  0.00  0.00    -0.100 S 
ENDBRANCH  21  36
ENDBRANCH   1  21
TORSDOF 9
