REMARK  Name = ZINC00205898
REMARK  3 active torsions:
REMARK  status: ('A' for Active; 'I' for Inactive)
REMARK    1  A    between atoms: C_1  and  C_2
REMARK    2  A    between atoms: C_5  and  C_8
REMARK    3  A    between atoms: C_11  and  C_19
REMARK                            x       y       z     vdW  Elec       q    Type
REMARK                         _______ _______ _______ _____ _____    ______ ____
ROOT
ATOM      1  C   UNL     1       0.059  -4.275  -0.021  0.00  0.00    +0.106 C 
ATOM      2  C   UNL     1       1.488  -4.773   0.227  0.00  0.00    +0.059 C 
ATOM      3  C   UNL     1       2.007  -4.212   1.557  0.00  0.00    +0.147 C 
ATOM      4  N   UNL     1       1.002  -4.446   2.593  0.00  0.00    -0.226 N 
ATOM      5  C   UNL     1      -0.303  -4.715   2.344  0.00  0.00    +0.215 A 
ATOM      6  N   UNL     1      -0.909  -4.871   3.489  0.00  0.00    -0.202 NA
ATOM      7  C   UNL     1      -0.031  -4.708   4.485  0.00  0.00    +0.247 A 
ATOM      8  N   UNL     1       1.148  -4.447   3.980  0.00  0.00    -0.156 NA
ATOM      9  N   UNL     1      -0.815  -4.788   1.051  0.00  0.00    -0.307 N 
ATOM     10  H   UNL     1      -1.693  -5.155   0.864  0.00  0.00    +0.149 HD
ENDROOT
BRANCH   3  11
ATOM     11  C   UNL     1       3.292  -4.906   1.930  0.00  0.00    +0.031 A 
ATOM     12  C   UNL     1       3.310  -6.279   2.113  0.00  0.00    +0.130 A 
ATOM     13  C   UNL     1       4.491  -6.915   2.456  0.00  0.00    +0.039 A 
ATOM     14  C   UNL     1       5.651  -6.181   2.616  0.00  0.00    +0.004 A 
ATOM     15  C   UNL     1       5.633  -4.811   2.433  0.00  0.00    +0.020 A 
ATOM     16  C   UNL     1       4.455  -4.174   2.085  0.00  0.00    +0.049 A 
ATOM     17 CL   UNL     1       4.435  -2.454   1.849  0.00  0.00    -0.083 Cl
ATOM     18  F   UNL     1       2.176  -6.996   1.957  0.00  0.00    -0.205 F 
ENDBRANCH   3  11
BRANCH   1  23
ATOM     19  C   UNL     1      -0.018   1.503   0.010  0.00  0.00    +0.044 C 
ATOM     20  C   UNL     1       0.002  -0.004   0.002  0.00  0.00    -0.050 A 
ATOM     21  C   UNL     1       0.006  -0.689  -1.199  0.00  0.00    +0.004 A 
ATOM     22  C   UNL     1       0.025  -2.071  -1.206  0.00  0.00    +0.006 A 
ATOM     23  C   UNL     1       0.040  -2.768  -0.013  0.00  0.00    -0.027 A 
ATOM     24  C   UNL     1       0.037  -2.084   1.188  0.00  0.00    +0.006 A 
ATOM     25  C   UNL     1       0.023  -0.702   1.195  0.00  0.00    +0.004 A 
ENDBRANCH   1  23
TORSDOF 2
