REMARK  Name = ZINC02356139
REMARK  5 active torsions:
REMARK  status: ('A' for Active; 'I' for Inactive)
REMARK    1  A    between atoms: C_4  and  C_7
REMARK    2  A    between atoms: C_14  and  S_28
REMARK    3  A    between atoms: C_19  and  C_22
REMARK    4  A    between atoms: S_28  and  C_29
REMARK    5  A    between atoms: C_29  and  C_30
REMARK                            x       y       z     vdW  Elec       q    Type
REMARK                         _______ _______ _______ _____ _____    ______ ____
ROOT
ATOM      1  C   UNL     1       5.977   2.473  -0.869  0.00  0.00    +0.082 C 
ATOM      2  C   UNL     1       4.928   1.574  -0.229  0.00  0.00    +0.055 C 
ATOM      3  C   UNL     1       3.547   2.219  -0.226  0.00  0.00    -0.022 A 
ATOM      4  C   UNL     1       2.360   1.350  -0.112  0.00  0.00    +0.051 A 
ATOM      5  C   UNL     1       2.321  -0.070  -0.018  0.00  0.00    +0.129 A 
ATOM      6  N   UNL     1       1.149  -0.675   0.082  0.00  0.00    -0.207 NA
ATOM      7  C   UNL     1       0.005  -0.001   0.100  0.00  0.00    +0.191 A 
ATOM      8  N   UNL     1      -0.016   1.323   0.015  0.00  0.00    -0.214 NA
ATOM      9  C   UNL     1       1.114   1.997  -0.090  0.00  0.00    +0.115 A 
ATOM     10  S   UNL     1       1.545   3.710  -0.229  0.00  0.00    -0.072 S 
ATOM     11  C   UNL     1       3.315   3.537  -0.308  0.00  0.00    +0.013 A 
ATOM     12  C   UNL     1       4.276   4.687  -0.449  0.00  0.00    +0.114 C 
ATOM     13  S   UNL     1       5.946   4.091  -0.037  0.00  0.00    -0.139 S 
ATOM     14  N   UNL     1       3.491  -0.806  -0.032  0.00  0.00    -0.343 N 
ATOM     15  H   UNL     1       3.494  -1.706  -0.392  0.00  0.00    +0.144 HD
ATOM     16  H   UNL     1       4.310  -0.421   0.318  0.00  0.00    +0.144 HD
ENDROOT
BRANCH   1  20
ATOM     17  C   UNL     1       9.841   0.707  -0.423  0.00  0.00    +0.000 A 
ATOM     18  C   UNL     1       9.344   0.973  -1.685  0.00  0.00    +0.000 A 
ATOM     19  C   UNL     1       8.093   1.544  -1.830  0.00  0.00    +0.005 A 
ATOM     20  C   UNL     1       7.340   1.849  -0.712  0.00  0.00    -0.034 A 
ATOM     21  C   UNL     1       7.839   1.589   0.551  0.00  0.00    +0.005 A 
ATOM     22  C   UNL     1       9.087   1.012   0.695  0.00  0.00    +0.000 A 
ENDBRANCH   1  20
BRANCH  12  23
ATOM     23  C   UNL     1       3.884   5.794   0.495  0.00  0.00    -0.030 A 
ATOM     24  C   UNL     1       3.839   5.559   1.856  0.00  0.00    +0.005 A 
ATOM     25  C   UNL     1       3.484   6.577   2.722  0.00  0.00    +0.000 A 
ATOM     26  C   UNL     1       3.164   7.826   2.226  0.00  0.00    +0.000 A 
ATOM     27  C   UNL     1       3.203   8.060   0.864  0.00  0.00    +0.000 A 
ATOM     28  C   UNL     1       3.563   7.044  -0.002  0.00  0.00    +0.005 A 
ENDBRANCH  12  23
BRANCH   7  29
ATOM     29  S   UNL     1      -1.515  -0.882   0.238  0.00  0.00    -0.077 S 
BRANCH  29  30
ATOM     30  C   UNL     1      -0.889  -2.579   0.315  0.00  0.00    +0.172 C 
BRANCH  30  31
ATOM     31  C   UNL     1      -2.046  -3.536   0.439  0.00  0.00    +0.221 C 
ATOM     32  O   UNL     1      -3.182  -3.112   0.472  0.00  0.00    -0.275 OA
ATOM     33  N   UNL     1      -1.819  -4.862   0.513  0.00  0.00    -0.329 N 
ATOM     34  H   UNL     1      -0.910  -5.201   0.486  0.00  0.00    +0.145 HD
ATOM     35  H   UNL     1      -2.564  -5.478   0.593  0.00  0.00    +0.145 HD
ENDBRANCH  30  31
ENDBRANCH  29  30
ENDBRANCH   7  29
TORSDOF 5
