REMARK  Name = ZINC11287192
REMARK  8 active torsions:
REMARK  status: ('A' for Active; 'I' for Inactive)
REMARK    1  A    between atoms: C_1  and  C_2
REMARK    2  A    between atoms: C_2  and  C_4
REMARK    3  A    between atoms: C_2  and  N_10
REMARK    4  A    between atoms: C_11  and  C_13
REMARK    5  A    between atoms: C_13  and  C_29
REMARK    6  A    between atoms: C_14  and  C_15
REMARK    7  A    between atoms: C_18  and  C_20
REMARK    8  A    between atoms: C_25  and  N_26
REMARK                            x       y       z     vdW  Elec       q    Type
REMARK                         _______ _______ _______ _____ _____    ______ ____
ROOT
ATOM      1  C   UNL     1       5.229   7.402  -1.798  0.00  0.00    +0.114 C 
ATOM      2  C   UNL     1       5.494   6.524  -0.756  0.00  0.00    +0.039 C 
ENDROOT
BRANCH   2   3
ATOM      3  C   UNL     1       4.532   5.573  -0.378  0.00  0.00    +0.014 A 
ATOM      4  C   UNL     1       4.599   4.610   0.631  0.00  0.00    +0.016 A 
ATOM      5  C   UNL     1       3.528   3.790   0.822  0.00  0.00    +0.017 A 
ATOM      6  C   UNL     1       2.418   3.937   0.000  0.00  0.00    +0.022 A 
ATOM      7  S   UNL     1       2.908   5.286  -1.062  0.00  0.00    -0.089 S 
BRANCH   6   8
ATOM      8  C   UNL     1       1.152   3.177   0.008  0.00  0.00    +0.019 A 
ATOM      9  C   UNL     1       1.173   1.780   0.000  0.00  0.00    +0.011 A 
ATOM     10  C   UNL     1      -0.013   1.076   0.008  0.00  0.00    +0.001 A 
ATOM     11  C   UNL     1      -1.221   1.750   0.017  0.00  0.00    +0.002 A 
ATOM     12  C   UNL     1      -1.249   3.133   0.030  0.00  0.00    +0.033 A 
ATOM     13  C   UNL     1      -0.071   3.850   0.022  0.00  0.00    +0.134 A 
BRANCH  13  14
ATOM     14  N   UNL     1      -0.103   5.330   0.031  0.00  0.00    +0.057 N 
ATOM     15  O   UNL     1      -1.171   5.916   0.044  0.00  0.00    -0.126 OA
ATOM     16  O   UNL     1       0.938   5.962   0.025  0.00  0.00    -0.126 OA
ENDBRANCH  13  14
ENDBRANCH   6   8
ENDBRANCH   2   3
BRANCH   1  18
ATOM     17  N   UNL     1       5.977   9.249  -3.205  0.00  0.00    -0.304 N 
ATOM     18  C   UNL     1       6.234   8.396  -2.194  0.00  0.00    +0.255 C 
ATOM     19  O   UNL     1       7.300   8.450  -1.609  0.00  0.00    -0.269 OA
ATOM     20  H   UNL     1       5.128   9.206  -3.671  0.00  0.00    +0.150 HD
BRANCH  17  22
ATOM     21  C   UNL     1       7.967   9.605  -4.582  0.00  0.00    +0.033 C 
ATOM     22  C   UNL     1       6.980  10.241  -3.600  0.00  0.00    +0.100 C 
BRANCH  22  23
ATOM     23  C   UNL     1       6.298  11.410  -4.261  0.00  0.00    -0.027 A 
ATOM     24  C   UNL     1       5.246  11.195  -5.133  0.00  0.00    +0.005 A 
ATOM     25  C   UNL     1       4.617  12.268  -5.735  0.00  0.00    +0.000 A 
ATOM     26  C   UNL     1       5.045  13.556  -5.473  0.00  0.00    +0.000 A 
ATOM     27  C   UNL     1       6.100  13.771  -4.606  0.00  0.00    +0.000 A 
ATOM     28  C   UNL     1       6.726  12.698  -4.000  0.00  0.00    +0.005 A 
ENDBRANCH  22  23
ENDBRANCH  17  22
ENDBRANCH   1  18
BRANCH   1  29
ATOM     29  C   UNL     1       3.975   7.339  -2.486  0.00  0.00    +0.104 C 
ATOM     30  N   UNL     1       2.980   7.289  -3.033  0.00  0.00    -0.191 NA
ENDBRANCH   1  29
TORSDOF 7
