REMARK  Name = ZINC52011323
REMARK  3 active torsions:
REMARK  status: ('A' for Active; 'I' for Inactive)
REMARK    1  A    between atoms: C_4  and  O_21
REMARK    2  A    between atoms: C_6  and  N_9
REMARK    3  A    between atoms: C_16  and  C_18
REMARK                            x       y       z     vdW  Elec       q    Type
REMARK                         _______ _______ _______ _____ _____    ______ ____
ROOT
ATOM      1  N   UNL     1       0.738  -1.962  -1.265  0.00  0.00    -0.294 N 
ATOM      2  C   UNL     1      -0.315  -2.648  -1.752  0.00  0.00    +0.304 C 
ATOM      3  O   UNL     1      -1.282  -2.051  -2.184  0.00  0.00    -0.253 OA
ATOM      4  N   UNL     1      -0.297  -3.995  -1.759  0.00  0.00    -0.262 N 
ATOM      5  C   UNL     1       0.856  -4.761  -1.237  0.00  0.00    +0.179 C 
ATOM      6  S   UNL     1       0.066  -6.387  -0.860  0.00  0.00    -0.139 S 
ATOM      7  C   UNL     1      -1.219  -6.306  -2.186  0.00  0.00    +0.105 C 
ATOM      8  C   UNL     1      -1.411  -4.772  -2.275  0.00  0.00    +0.201 C 
ATOM      9  H   UNL     1       1.509  -2.439  -0.920  0.00  0.00    +0.151 HD
ENDROOT
BRANCH   1  14
ATOM     10  C   UNL     1      -0.019   1.526   0.010  0.00  0.00    +0.002 C 
ATOM     11  C   UNL     1       1.417   2.055  -0.000  0.00  0.00    +0.003 C 
ATOM     12  C   UNL     1       2.133   1.562  -1.259  0.00  0.00    +0.033 C 
ATOM     13  C   UNL     1       2.154   0.032  -1.268  0.00  0.00    +0.135 C 
ATOM     14  C   UNL     1       0.718  -0.497  -1.257  0.00  0.00    +0.103 C 
ATOM     15  C   UNL     1       0.002  -0.004   0.002  0.00  0.00    +0.025 C 
BRANCH  13  16
ATOM     16  O   UNL     1       2.845  -0.441  -0.110  0.00  0.00    -0.390 OA
ATOM     17  H   UNL     1       3.763  -0.144  -0.051  0.00  0.00    +0.210 HD
ENDBRANCH  13  16
ENDBRANCH   1  14
BRANCH   8  18
ATOM     18  C   UNL     1      -1.622  -4.404  -3.721  0.00  0.00    +0.377 C 
ATOM     19  O   UNL     1      -0.677  -4.047  -4.403  0.00  0.00    -0.244 OA
ATOM     20  O   UNL     1      -2.738  -4.463  -4.209  0.00  0.00    -0.244 OA
ENDBRANCH   8  18
TORSDOF 3
