REMARK  Name = ZINC40611891
REMARK  8 active torsions:
REMARK  status: ('A' for Active; 'I' for Inactive)
REMARK    1  A    between atoms: C_1  and  C_2
REMARK    2  A    between atoms: C_2  and  C_4
REMARK    3  A    between atoms: C_2  and  N_10
REMARK    4  A    between atoms: C_12  and  N_36
REMARK    5  A    between atoms: C_13  and  N_17
REMARK    6  A    between atoms: N_20  and  C_23
REMARK    7  A    between atoms: C_23  and  C_24
REMARK    8  A    between atoms: C_23  and  C_30
REMARK                            x       y       z     vdW  Elec       q    Type
REMARK                         _______ _______ _______ _____ _____    ______ ____
ROOT
ATOM      1  N   UNL     1       2.833   1.933   0.762  0.00  0.00    -0.321 N 
ATOM      2  C   UNL     1       3.144   0.596   0.961  0.00  0.00    +0.155 A 
ATOM      3  C   UNL     1       3.786   0.187   2.126  0.00  0.00    +0.205 A 
ATOM      4  C   UNL     1       4.076  -1.165   2.279  0.00  0.00    +0.157 A 
ATOM      5  N   UNL     1       3.731  -2.013   1.312  0.00  0.00    -0.218 NA
ATOM      6  C   UNL     1       3.123  -1.587   0.223  0.00  0.00    +0.225 A 
ATOM      7  N   UNL     1       2.827  -0.315   0.044  0.00  0.00    -0.218 NA
ATOM      8  H   UNL     1       3.067   2.591   1.435  0.00  0.00    +0.148 HD
ENDROOT
BRANCH   4   9
ATOM      9  N   UNL     1       4.716  -1.623   3.420  0.00  0.00    -0.311 N 
ATOM     10  C   UNL     1       3.945  -2.047   4.599  0.00  0.00    +0.122 C 
ATOM     11  C   UNL     1       4.429  -3.438   5.022  0.00  0.00    +0.104 C 
ATOM     12  N   UNL     1       5.886  -3.409   5.210  0.00  0.00    -0.289 NA
ATOM     13  C   UNL     1       6.579  -3.101   3.953  0.00  0.00    +0.104 C 
ATOM     14  C   UNL     1       6.183  -1.702   3.483  0.00  0.00    +0.122 C 
BRANCH  12  15
ATOM     15  C   UNL     1       6.367  -4.674   5.782  0.00  0.00    +0.117 C 
BRANCH  15  16
ATOM     16  C   UNL     1       7.862  -4.607   5.960  0.00  0.00    -0.026 A 
ATOM     17  C   UNL     1       8.453  -3.443   6.416  0.00  0.00    +0.005 A 
ATOM     18  C   UNL     1       9.824  -3.382   6.580  0.00  0.00    +0.000 A 
ATOM     19  C   UNL     1      10.605  -4.485   6.287  0.00  0.00    +0.000 A 
ATOM     20  C   UNL     1      10.014  -5.649   5.832  0.00  0.00    +0.000 A 
ATOM     21  C   UNL     1       8.643  -5.711   5.673  0.00  0.00    +0.005 A 
ENDBRANCH  15  16
BRANCH  15  22
ATOM     22  C   UNL     1       5.712  -4.903   7.119  0.00  0.00    -0.026 A 
ATOM     23  C   UNL     1       5.521  -3.844   7.986  0.00  0.00    +0.005 A 
ATOM     24  C   UNL     1       4.920  -4.054   9.213  0.00  0.00    +0.000 A 
ATOM     25  C   UNL     1       4.509  -5.324   9.572  0.00  0.00    +0.000 A 
ATOM     26  C   UNL     1       4.699  -6.383   8.705  0.00  0.00    +0.000 A 
ATOM     27  C   UNL     1       5.296  -6.172   7.476  0.00  0.00    +0.005 A 
ENDBRANCH  15  22
ENDBRANCH  12  15
ENDBRANCH   4   9
BRANCH   3  28
ATOM     28  N   UNL     1       4.153   1.166   3.175  0.00  0.00    +0.063 N 
ATOM     29  O   UNL     1       3.372   1.422   4.061  0.00  0.00    -0.126 OA
ATOM     30  O   UNL     1       5.233   1.708   3.145  0.00  0.00    -0.126 OA
ENDBRANCH   3  28
BRANCH   1  32
ATOM     31  C   UNL     1       3.184   2.578  -1.571  0.00  0.00    +0.033 C 
ATOM     32  C   UNL     1       2.151   2.350  -0.466  0.00  0.00    +0.099 C 
BRANCH  32  33
ATOM     33  C   UNL     1       1.398   3.631  -0.211  0.00  0.00    -0.028 A 
ATOM     34  C   UNL     1       1.966   4.624   0.565  0.00  0.00    +0.005 A 
ATOM     35  C   UNL     1       1.276   5.799   0.798  0.00  0.00    +0.000 A 
ATOM     36  C   UNL     1       0.017   5.980   0.256  0.00  0.00    +0.000 A 
ATOM     37  C   UNL     1      -0.551   4.987  -0.520  0.00  0.00    +0.000 A 
ATOM     38  C   UNL     1       0.142   3.815  -0.757  0.00  0.00    +0.005 A 
ENDBRANCH  32  33
ENDBRANCH   1  32
TORSDOF 7
