REMARK  Name = ZINC33673304
REMARK  13 active torsions:
REMARK  status: ('A' for Active; 'I' for Inactive)
REMARK    1  A    between atoms: C_1  and  C_2
REMARK    2  A    between atoms: C_2  and  C_3
REMARK    3  A    between atoms: C_3  and  N_4
REMARK    4  A    between atoms: N_4  and  C_5
REMARK    5  A    between atoms: C_5  and  C_6
REMARK    6  A    between atoms: C_16  and  C_18
REMARK    7  A    between atoms: C_21  and  C_24
REMARK    8  A    between atoms: C_24  and  C_25
REMARK    9  A    between atoms: C_24  and  C_26
REMARK   10  A    between atoms: N_29  and  C_30
REMARK   11  A    between atoms: C_35  and  O_36
REMARK   12  A    between atoms: O_36  and  C_37
REMARK   13  A    between atoms: C_37  and  C_38
REMARK                            x       y       z     vdW  Elec       q    Type
REMARK                         _______ _______ _______ _____ _____    ______ ____
ROOT
ATOM      1  C   UNL     1      -0.694   4.342   5.039  0.00  0.00    +0.234 C 
ATOM      2  O   UNL     1      -0.158   3.671   4.183  0.00  0.00    -0.274 OA
ATOM      3  N   UNL     1      -1.974   4.098   5.384  0.00  0.00    -0.286 N 
ATOM      4  C   UNL     1      -2.674   4.955   6.353  0.00  0.00    +0.130 C 
ATOM      5  C   UNL     1      -3.841   5.660   5.654  0.00  0.00    +0.140 C 
ATOM      6  N   UNL     1      -4.586   4.682   4.852  0.00  0.00    -0.347 N 
ATOM      7  C   UNL     1      -5.854   4.812   4.375  0.00  0.00    +0.086 A 
ATOM      8  C   UNL     1      -6.158   3.699   3.676  0.00  0.00    +0.019 A 
ATOM      9  C   UNL     1      -5.036   2.846   3.726  0.00  0.00    +0.025 A 
ATOM     10  C   UNL     1      -4.095   3.469   4.453  0.00  0.00    +0.044 A 
ATOM     11  C   UNL     1      -2.714   2.963   4.801  0.00  0.00    +0.153 C 
ENDROOT
BRANCH  11  12
ATOM     12  C   UNL     1      -2.015   2.478   3.557  0.00  0.00    -0.021 A 
ATOM     13  C   UNL     1      -1.882   3.317   2.467  0.00  0.00    +0.006 A 
ATOM     14  C   UNL     1      -1.241   2.872   1.326  0.00  0.00    +0.004 A 
ATOM     15  C   UNL     1      -0.732   1.588   1.275  0.00  0.00    -0.045 A 
ATOM     16  C   UNL     1      -0.869   0.747   2.364  0.00  0.00    +0.004 A 
ATOM     17  C   UNL     1      -1.506   1.194   3.506  0.00  0.00    +0.006 A 
BRANCH  15  18
ATOM     18  C   UNL     1      -0.034   1.103   0.032  0.00  0.00    +0.013 C 
ATOM     19  C   UNL     1      -0.773  -0.115  -0.527  0.00  0.00    +0.012 C 
ATOM     20  C   UNL     1       1.406   0.713   0.374  0.00  0.00    +0.012 C 
ENDBRANCH  15  18
ENDBRANCH  11  12
BRANCH   1  21
ATOM     21  C   UNL     1       0.071   5.449   5.717  0.00  0.00    +0.205 C 
BRANCH  21  22
ATOM     22  N   UNL     1       1.429   5.511   5.170  0.00  0.00    -0.277 N 
ATOM     23  C   UNL     1       1.690   6.291   4.103  0.00  0.00    +0.307 C 
ATOM     24  O   UNL     1       0.799   6.943   3.593  0.00  0.00    -0.252 OA
ATOM     25  N   UNL     1       2.939   6.348   3.599  0.00  0.00    -0.266 N 
ATOM     26  H   UNL     1       3.723   5.688   3.998  0.00  0.00    +0.156 HD
BRANCH  25  27
ATOM     27  C   UNL     1       3.238   7.248   2.567  0.00  0.00    +0.077 A 
ATOM     28  C   UNL     1       2.476   8.395   2.402  0.00  0.00    +0.027 A 
ATOM     29  C   UNL     1       2.773   9.282   1.384  0.00  0.00    +0.002 A 
ATOM     30  C   UNL     1       3.830   9.028   0.529  0.00  0.00    +0.004 A 
ATOM     31  C   UNL     1       4.594   7.887   0.687  0.00  0.00    +0.047 A 
ATOM     32  C   UNL     1       4.305   6.996   1.708  0.00  0.00    +0.142 A 
BRANCH  32  33
ATOM     33  O   UNL     1       5.059   5.876   1.869  0.00  0.00    -0.490 OA
BRANCH  33  34
ATOM     34  C   UNL     1       6.138   5.683   0.951  0.00  0.00    +0.226 C 
ATOM     35  C   UNL     1       6.865   4.379   1.286  0.00  0.00    +0.048 C 
ENDBRANCH  33  34
ENDBRANCH  32  33
ENDBRANCH  25  27
BRANCH  22  36
ATOM     36  C   UNL     1       2.502   4.726   5.784  0.00  0.00    +0.109 C 
BRANCH  36  38
ATOM     37  C   UNL     1       3.693   2.529   5.758  0.00  0.00    +0.005 C 
ATOM     38  C   UNL     1       2.572   3.350   5.118  0.00  0.00    +0.016 C 
ENDBRANCH  36  38
ENDBRANCH  22  36
ENDBRANCH  21  22
ENDBRANCH   1  21
TORSDOF 9
