REMARK  Name = ZINC40322113
REMARK  14 active torsions:
REMARK  status: ('A' for Active; 'I' for Inactive)
REMARK    1  A    between atoms: C_1  and  C_2
REMARK    2  A    between atoms: C_2  and  N_3
REMARK    3  A    between atoms: N_3  and  C_4
REMARK    4  A    between atoms: N_3  and  C_6
REMARK    5  A    between atoms: C_4  and  C_5
REMARK    6  A    between atoms: C_6  and  C_8
REMARK    7  A    between atoms: C_6  and  C_27
REMARK    8  A    between atoms: C_8  and  N_9
REMARK    9  A    between atoms: C_10  and  C_12
REMARK   10  A    between atoms: C_15  and  S_17
REMARK   11  A    between atoms: S_17  and  C_20
REMARK   12  A    between atoms: C_30  and  C_33
REMARK   13  A    between atoms: C_33  and  C_34
REMARK   14  A    between atoms: C_33  and  C_35
REMARK                            x       y       z     vdW  Elec       q    Type
REMARK                         _______ _______ _______ _____ _____    ______ ____
ROOT
ATOM      1  N   UNL     1       0.194   0.893   1.814  0.00  0.00    -0.310 N 
ATOM      2  C   UNL     1      -0.272   1.821   2.673  0.00  0.00    +0.279 C 
ATOM      3  O   UNL     1       0.181   1.889   3.800  0.00  0.00    -0.267 OA
ATOM      4  H   UNL     1      -0.115   0.884   0.895  0.00  0.00    +0.149 HD
ENDROOT
BRANCH   2   5
ATOM      5  C   UNL     1      -1.326   2.748   2.249  0.00  0.00    +0.192 A 
ATOM      6  C   UNL     1      -1.817   3.793   2.979  0.00  0.00    +0.056 A 
ATOM      7  C   UNL     1      -2.805   4.406   2.192  0.00  0.00    +0.070 A 
ATOM      8  C   UNL     1      -2.873   3.717   1.032  0.00  0.00    +0.246 A 
ATOM      9  O   UNL     1      -1.977   2.722   1.068  0.00  0.00    -0.433 OA
BRANCH   8  10
ATOM     10  S   UNL     1      -3.958   4.073  -0.310  0.00  0.00    +0.058 S 
ATOM     11  O   UNL     1      -4.117   2.862  -1.036  0.00  0.00    -0.161 OA
ATOM     12  O   UNL     1      -5.060   4.784   0.236  0.00  0.00    -0.161 OA
BRANCH  10  13
ATOM     13  C   UNL     1      -3.116   5.194  -1.378  0.00  0.00    +0.097 A 
ATOM     14  C   UNL     1      -3.235   6.557  -1.181  0.00  0.00    +0.029 A 
ATOM     15  C   UNL     1      -2.574   7.436  -2.018  0.00  0.00    +0.022 A 
ATOM     16  C   UNL     1      -1.794   6.952  -3.054  0.00  0.00    +0.041 A 
ATOM     17  C   UNL     1      -1.676   5.588  -3.250  0.00  0.00    +0.022 A 
ATOM     18  C   UNL     1      -2.332   4.709  -2.408  0.00  0.00    +0.029 A 
ATOM     19 CL   UNL     1      -0.965   8.056  -4.106  0.00  0.00    -0.084 Cl
ENDBRANCH  10  13
ENDBRANCH   8  10
ENDBRANCH   2   5
BRANCH   1  20
ATOM     20  C   UNL     1       1.167  -0.103   2.269  0.00  0.00    +0.094 C 
BRANCH  20  21
ATOM     21  C   UNL     1       1.623  -0.951   1.080  0.00  0.00    -0.020 C 
BRANCH  21  22
ATOM     22  C   UNL     1       2.501  -2.074   1.571  0.00  0.00    -0.059 A 
ATOM     23  C   UNL     1       2.372  -2.536   2.867  0.00  0.00    +0.002 A 
ATOM     24  C   UNL     1       3.176  -3.566   3.318  0.00  0.00    +0.004 A 
ATOM     25  C   UNL     1       4.110  -4.134   2.471  0.00  0.00    -0.045 A 
ATOM     26  C   UNL     1       4.238  -3.673   1.174  0.00  0.00    +0.004 A 
ATOM     27  C   UNL     1       3.430  -2.646   0.723  0.00  0.00    +0.002 A 
BRANCH  25  28
ATOM     28  C   UNL     1       4.988  -5.256   2.962  0.00  0.00    +0.013 C 
ATOM     29  C   UNL     1       4.754  -6.500   2.103  0.00  0.00    +0.012 C 
ATOM     30  C   UNL     1       6.456  -4.836   2.862  0.00  0.00    +0.012 C 
ENDBRANCH  25  28
ENDBRANCH  21  22
BRANCH  21  31
ATOM     31  N   UNL     1       0.448  -1.510   0.398  0.00  0.00    +0.385 N 
ATOM     32  H   UNL     1      -0.179  -0.763   0.142  0.00  0.00    -0.081 HD
BRANCH  31  34
ATOM     33  C   UNL     1       1.470  -1.230  -1.809  0.00  0.00    -0.017 C 
ATOM     34  C   UNL     1       0.878  -2.226  -0.810  0.00  0.00    -0.081 C 
ENDBRANCH  31  34
BRANCH  31  35
ATOM     35  C   UNL     1      -0.243  -2.442   1.299  0.00  0.00    -0.081 C 
ATOM     36  C   UNL     1      -1.271  -1.676   2.134  0.00  0.00    -0.017 C 
ENDBRANCH  31  35
ENDBRANCH  21  31
ENDBRANCH  20  21
ENDBRANCH   1  20
TORSDOF 10
