REMARK  Name = ZINC23958165
REMARK  9 active torsions:
REMARK  status: ('A' for Active; 'I' for Inactive)
REMARK    1  A    between atoms: C_1  and  C_2
REMARK    2  A    between atoms: C_2  and  O_3
REMARK    3  A    between atoms: O_3  and  C_4
REMARK    4  A    between atoms: C_9  and  N_12
REMARK    5  A    between atoms: C_13  and  C_15
REMARK    6  A    between atoms: C_15  and  C_17
REMARK    7  A    between atoms: C_15  and  S_18
REMARK    8  A    between atoms: S_18  and  C_19
REMARK    9  A    between atoms: C_21  and  C_24
REMARK                            x       y       z     vdW  Elec       q    Type
REMARK                         _______ _______ _______ _____ _____    ______ ____
ROOT
ATOM      1  N   UNL     1       4.757   5.601  -0.654  0.00  0.00    -0.311 N 
ATOM      2  C   UNL     1       3.554   5.297  -0.128  0.00  0.00    +0.226 C 
ATOM      3  O   UNL     1       2.815   6.182   0.248  0.00  0.00    -0.275 OA
ATOM      4  H   UNL     1       5.427   4.799  -0.995  0.00  0.00    +0.149 HD
ENDROOT
BRANCH   1  10
ATOM      5  C   UNL     1       7.216   9.802  -2.974  0.00  0.00    +0.403 C 
ATOM      6  O   UNL     1       8.423   9.876  -2.853  0.00  0.00    -0.226 OA
ATOM      7  N   UNL     1       6.484   9.162  -2.040  0.00  0.00    -0.267 N 
ATOM      8  C   UNL     1       7.130   8.549  -0.872  0.00  0.00    +0.113 C 
ATOM      9  C   UNL     1       6.700   7.081  -0.785  0.00  0.00    +0.041 C 
ATOM     10  C   UNL     1       5.172   7.002  -0.771  0.00  0.00    +0.076 C 
ATOM     11  C   UNL     1       4.617   7.591  -2.070  0.00  0.00    +0.041 C 
ATOM     12  C   UNL     1       5.024   9.064  -2.172  0.00  0.00    +0.113 C 
BRANCH   5  13
ATOM     13  O   UNL     1       6.610  10.360  -4.039  0.00  0.00    -0.451 OA
BRANCH  13  15
ATOM     14  C   UNL     1       6.601  11.599  -6.135  0.00  0.00    +0.048 C 
ATOM     15  C   UNL     1       7.461  11.033  -5.004  0.00  0.00    +0.230 C 
ENDBRANCH  13  15
ENDBRANCH   5  13
ENDBRANCH   1  10
BRANCH   2  16
ATOM     16  C   UNL     1       3.127   3.857  -0.007  0.00  0.00    +0.136 C 
ATOM     17  C   UNL     1       3.681   3.268   1.292  0.00  0.00    +0.029 C 
BRANCH  16  18
ATOM     18  S   UNL     1       1.320   3.762   0.009  0.00  0.00    -0.086 S 
BRANCH  18  19
ATOM     19  C   UNL     1       1.105   2.013   0.002  0.00  0.00    +0.135 A 
ATOM     20  N   UNL     1      -0.016   1.315   0.009  0.00  0.00    -0.238 NA
ATOM     21  C   UNL     1       0.002  -0.004   0.002  0.00  0.00    +0.047 A 
ATOM     22  C   UNL     1       1.201  -0.634  -0.013  0.00  0.00    +0.070 A 
ATOM     23  S   UNL     1       2.312   0.765  -0.016  0.00  0.00    -0.069 S 
ATOM     24  C   UNL     1      -1.282  -0.792   0.010  0.00  0.00    +0.066 C 
ENDBRANCH  18  19
ENDBRANCH  16  18
ENDBRANCH   2  16
TORSDOF 6
