REMARK  Name = ZINC23244588
REMARK  9 active torsions:
REMARK  status: ('A' for Active; 'I' for Inactive)
REMARK    1  A    between atoms: C_1  and  C_2
REMARK    2  A    between atoms: C_2  and  O_3
REMARK    3  A    between atoms: O_3  and  C_4
REMARK    4  A    between atoms: C_7  and  C_10
REMARK    5  A    between atoms: N_15  and  C_17
REMARK    6  A    between atoms: C_17  and  C_18
REMARK    7  A    between atoms: C_18  and  N_19
REMARK    8  A    between atoms: N_22  and  S_25
REMARK    9  A    between atoms: S_25  and  C_28
REMARK                            x       y       z     vdW  Elec       q    Type
REMARK                         _______ _______ _______ _____ _____    ______ ____
ROOT
ATOM      1  C   UNL     1       0.002  -0.004   0.002  0.00  0.00    -0.055 C 
ENDROOT
BRANCH   1   2
ATOM      2  N   UNL     1      -0.018   1.465   0.010  0.00  0.00    +0.383 N 
ATOM      3  C   UNL     1      -0.809   1.987  -1.113  0.00  0.00    -0.061 C 
ATOM      4  C   UNL     1      -0.956   3.505  -0.967  0.00  0.00    +0.091 C 
ATOM      5  N   UNL     1       0.385   4.093  -0.824  0.00  0.00    -0.180 NA
ATOM      6  C   UNL     1       1.287   3.529   0.191  0.00  0.00    +0.091 C 
ATOM      7  C   UNL     1       1.346   2.010   0.000  0.00  0.00    -0.061 C 
ATOM      8  H   UNL     1      -0.502   1.793   0.942  0.00  0.00    -0.082 HD
BRANCH   5   9
ATOM      9  S   UNL     1       0.865   5.356  -1.781  0.00  0.00    +0.061 S 
ATOM     10  O   UNL     1      -0.319   6.010  -2.215  0.00  0.00    -0.153 OA
ATOM     11  O   UNL     1       1.894   6.034  -1.073  0.00  0.00    -0.153 OA
BRANCH   9  12
ATOM     12  C   UNL     1       1.614   4.665  -3.218  0.00  0.00    +0.106 A 
ATOM     13  C   UNL     1       2.973   4.411  -3.235  0.00  0.00    +0.030 A 
ATOM     14  C   UNL     1       3.560   3.863  -4.360  0.00  0.00    +0.022 A 
ATOM     15  C   UNL     1       2.790   3.581  -5.474  0.00  0.00    +0.041 A 
ATOM     16  C   UNL     1       1.431   3.841  -5.459  0.00  0.00    +0.022 A 
ATOM     17  C   UNL     1       0.844   4.383  -4.331  0.00  0.00    +0.030 A 
ATOM     18 CL   UNL     1       3.528   2.899  -6.890  0.00  0.00    -0.084 Cl
ENDBRANCH   9  12
ENDBRANCH   5   9
ENDBRANCH   1   2
BRANCH   1  19
ATOM     19  C   UNL     1      -1.409  -0.535   0.263  0.00  0.00    +0.129 C 
BRANCH  19  25
ATOM     20  C   UNL     1      -1.581  -3.931  -0.930  0.00  0.00    +0.092 A 
ATOM     21  C   UNL     1      -1.355  -4.713   0.226  0.00  0.00    +0.035 A 
ATOM     22  C   UNL     1      -1.143  -4.070   1.410  0.00  0.00    +0.074 A 
ATOM     23  C   UNL     1      -1.159  -2.658   1.407  0.00  0.00    +0.267 A 
ATOM     24  O   UNL     1      -0.971  -2.038   2.442  0.00  0.00    -0.266 OA
ATOM     25  N   UNL     1      -1.389  -2.000   0.255  0.00  0.00    -0.231 N 
ATOM     26  N   UNL     1      -1.586  -2.621  -0.851  0.00  0.00    -0.168 NA
BRANCH  20  30
ATOM     27  C   UNL     1      -2.251  -5.830  -4.676  0.00  0.00    +0.121 A 
ATOM     28  C   UNL     1      -2.256  -4.444  -4.592  0.00  0.00    +0.046 A 
ATOM     29  C   UNL     1      -2.039  -3.825  -3.378  0.00  0.00    +0.013 A 
ATOM     30  C   UNL     1      -1.815  -4.593  -2.236  0.00  0.00    +0.002 A 
ATOM     31  C   UNL     1      -1.805  -5.984  -2.326  0.00  0.00    +0.013 A 
ATOM     32  C   UNL     1      -2.028  -6.597  -3.541  0.00  0.00    +0.046 A 
BRANCH  27  33
ATOM     33  O   UNL     1      -2.466  -6.436  -5.873  0.00  0.00    -0.492 OA
BRANCH  33  35
ATOM     34  C   UNL     1      -2.706  -8.363  -7.312  0.00  0.00    +0.048 C 
ATOM     35  C   UNL     1      -2.448  -7.865  -5.889  0.00  0.00    +0.225 C 
ENDBRANCH  33  35
ENDBRANCH  27  33
ENDBRANCH  20  30
ENDBRANCH  19  25
ENDBRANCH   1  19
TORSDOF 8
