REMARK  Name = ZINC02721668
REMARK  12 active torsions:
REMARK  status: ('A' for Active; 'I' for Inactive)
REMARK    1  A    between atoms: C_1  and  C_2
REMARK    2  A    between atoms: C_2  and  O_3
REMARK    3  A    between atoms: O_3  and  C_4
REMARK    4  A    between atoms: C_7  and  N_10
REMARK    5  A    between atoms: C_11  and  C_13
REMARK    6  A    between atoms: C_13  and  S_14
REMARK    7  A    between atoms: S_14  and  C_15
REMARK    8  A    between atoms: C_16  and  S_27
REMARK    9  A    between atoms: C_18  and  C_20
REMARK   10  A    between atoms: C_23  and  C_26
REMARK   11  A    between atoms: S_27  and  C_30
REMARK   12  A    between atoms: C_33  and  C_36
REMARK                            x       y       z     vdW  Elec       q    Type
REMARK                         _______ _______ _______ _____ _____    ______ ____
ROOT
ATOM      1  C   UNL     1      -5.185 -10.176   0.443  0.00  0.00    +0.208 A 
ATOM      2  C   UNL     1      -6.288 -10.958   0.551  0.00  0.00    +0.234 A 
ATOM      3  N   UNL     1      -5.880 -12.234   0.613  0.00  0.00    -0.189 NA
ATOM      4  C   UNL     1      -4.570 -12.261   0.546  0.00  0.00    +0.230 A 
ATOM      5  O   UNL     1      -4.115 -10.998   0.435  0.00  0.00    -0.427 OA
ENDROOT
BRANCH   4   6
ATOM      6  C   UNL     1      -3.732 -13.477   0.581  0.00  0.00    +0.037 A 
ATOM      7  C   UNL     1      -4.327 -14.736   0.688  0.00  0.00    +0.013 A 
ATOM      8  C   UNL     1      -3.538 -15.867   0.720  0.00  0.00    +0.004 A 
ATOM      9  C   UNL     1      -2.161 -15.757   0.647  0.00  0.00    -0.050 A 
ATOM     10  C   UNL     1      -1.565 -14.513   0.541  0.00  0.00    +0.004 A 
ATOM     11  C   UNL     1      -2.342 -13.373   0.501  0.00  0.00    +0.013 A 
ATOM     12  C   UNL     1      -1.306 -16.997   0.683  0.00  0.00    +0.044 C 
ENDBRANCH   4   6
BRANCH   2  13
ATOM     13  S   UNL     1      -7.957 -10.398   0.603  0.00  0.00    +0.046 S 
ATOM     14  O   UNL     1      -8.706 -11.411   1.260  0.00  0.00    -0.163 OA
ATOM     15  O   UNL     1      -7.921  -9.055   1.067  0.00  0.00    -0.163 OA
BRANCH  13  16
ATOM     16  C   UNL     1      -8.539 -10.340  -1.059  0.00  0.00    +0.095 A 
ATOM     17  C   UNL     1      -8.385  -9.187  -1.806  0.00  0.00    +0.028 A 
ATOM     18  C   UNL     1      -8.842  -9.142  -3.110  0.00  0.00    +0.005 A 
ATOM     19  C   UNL     1      -9.452 -10.250  -3.667  0.00  0.00    -0.050 A 
ATOM     20  C   UNL     1      -9.605 -11.404  -2.921  0.00  0.00    +0.005 A 
ATOM     21  C   UNL     1      -9.145 -11.450  -1.619  0.00  0.00    +0.028 A 
ATOM     22  C   UNL     1      -9.950 -10.201  -5.089  0.00  0.00    +0.044 C 
ENDBRANCH  13  16
ENDBRANCH   2  13
BRANCH   1  23
ATOM     23  S   UNL     1      -5.155  -8.418   0.327  0.00  0.00    -0.075 S 
BRANCH  23  24
ATOM     24  C   UNL     1      -3.391  -8.017   0.200  0.00  0.00    +0.173 C 
BRANCH  24  26
ATOM     25  N   UNL     1      -1.989  -5.990  -0.012  0.00  0.00    -0.285 N 
ATOM     26  C   UNL     1      -3.222  -6.523   0.093  0.00  0.00    +0.227 C 
ATOM     27  O   UNL     1      -4.196  -5.800   0.102  0.00  0.00    -0.275 OA
ATOM     28  H   UNL     1      -1.215  -6.569  -0.096  0.00  0.00    +0.155 HD
BRANCH  25  32
ATOM     29  C   UNL     1      -1.496  -1.849   0.025  0.00  0.00    +0.121 A 
ATOM     30  C   UNL     1      -2.510  -2.434   0.771  0.00  0.00    +0.047 A 
ATOM     31  C   UNL     1      -2.673  -3.805   0.759  0.00  0.00    +0.027 A 
ATOM     32  C   UNL     1      -1.823  -4.598   0.001  0.00  0.00    +0.034 A 
ATOM     33  C   UNL     1      -0.809  -4.013  -0.746  0.00  0.00    +0.027 A 
ATOM     34  C   UNL     1      -0.650  -2.641  -0.737  0.00  0.00    +0.047 A 
BRANCH  29  35
ATOM     35  O   UNL     1      -1.336  -0.499   0.037  0.00  0.00    -0.492 OA
BRANCH  35  37
ATOM     36  C   UNL     1      -1.908   1.744   0.732  0.00  0.00    +0.048 C 
ATOM     37  C   UNL     1      -2.242   0.255   0.845  0.00  0.00    +0.225 C 
ENDBRANCH  35  37
ENDBRANCH  29  35
ENDBRANCH  25  32
ENDBRANCH  24  26
ENDBRANCH  23  24
ENDBRANCH   1  23
TORSDOF 9
