REMARK  Name = ZINC39946229
REMARK  11 active torsions:
REMARK  status: ('A' for Active; 'I' for Inactive)
REMARK    1  A    between atoms: C_1  and  C_2
REMARK    2  A    between atoms: C_2  and  C_3
REMARK    3  A    between atoms: C_2  and  C_4
REMARK    4  A    between atoms: C_4  and  N_5
REMARK    5  A    between atoms: N_5  and  S_6
REMARK    6  A    between atoms: S_6  and  C_9
REMARK    7  A    between atoms: C_11  and  C_17
REMARK    8  A    between atoms: C_17  and  O_19
REMARK    9  A    between atoms: O_19  and  C_20
REMARK   10  A    between atoms: C_20  and  C_21
REMARK   11  A    between atoms: C_21  and  C_23
REMARK                            x       y       z     vdW  Elec       q    Type
REMARK                         _______ _______ _______ _____ _____    ______ ____
ROOT
ATOM      1  C   UNL     1       1.978  -0.379   4.333  0.00  0.00    +0.124 A 
ATOM      2  C   UNL     1       2.189   0.393   5.455  0.00  0.00    +0.046 A 
ATOM      3  C   UNL     1       3.487   0.774   5.803  0.00  0.00    +0.079 A 
ATOM      4  C   UNL     1       4.565   0.369   5.009  0.00  0.00    +0.056 A 
ATOM      5  C   UNL     1       4.339  -0.404   3.888  0.00  0.00    +0.042 A 
ATOM      6  C   UNL     1       3.050  -0.783   3.553  0.00  0.00    +0.069 A 
ATOM      7 CL   UNL     1       2.775  -1.762   2.146  0.00  0.00    -0.081 Cl
ATOM      8 CL   UNL     1       6.182   0.838   5.432  0.00  0.00    -0.083 Cl
ENDROOT
BRANCH   1   9
ATOM      9  S   UNL     1       0.341  -0.861   3.893  0.00  0.00    +0.060 S 
ATOM     10  O   UNL     1      -0.526  -0.278   4.856  0.00  0.00    -0.153 OA
ATOM     11  O   UNL     1       0.381  -2.261   3.652  0.00  0.00    -0.153 OA
BRANCH   9  12
ATOM     12  N   UNL     1      -0.008  -0.140   2.444  0.00  0.00    -0.190 NA
ATOM     13  H   UNL     1      -0.710   0.528   2.391  0.00  0.00    +0.148 HD
BRANCH  12  14
ATOM     14  C   UNL     1       0.742  -0.511   1.242  0.00  0.00    +0.109 C 
BRANCH  14  16
ATOM     15  C   UNL     1      -0.019   1.526   0.010  0.00  0.00    +0.008 C 
ATOM     16  C   UNL     1       0.002  -0.004   0.002  0.00  0.00    -0.002 C 
ATOM     17  C   UNL     1       0.718  -0.497  -1.257  0.00  0.00    +0.008 C 
ENDBRANCH  14  16
ENDBRANCH  12  14
ENDBRANCH   9  12
ENDBRANCH   1   9
BRANCH   3  18
ATOM     18  C   UNL     1       3.721   1.601   7.003  0.00  0.00    +0.341 C 
ATOM     19  O   UNL     1       4.851   1.931   7.303  0.00  0.00    -0.245 OA
BRANCH  18  20
ATOM     20  O   UNL     1       2.680   1.990   7.765  0.00  0.00    -0.453 OA
BRANCH  20  21
ATOM     21  C   UNL     1       2.979   2.790   8.912  0.00  0.00    +0.311 C 
BRANCH  21  22
ATOM     22  C   UNL     1       1.701   3.126   9.636  0.00  0.00    +0.199 C 
ATOM     23  O   UNL     1       0.638   2.721   9.212  0.00  0.00    -0.289 OA
BRANCH  22  24
ATOM     24  C   UNL     1       1.741   3.912  10.808  0.00  0.00    +0.026 C 
ATOM     25  C   UNL     1       0.668   4.303  11.589  0.00  0.00    +0.006 A 
ATOM     26  C   UNL     1      -0.725   4.074  11.496  0.00  0.00    +0.010 A 
ATOM     27  C   UNL     1      -1.564   4.590  12.422  0.00  0.00    +0.001 A 
ATOM     28  C   UNL     1      -1.110   5.364  13.501  0.00  0.00    +0.002 A 
ATOM     29  C   UNL     1       0.199   5.642  13.682  0.00  0.00    +0.026 A 
ATOM     30  C   UNL     1       1.181   5.118  12.718  0.00  0.00    +0.043 A 
ATOM     31  N   UNL     1       2.477   5.229  12.650  0.00  0.00    -0.380 N 
ATOM     32  C   UNL     1       2.965   4.498  11.476  0.00  0.00    +0.152 C 
ATOM     33  H   UNL     1       3.032   5.715  13.279  0.00  0.00    +0.160 HD
ENDBRANCH  22  24
ENDBRANCH  21  22
ENDBRANCH  20  21
ENDBRANCH  18  20
ENDBRANCH   3  18
TORSDOF 9
