REMARK  Name = ZINC17077025
REMARK  6 active torsions:
REMARK  status: ('A' for Active; 'I' for Inactive)
REMARK    1  A    between atoms: C_1  and  C_2
REMARK    2  A    between atoms: C_2  and  C_3
REMARK    3  A    between atoms: C_3  and  C_4
REMARK    4  A    between atoms: C_10  and  C_11
REMARK    5  A    between atoms: C_10  and  N_12
REMARK    6  A    between atoms: N_12  and  C_13
REMARK                            x       y       z     vdW  Elec       q    Type
REMARK                         _______ _______ _______ _____ _____    ______ ____
ROOT
ATOM      1  C   UNL     1      -1.417  -0.879  -0.335  0.00  0.00    +0.074 C 
ATOM      2  N   UNL     1      -0.144  -1.127  -0.402  0.00  0.00    -0.174 NA
ATOM      3  N   UNL     1       0.128  -2.463  -0.113  0.00  0.00    -0.132 N 
ATOM      4  C   UNL     1      -1.018  -3.122   0.154  0.00  0.00    +0.275 C 
ATOM      5  O   UNL     1      -1.136  -4.301   0.444  0.00  0.00    -0.268 OA
ATOM      6  C   UNL     1      -2.094  -2.131   0.032  0.00  0.00    +0.078 C 
ATOM      7  C   UNL     1      -3.451  -2.333   0.219  0.00  0.00    +0.019 C 
ATOM      8  C   UNL     1      -3.966  -3.698   0.596  0.00  0.00    +0.061 C 
ATOM      9  C   UNL     1       1.393  -3.033  -0.103  0.00  0.00    +0.189 A 
ATOM     10  N   UNL     1       1.735  -4.275   0.149  0.00  0.00    -0.223 NA
ATOM     11  C   UNL     1       3.018  -4.694   0.123  0.00  0.00    +0.080 A 
ATOM     12  C   UNL     1       3.518  -5.993   0.374  0.00  0.00    +0.029 A 
ATOM     13  C   UNL     1       4.862  -6.252   0.305  0.00  0.00    +0.002 A 
ATOM     14  C   UNL     1       5.776  -5.257  -0.010  0.00  0.00    +0.001 A 
ATOM     15  C   UNL     1       5.323  -3.975  -0.262  0.00  0.00    +0.017 A 
ATOM     16  C   UNL     1       3.979  -3.707  -0.196  0.00  0.00    +0.041 A 
ATOM     17  S   UNL     1       2.971  -2.264  -0.438  0.00  0.00    -0.050 S 
ENDROOT
BRANCH   7  18
ATOM     18  N   UNL     1      -4.314  -1.306   0.063  0.00  0.00    -0.317 N 
ATOM     19  H   UNL     1      -4.383  -0.857  -0.794  0.00  0.00    +0.152 HD
BRANCH  18  20
ATOM     20  C   UNL     1      -5.106  -0.890   1.136  0.00  0.00    +0.031 A 
ATOM     21  C   UNL     1      -4.895  -1.419   2.403  0.00  0.00    +0.023 A 
ATOM     22  C   UNL     1      -5.680  -1.006   3.462  0.00  0.00    +0.002 A 
ATOM     23  C   UNL     1      -6.676  -0.067   3.261  0.00  0.00    +0.000 A 
ATOM     24  C   UNL     1      -6.889   0.462   2.001  0.00  0.00    +0.002 A 
ATOM     25  C   UNL     1      -6.103   0.058   0.940  0.00  0.00    +0.023 A 
ENDBRANCH  18  20
ENDBRANCH   7  18
BRANCH   1  26
ATOM     26  C   UNL     1      -2.079   0.452  -0.583  0.00  0.00    +0.057 C 
BRANCH  26  28
ATOM     27  C   UNL     1      -1.687   2.844  -1.192  0.00  0.00    +0.004 C 
ATOM     28  C   UNL     1      -1.015   1.492  -0.940  0.00  0.00    +0.003 C 
ENDBRANCH  26  28
ENDBRANCH   1  26
TORSDOF 4
