REMARK  Name = ZINC02558574
REMARK  7 active torsions:
REMARK  status: ('A' for Active; 'I' for Inactive)
REMARK    1  A    between atoms: C_1  and  C_2
REMARK    2  A    between atoms: C_2  and  C_3
REMARK    3  A    between atoms: C_2  and  C_4
REMARK    4  A    between atoms: C_2  and  C_5
REMARK    5  A    between atoms: C_7  and  C_18
REMARK    6  A    between atoms: C_11  and  N_17
REMARK    7  A    between atoms: C_12  and  C_14
REMARK                            x       y       z     vdW  Elec       q    Type
REMARK                         _______ _______ _______ _____ _____    ______ ____
ROOT
ATOM      1  C   UNL     1      -0.548   0.670   0.870  0.00  0.00    -0.029 A 
ATOM      2  C   UNL     1       0.797   0.945   0.944  0.00  0.00    +0.037 A 
ATOM      3  C   UNL     1       1.274   2.206   0.618  0.00  0.00    +0.145 A 
ATOM      4  N   UNL     1       0.444   3.155   0.232  0.00  0.00    -0.235 NA
ATOM      5  C   UNL     1      -0.851   2.941   0.145  0.00  0.00    +0.112 A 
ATOM      6  C   UNL     1      -1.437   1.692   0.456  0.00  0.00    +0.033 A 
ATOM      7  C   UNL     1      -2.882   1.632   0.299  0.00  0.00    +0.054 A 
ATOM      8  C   UNL     1      -3.543   2.767  -0.117  0.00  0.00    +0.097 A 
ATOM      9  S   UNL     1      -2.231   3.955  -0.324  0.00  0.00    -0.062 S 
ENDROOT
BRANCH   8  10
ATOM     10  C   UNL     1      -4.932   2.945  -0.334  0.00  0.00    +0.250 C 
ATOM     11  O   UNL     1      -5.701   2.020  -0.143  0.00  0.00    -0.270 OA
ATOM     12  N   UNL     1      -5.402   4.138  -0.750  0.00  0.00    -0.325 N 
ATOM     13  H   UNL     1      -4.789   4.874  -0.902  0.00  0.00    +0.145 HD
ATOM     14  H   UNL     1      -6.352   4.260  -0.899  0.00  0.00    +0.145 HD
ENDBRANCH   8  10
BRANCH   1  16
ATOM     15  C   UNL     1       0.083  -1.568   1.732  0.00  0.00    +0.015 C 
ATOM     16  C   UNL     1      -1.069  -0.699   1.226  0.00  0.00    -0.012 C 
ATOM     17  C   UNL     1      -2.131  -0.572   2.320  0.00  0.00    +0.015 C 
ATOM     18  C   UNL     1      -1.690  -1.346  -0.014  0.00  0.00    +0.015 C 
ENDBRANCH   1  16
BRANCH   3  19
ATOM     19  C   UNL     1       2.751   2.493   0.703  0.00  0.00    +0.434 C 
ATOM     20  F   UNL     1       3.355   2.201  -0.525  0.00  0.00    -0.164 F 
ATOM     21  F   UNL     1       2.947   3.843   1.010  0.00  0.00    -0.164 F 
ATOM     22  F   UNL     1       3.323   1.700   1.704  0.00  0.00    -0.164 F 
ENDBRANCH   3  19
BRANCH   7  23
ATOM     23  N   UNL     1      -3.578   0.461   0.566  0.00  0.00    -0.356 N 
ATOM     24  H   UNL     1      -3.109  -0.388   0.586  0.00  0.00    +0.142 HD
ATOM     25  H   UNL     1      -4.533   0.492   0.732  0.00  0.00    +0.142 HD
ENDBRANCH   7  23
TORSDOF 4
