REMARK  Name = ZINC20790999
REMARK  8 active torsions:
REMARK  status: ('A' for Active; 'I' for Inactive)
REMARK    1  A    between atoms: C_1  and  C_2
REMARK    2  A    between atoms: C_3  and  C_20
REMARK    3  A    between atoms: C_4  and  C_10
REMARK    4  A    between atoms: C_15  and  O_16
REMARK    5  A    between atoms: O_16  and  C_17
REMARK    6  A    between atoms: N_22  and  C_23
REMARK    7  A    between atoms: C_28  and  O_29
REMARK    8  A    between atoms: O_29  and  C_30
REMARK                            x       y       z     vdW  Elec       q    Type
REMARK                         _______ _______ _______ _____ _____    ______ ____
ROOT
ATOM      1  C   UNL     1      -2.121   6.107   3.357  0.00  0.00    +0.061 C 
ATOM      2  C   UNL     1      -2.221   4.677   3.820  0.00  0.00    +0.017 C 
ATOM      3  C   UNL     1      -1.625   3.703   3.102  0.00  0.00    +0.056 C 
ATOM      4  C   UNL     1      -1.750   2.279   3.602  0.00  0.00    +0.143 C 
ATOM      5  N   UNL     1      -2.518   2.073   4.842  0.00  0.00    -0.315 N 
ATOM      6  C   UNL     1      -3.057   3.149   5.449  0.00  0.00    +0.135 C 
ATOM      7  S   UNL     1      -3.952   2.924   6.891  0.00  0.00    -0.019 S 
ATOM      8  N   UNL     1      -2.914   4.387   4.960  0.00  0.00    -0.300 N 
ATOM      9  H   UNL     1      -2.640   1.059   5.251  0.00  0.00    +0.149 HD
ATOM     10  H   UNL     1      -3.394   5.195   5.533  0.00  0.00    +0.154 HD
ENDROOT
BRANCH   4  11
ATOM     11  C   UNL     1      -0.360   1.739   3.822  0.00  0.00    +0.019 A 
ATOM     12  C   UNL     1       0.188   1.736   5.090  0.00  0.00    +0.009 A 
ATOM     13  C   UNL     1       1.465   1.246   5.292  0.00  0.00    +0.001 A 
ATOM     14  C   UNL     1       2.196   0.754   4.226  0.00  0.00    +0.004 A 
ATOM     15  C   UNL     1       1.651   0.751   2.956  0.00  0.00    +0.046 A 
ATOM     16  C   UNL     1       0.369   1.242   2.752  0.00  0.00    +0.132 A 
BRANCH  16  17
ATOM     17  O   UNL     1      -0.169   1.240   1.504  0.00  0.00    -0.434 OA
BRANCH  17  18
ATOM     18  C   UNL     1       0.604   0.636   0.465  0.00  0.00    +0.541 C 
ATOM     19  F   UNL     1       0.918  -0.679   0.822  0.00  0.00    -0.166 F 
ATOM     20  F   UNL     1       1.784   1.364   0.279  0.00  0.00    -0.166 F 
ENDBRANCH  17  18
ENDBRANCH  16  17
ENDBRANCH   4  11
BRANCH   3  21
ATOM     21  C   UNL     1      -0.905   4.003   1.919  0.00  0.00    +0.248 C 
ATOM     22  O   UNL     1      -1.397   3.768   0.831  0.00  0.00    -0.270 OA
ATOM     23  N   UNL     1       0.325   4.549   1.999  0.00  0.00    -0.279 N 
ATOM     24  H   UNL     1       0.802   4.688   2.981  0.00  0.00    +0.155 HD
BRANCH  23  25
ATOM     25  C   UNL     1       0.996   4.938   0.833  0.00  0.00    +0.076 A 
ATOM     26  C   UNL     1       0.287   5.143  -0.342  0.00  0.00    +0.027 A 
ATOM     27  C   UNL     1       0.950   5.532  -1.490  0.00  0.00    +0.002 A 
ATOM     28  C   UNL     1       2.322   5.707  -1.475  0.00  0.00    +0.004 A 
ATOM     29  C   UNL     1       3.036   5.498  -0.309  0.00  0.00    +0.047 A 
ATOM     30  C   UNL     1       2.378   5.114   0.848  0.00  0.00    +0.141 A 
BRANCH  30  31
ATOM     31  O   UNL     1       3.079   4.909   1.994  0.00  0.00    -0.493 OA
ATOM     32  C   UNL     1       4.474   5.214   1.965  0.00  0.00    +0.277 C 
ENDBRANCH  30  31
ENDBRANCH  23  25
ENDBRANCH   3  21
TORSDOF 6
