REMARK  Name = ZINC19703168
REMARK  7 active torsions:
REMARK  status: ('A' for Active; 'I' for Inactive)
REMARK    1  A    between atoms: C_1  and  C_2
REMARK    2  A    between atoms: C_17  and  C_37
REMARK    3  A    between atoms: C_22  and  C_23
REMARK    4  A    between atoms: C_22  and  O_36
REMARK    5  A    between atoms: C_23  and  N_24
REMARK    6  A    between atoms: C_25  and  C_26
REMARK    7  A    between atoms: C_28  and  N_33
REMARK                            x       y       z     vdW  Elec       q    Type
REMARK                         _______ _______ _______ _____ _____    ______ ____
ROOT
ATOM      1  C   UNL     1      -0.594   1.315  -0.291  0.00  0.00    +0.012 C 
ATOM      2  C   UNL     1      -0.723  -0.202  -0.446  0.00  0.00    -0.026 C 
ATOM      3  C   UNL     1      -2.197  -0.571  -0.628  0.00  0.00    +0.007 C 
ATOM      4  C   UNL     1      -2.991  -0.114   0.597  0.00  0.00    +0.001 C 
ATOM      5  C   UNL     1      -2.443  -0.803   1.848  0.00  0.00    +0.000 C 
ATOM      6  C   UNL     1      -0.970  -0.433   2.029  0.00  0.00    +0.004 C 
ATOM      7  C   UNL     1      -0.174  -0.890   0.804  0.00  0.00    -0.005 C 
ATOM      8  C   UNL     1       1.299  -0.517   0.985  0.00  0.00    +0.004 C 
ATOM      9  C   UNL     1       2.094  -0.974  -0.240  0.00  0.00    +0.004 C 
ATOM     10  C   UNL     1       1.543  -0.290  -1.493  0.00  0.00    -0.004 C 
ATOM     11  C   UNL     1       0.072  -0.659  -1.671  0.00  0.00    -0.001 C 
ATOM     12  C   UNL     1      -0.461   0.058  -2.917  0.00  0.00    +0.005 C 
ATOM     13  C   UNL     1       0.295  -0.461  -4.137  0.00  0.00    +0.010 C 
ATOM     14  C   UNL     1       1.787  -0.138  -4.028  0.00  0.00    +0.001 C 
ATOM     15  C   UNL     1       2.349  -0.684  -2.707  0.00  0.00    +0.001 C 
ATOM     16  C   UNL     1       2.397  -2.209  -2.916  0.00  0.00    +0.007 C 
ATOM     17  C   UNL     1       2.845  -2.357  -4.388  0.00  0.00    +0.037 C 
ATOM     18  C   UNL     1       2.510  -1.005  -5.093  0.00  0.00    +0.089 C 
ATOM     19  C   UNL     1       2.056   1.355  -4.233  0.00  0.00    +0.014 C 
ENDROOT
BRANCH  18  20
ATOM     20  O   UNL     1       1.629  -1.274  -6.186  0.00  0.00    -0.386 OA
ATOM     21  H   UNL     1       2.024  -1.813  -6.885  0.00  0.00    +0.210 HD
ENDBRANCH  18  20
BRANCH  18  22
ATOM     22  C   UNL     1       3.764  -0.286  -5.593  0.00  0.00    +0.147 C 
BRANCH  22  23
ATOM     23  N   UNL     1       4.435  -1.116  -6.596  0.00  0.00    -0.387 N 
ATOM     24  C   UNL     1       4.524  -0.693  -7.866  0.00  0.00    +0.090 C 
ATOM     25  H   UNL     1       4.816  -1.972  -6.343  0.00  0.00    +0.159 HD
BRANCH  24  26
ATOM     26  C   UNL     1       5.235  -1.445  -8.805  0.00  0.00    +0.039 A 
ATOM     27  C   UNL     1       5.245  -1.075 -10.168  0.00  0.00    +0.045 A 
ATOM     28  C   UNL     1       5.942  -1.819 -11.066  0.00  0.00    +0.127 A 
ATOM     29  C   UNL     1       6.655  -2.949 -10.677  0.00  0.00    +0.036 A 
ATOM     30  C   UNL     1       6.686  -3.360  -9.379  0.00  0.00    +0.054 A 
ATOM     31  C   UNL     1       5.993  -2.634  -8.396  0.00  0.00    +0.188 A 
ATOM     32  O   UNL     1       6.017  -2.987  -7.225  0.00  0.00    -0.287 OA
BRANCH  28  33
ATOM     33  N   UNL     1       5.943  -1.419 -12.491  0.00  0.00    +0.056 N 
ATOM     34  O   UNL     1       5.328  -0.440 -12.845  0.00  0.00    -0.126 OA
ATOM     35  O   UNL     1       6.558  -2.071 -13.302  0.00  0.00    -0.126 OA
ENDBRANCH  28  33
ENDBRANCH  24  26
ENDBRANCH  22  23
ENDBRANCH  18  22
TORSDOF 5
