REMARK  Name = ZINC34756979
REMARK  6 active torsions:
REMARK  status: ('A' for Active; 'I' for Inactive)
REMARK    1  A    between atoms: C_4  and  C_7
REMARK    2  A    between atoms: C_7  and  C_8
REMARK    3  A    between atoms: N_23  and  C_26
REMARK    4  A    between atoms: C_26  and  C_27
REMARK    5  A    between atoms: N_29  and  C_30
REMARK    6  A    between atoms: C_30  and  C_31
REMARK                            x       y       z     vdW  Elec       q    Type
REMARK                         _______ _______ _______ _____ _____    ______ ____
ROOT
ATOM      1  C   UNL     1       3.250  -0.983   2.610  0.00  0.00    +0.137 A 
ATOM      2  N   UNL     1       4.032  -0.082   3.177  0.00  0.00    -0.216 NA
ATOM      3  C   UNL     1       5.348  -0.221   3.225  0.00  0.00    +0.133 A 
ATOM      4  C   UNL     1       5.939  -1.378   2.648  0.00  0.00    +0.051 A 
ATOM      5  C   UNL     1       7.364  -1.742   2.584  0.00  0.00    -0.025 A 
ATOM      6  C   UNL     1       7.668  -2.901   1.978  0.00  0.00    -0.004 A 
ATOM      7  S   UNL     1       6.106  -3.577   1.462  0.00  0.00    -0.073 S 
ATOM      8  C   UNL     1       5.044  -2.292   2.064  0.00  0.00    +0.114 A 
ATOM      9  N   UNL     1       3.742  -2.078   2.063  0.00  0.00    -0.224 NA
ATOM     10  C   UNL     1       9.149  -3.166   1.967  0.00  0.00    +0.043 C 
ATOM     11  C   UNL     1       9.791  -1.796   2.278  0.00  0.00    +0.010 C 
ATOM     12  C   UNL     1       8.666  -1.096   3.066  0.00  0.00    +0.037 C 
ATOM     13  N   UNL     1       6.134   0.744   3.828  0.00  0.00    -0.318 N 
ATOM     14  C   UNL     1       6.533   0.623   5.239  0.00  0.00    +0.088 C 
ATOM     15  C   UNL     1       6.208   1.940   5.950  0.00  0.00    -0.059 C 
ATOM     16  N   UNL     1       6.846   3.052   5.233  0.00  0.00    +0.387 N 
ATOM     17  C   UNL     1       6.269   3.177   3.889  0.00  0.00    -0.059 C 
ATOM     18  C   UNL     1       6.602   1.917   3.074  0.00  0.00    +0.088 C 
ATOM     19  H   UNL     1       7.837   2.878   5.159  0.00  0.00    -0.081 HD
ENDROOT
BRANCH   1  20
ATOM     20  C   UNL     1       1.760  -0.757   2.592  0.00  0.00    +0.111 C 
BRANCH  20  24
ATOM     21  C   UNL     1       0.018  -2.453   6.104  0.00  0.00    +0.000 A 
ATOM     22  C   UNL     1       0.451  -1.140   6.112  0.00  0.00    +0.000 A 
ATOM     23  C   UNL     1       1.015  -0.592   4.976  0.00  0.00    +0.004 A 
ATOM     24  C   UNL     1       1.146  -1.355   3.831  0.00  0.00    -0.040 A 
ATOM     25  C   UNL     1       0.714  -2.668   3.823  0.00  0.00    +0.004 A 
ATOM     26  C   UNL     1       0.148  -3.217   4.959  0.00  0.00    +0.000 A 
ENDBRANCH  20  24
ENDBRANCH   1  20
BRANCH  16  27
ATOM     27  C   UNL     1       6.626   4.301   5.976  0.00  0.00    +0.019 C 
BRANCH  27  28
ATOM     28  C   UNL     1       7.382   5.421   5.309  0.00  0.00    +0.197 C 
ATOM     29  O   UNL     1       8.039   5.201   4.313  0.00  0.00    -0.278 OA
ATOM     30  N   UNL     1       7.328   6.667   5.819  0.00  0.00    -0.313 N 
ATOM     31  H   UNL     1       6.803   6.843   6.615  0.00  0.00    +0.149 HD
BRANCH  30  32
ATOM     32  C   UNL     1       8.063   7.756   5.171  0.00  0.00    +0.139 C 
BRANCH  32  33
ATOM     33  C   UNL     1       7.838   9.037   5.932  0.00  0.00    -0.030 A 
ATOM     34  C   UNL     1       6.777   9.860   5.603  0.00  0.00    +0.005 A 
ATOM     35  C   UNL     1       6.571  11.035   6.301  0.00  0.00    +0.000 A 
ATOM     36  C   UNL     1       7.425  11.387   7.330  0.00  0.00    +0.000 A 
ATOM     37  C   UNL     1       8.485  10.564   7.659  0.00  0.00    +0.000 A 
ATOM     38  C   UNL     1       8.689   9.387   6.964  0.00  0.00    +0.005 A 
ENDBRANCH  32  33
ENDBRANCH  30  32
ENDBRANCH  27  28
ENDBRANCH  16  27
TORSDOF 6
