REMARK  Name = ZINC08783356
REMARK  4 active torsions:
REMARK  status: ('A' for Active; 'I' for Inactive)
REMARK    1  A    between atoms: C_1  and  C_2
REMARK    2  A    between atoms: C_10  and  N_25
REMARK    3  A    between atoms: C_11  and  C_15
REMARK    4  A    between atoms: C_21  and  C_23
REMARK                            x       y       z     vdW  Elec       q    Type
REMARK                         _______ _______ _______ _____ _____    ______ ____
ROOT
ATOM      1  C   UNL     1     -12.933   4.207  -0.019  0.00  0.00    +0.008 C 
ATOM      2  C   UNL     1     -11.496   4.032   0.475  0.00  0.00    -0.009 C 
ATOM      3  C   UNL     1     -11.432   2.874   1.478  0.00  0.00    +0.010 C 
ATOM      4  C   UNL     1     -10.053   2.880   2.133  0.00  0.00    +0.056 C 
ATOM      5  C   UNL     1      -8.970   2.922   1.087  0.00  0.00    +0.046 A 
ATOM      6  C   UNL     1      -9.212   3.307  -0.219  0.00  0.00    -0.025 A 
ATOM      7  C   UNL     1      -8.178   3.336  -1.134  0.00  0.00    +0.017 A 
ATOM      8  C   UNL     1      -6.874   2.967  -0.728  0.00  0.00    +0.029 A 
ATOM      9  C   UNL     1      -5.650   2.928  -1.513  0.00  0.00    +0.053 A 
ATOM     10  C   UNL     1      -4.488   2.525  -0.893  0.00  0.00    +0.097 A 
ATOM     11  S   UNL     1      -5.006   2.196   0.780  0.00  0.00    -0.062 S 
ATOM     12  C   UNL     1      -6.732   2.587   0.626  0.00  0.00    +0.111 A 
ATOM     13  N   UNL     1      -7.745   2.578   1.460  0.00  0.00    -0.244 NA
ATOM     14  C   UNL     1     -10.584   3.700  -0.704  0.00  0.00    +0.040 C 
ENDROOT
BRANCH  10  15
ATOM     15  C   UNL     1      -3.190   2.406  -1.450  0.00  0.00    +0.256 C 
ATOM     16  O   UNL     1      -3.024   2.567  -2.645  0.00  0.00    -0.269 OA
ATOM     17  N   UNL     1      -2.140   2.115  -0.656  0.00  0.00    -0.283 N 
ATOM     18  C   UNL     1      -2.178   2.008   0.814  0.00  0.00    +0.109 C 
ATOM     19  C   UNL     1      -0.719   2.284   1.271  0.00  0.00    +0.021 C 
ATOM     20  C   UNL     1       0.091   1.593   0.143  0.00  0.00    +0.035 C 
ATOM     21  C   UNL     1      -0.768   1.851  -1.113  0.00  0.00    +0.189 C 
BRANCH  21  22
ATOM     22  C   UNL     1      -0.750   0.636  -2.005  0.00  0.00    +0.376 C 
ATOM     23  O   UNL     1      -1.678  -0.137  -1.992  0.00  0.00    -0.244 OA
ATOM     24  O   UNL     1       0.297   0.414  -2.815  0.00  0.00    -0.244 OA
ENDBRANCH  21  22
ENDBRANCH  10  15
BRANCH   9  25
ATOM     25  N   UNL     1      -5.653   3.284  -2.855  0.00  0.00    -0.356 N 
ATOM     26  H   UNL     1      -4.830   3.251  -3.367  0.00  0.00    +0.142 HD
ATOM     27  H   UNL     1      -6.478   3.566  -3.280  0.00  0.00    +0.142 HD
ENDBRANCH   9  25
TORSDOF 3
