REMARK  Name = ZINC20752501
REMARK  12 active torsions:
REMARK  status: ('A' for Active; 'I' for Inactive)
REMARK    1  A    between atoms: C_1  and  C_2
REMARK    2  A    between atoms: C_7  and  S_8
REMARK    3  A    between atoms: S_8  and  C_9
REMARK    4  A    between atoms: C_9  and  C_10
REMARK    5  A    between atoms: C_10  and  O_12
REMARK    6  A    between atoms: O_12  and  C_13
REMARK    7  A    between atoms: C_13  and  C_15
REMARK    8  A    between atoms: C_13  and  C_16
REMARK    9  A    between atoms: N_18  and  C_19
REMARK   10  A    between atoms: C_21  and  N_27
REMARK   11  A    between atoms: C_24  and  O_25
REMARK   12  A    between atoms: O_25  and  C_26
REMARK                            x       y       z     vdW  Elec       q    Type
REMARK                         _______ _______ _______ _____ _____    ______ ____
ROOT
ATOM      1  C   UNL     1      -0.008   1.073  -0.001  0.00  0.00    +0.259 C 
ATOM      2  C   UNL     1      -0.732   1.558   1.257  0.00  0.00    +0.062 C 
ENDROOT
BRANCH   1   3
ATOM      3  C   UNL     1       1.402   1.604  -0.005  0.00  0.00    +0.258 C 
ATOM      4  O   UNL     1       1.752   2.389  -0.861  0.00  0.00    -0.271 OA
ATOM      5  N   UNL     1       2.274   1.208   0.943  0.00  0.00    -0.279 N 
ATOM      6  H   UNL     1       1.933   0.569   1.771  0.00  0.00    +0.155 HD
BRANCH   5   7
ATOM      7  C   UNL     1       3.615   1.609   0.874  0.00  0.00    +0.078 A 
ATOM      8  C   UNL     1       4.177   1.949  -0.348  0.00  0.00    +0.059 A 
ATOM      9  C   UNL     1       5.498   2.349  -0.414  0.00  0.00    +0.128 A 
ATOM     10  C   UNL     1       6.265   2.402   0.735  0.00  0.00    +0.036 A 
ATOM     11  C   UNL     1       5.714   2.060   1.956  0.00  0.00    +0.050 A 
ATOM     12  C   UNL     1       4.389   1.662   2.031  0.00  0.00    +0.141 A 
BRANCH   9  13
ATOM     13  N   UNL     1       6.095   2.716  -1.718  0.00  0.00    +0.056 N 
ATOM     14  O   UNL     1       7.260   3.064  -1.778  0.00  0.00    -0.126 OA
ATOM     15  O   UNL     1       5.420   2.670  -2.731  0.00  0.00    -0.126 OA
ENDBRANCH   9  13
BRANCH  12  16
ATOM     16  O   UNL     1       3.845   1.324   3.230  0.00  0.00    -0.493 OA
ATOM     17  C   UNL     1       4.698   1.403   4.374  0.00  0.00    +0.277 C 
ENDBRANCH  12  16
ENDBRANCH   5   7
ENDBRANCH   1   3
BRANCH   1  18
ATOM     18  O   UNL     1      -0.710   1.553  -1.178  0.00  0.00    -0.452 OA
BRANCH  18  19
ATOM     19  C   UNL     1      -1.674   0.764  -1.677  0.00  0.00    +0.318 C 
ATOM     20  O   UNL     1      -1.925  -0.293  -1.146  0.00  0.00    -0.250 OA
BRANCH  19  21
ATOM     21  C   UNL     1      -2.445   1.195  -2.897  0.00  0.00    +0.194 C 
BRANCH  21  22
ATOM     22  S   UNL     1      -3.669  -0.075  -3.321  0.00  0.00    -0.114 S 
BRANCH  22  29
ATOM     23  C   UNL     1      -5.901  -1.496  -4.807  0.00  0.00    +0.045 C 
ATOM     24  C   UNL     1      -5.490  -0.157  -5.362  0.00  0.00    -0.036 A 
ATOM     25  C   UNL     1      -6.124   0.353  -6.477  0.00  0.00    +0.019 A 
ATOM     26  C   UNL     1      -5.744   1.581  -6.991  0.00  0.00    +0.018 A 
ATOM     27  C   UNL     1      -4.731   2.303  -6.385  0.00  0.00    +0.016 A 
ATOM     28  C   UNL     1      -4.097   1.802  -5.266  0.00  0.00    +0.016 A 
ATOM     29  C   UNL     1      -4.476   0.569  -4.748  0.00  0.00    +0.011 A 
ATOM     30 BR   UNL     1      -6.610   2.272  -8.523  0.00  0.00    -0.050 Br
ENDBRANCH  22  29
ENDBRANCH  21  22
ENDBRANCH  19  21
ENDBRANCH  18  19
ENDBRANCH   1  18
TORSDOF 9
