REMARK  Name = ZINC50322014
REMARK  6 active torsions:
REMARK  status: ('A' for Active; 'I' for Inactive)
REMARK    1  A    between atoms: C_1  and  C_2
REMARK    2  A    between atoms: C_2  and  C_3
REMARK    3  A    between atoms: C_3  and  C_4
REMARK    4  A    between atoms: C_5  and  N_22
REMARK    5  A    between atoms: C_6  and  C_10
REMARK    6  A    between atoms: N_12  and  C_13
REMARK                            x       y       z     vdW  Elec       q    Type
REMARK                         _______ _______ _______ _____ _____    ______ ____
ROOT
ATOM      1  C   UNL     1      -1.247  -5.422   1.357  0.00  0.00    +0.270 C 
ATOM      2  O   UNL     1      -1.132  -5.375   2.567  0.00  0.00    -0.268 OA
ATOM      3  N   UNL     1      -1.282  -6.614   0.729  0.00  0.00    -0.279 N 
ATOM      4  H   UNL     1      -1.438  -6.655  -0.227  0.00  0.00    +0.155 HD
ENDROOT
BRANCH   3   5
ATOM      5  C   UNL     1      -1.092  -7.794   1.458  0.00  0.00    +0.054 A 
ATOM      6  C   UNL     1      -1.565  -7.892   2.760  0.00  0.00    +0.046 A 
ATOM      7  C   UNL     1      -1.377  -9.058   3.477  0.00  0.00    +0.061 A 
ATOM      8  C   UNL     1      -0.717 -10.130   2.897  0.00  0.00    +0.061 A 
ATOM      9  C   UNL     1      -0.245 -10.035   1.600  0.00  0.00    +0.043 A 
ATOM     10  C   UNL     1      -0.435  -8.873   0.877  0.00  0.00    +0.064 A 
ATOM     11 CL   UNL     1       0.151  -8.758  -0.753  0.00  0.00    -0.082 Cl
ATOM     12 CL   UNL     1      -0.482 -11.593   3.801  0.00  0.00    -0.082 Cl
ATOM     13 CL   UNL     1      -1.967  -9.181   5.105  0.00  0.00    -0.082 Cl
ENDBRANCH   3   5
BRANCH   1  16
ATOM     14  C   UNL     1      -1.446  -2.041   0.009  0.00  0.00    +0.057 A 
ATOM     15  C   UNL     1      -1.326  -2.854   1.092  0.00  0.00    +0.078 A 
ATOM     16  C   UNL     1      -1.348  -4.175   0.577  0.00  0.00    +0.168 A 
ATOM     17  N   UNL     1      -1.475  -4.078  -0.733  0.00  0.00    -0.167 NA
ATOM     18  N   UNL     1      -1.540  -2.844  -1.083  0.00  0.00    -0.279 N 
ATOM     19  H   UNL     1      -1.639  -2.530  -1.996  0.00  0.00    +0.189 HD
BRANCH  15  20
ATOM     20  N   UNL     1      -1.205  -2.467   2.435  0.00  0.00    -0.355 N 
ATOM     21  H   UNL     1      -1.202  -1.527   2.671  0.00  0.00    +0.142 HD
ATOM     22  H   UNL     1      -1.125  -3.141   3.128  0.00  0.00    +0.142 HD
ENDBRANCH  15  20
BRANCH  14  23
ATOM     23  C   UNL     1      -1.477  -0.534   0.019  0.00  0.00    +0.056 C 
BRANCH  23  25
ATOM     24  C   UNL     1      -0.077   1.535   0.014  0.00  0.00    +0.004 C 
ATOM     25  C   UNL     1      -0.045   0.005   0.004  0.00  0.00    +0.003 C 
ENDBRANCH  23  25
ENDBRANCH  14  23
ENDBRANCH   1  16
TORSDOF 5
