REMARK  Name = ZINC12850823
REMARK  5 active torsions:
REMARK  status: ('A' for Active; 'I' for Inactive)
REMARK    1  A    between atoms: C_1  and  C_2
REMARK    2  A    between atoms: C_5  and  C_9
REMARK    3  A    between atoms: C_6  and  C_8
REMARK    4  A    between atoms: C_11  and  C_14
REMARK    5  A    between atoms: C_14  and  N_15
REMARK                            x       y       z     vdW  Elec       q    Type
REMARK                         _______ _______ _______ _____ _____    ______ ____
ROOT
ATOM      1  C   UNL     1       2.353   1.416   1.126  0.00  0.00    +0.184 C 
ENDROOT
BRANCH   1   2
ATOM      2  N   UNL     1       3.055   1.267  -0.151  0.00  0.00    -0.293 N 
ATOM      3  C   UNL     1       3.722   2.330  -0.671  0.00  0.00    +0.203 A 
ATOM      4  N   UNL     1       4.362   2.238  -1.806  0.00  0.00    -0.230 NA
ATOM      5  C   UNL     1       4.380   1.096  -2.489  0.00  0.00    +0.116 A 
ATOM      6  C   UNL     1       3.720  -0.052  -2.032  0.00  0.00    +0.076 A 
ATOM      7  C   UNL     1       3.032   0.078  -0.782  0.00  0.00    +0.263 A 
ATOM      8  O   UNL     1       2.433  -0.869  -0.301  0.00  0.00    -0.267 OA
ATOM      9  C   UNL     1       3.824  -1.242  -2.890  0.00  0.00    -0.023 A 
ATOM     10  C   UNL     1       4.539  -1.115  -4.021  0.00  0.00    -0.004 A 
ATOM     11  S   UNL     1       5.108   0.570  -4.018  0.00  0.00    -0.073 S 
ATOM     12  C   UNL     1       4.580  -2.394  -4.813  0.00  0.00    +0.043 C 
ATOM     13  C   UNL     1       4.146  -3.485  -3.811  0.00  0.00    +0.010 C 
ATOM     14  C   UNL     1       3.291  -2.676  -2.816  0.00  0.00    +0.037 C 
ENDBRANCH   1   2
BRANCH   1  17
ATOM     15  C   UNL     1      -0.769   3.130   0.501  0.00  0.00    +0.228 A 
ATOM     16  N   UNL     1       0.528   3.131   0.699  0.00  0.00    -0.212 NA
ATOM     17  C   UNL     1       0.937   1.865   0.871  0.00  0.00    +0.100 A 
ATOM     18  C   UNL     1      -0.142   1.067   0.775  0.00  0.00    +0.222 A 
ATOM     19  O   UNL     1      -1.207   1.859   0.539  0.00  0.00    -0.443 OA
BRANCH  15  24
ATOM     20  C   UNL     1      -4.034   7.782  -0.403  0.00  0.00    +0.044 C 
ATOM     21  C   UNL     1      -3.179   6.563  -0.166  0.00  0.00    -0.050 A 
ATOM     22  C   UNL     1      -1.842   6.713   0.156  0.00  0.00    +0.004 A 
ATOM     23  C   UNL     1      -1.054   5.601   0.374  0.00  0.00    +0.014 A 
ATOM     24  C   UNL     1      -1.608   4.325   0.269  0.00  0.00    +0.040 A 
ATOM     25  C   UNL     1      -2.957   4.181  -0.061  0.00  0.00    -0.038 A 
ATOM     26  C   UNL     1      -3.735   5.301  -0.271  0.00  0.00    +0.007 A 
ATOM     27  C   UNL     1      -3.562   2.807  -0.182  0.00  0.00    +0.044 C 
ENDBRANCH  15  24
ENDBRANCH   1  17
TORSDOF 3
