REMARK  Name = ZINC05714874
REMARK  7 active torsions:
REMARK  status: ('A' for Active; 'I' for Inactive)
REMARK    1  A    between atoms: C_1  and  C_2
REMARK    2  A    between atoms: C_2  and  C_3
REMARK    3  A    between atoms: C_3  and  C_5
REMARK    4  A    between atoms: C_3  and  C_6
REMARK    5  A    between atoms: C_6  and  C_8
REMARK    6  A    between atoms: C_6  and  N_21
REMARK    7  A    between atoms: C_16  and  C_20
REMARK                            x       y       z     vdW  Elec       q    Type
REMARK                         _______ _______ _______ _____ _____    ______ ____
ROOT
ATOM      1  C   UNL     1      -1.117  -2.954   0.167  0.00  0.00    +0.173 C 
ENDROOT
BRANCH   1   2
ATOM      2  C   UNL     1      -1.559  -2.547   1.550  0.00  0.00    +0.240 C 
ATOM      3  O   UNL     1      -1.341  -1.423   1.950  0.00  0.00    -0.273 OA
ATOM      4  N   UNL     1      -2.195  -3.433   2.341  0.00  0.00    -0.263 N 
ATOM      5  C   UNL     1      -2.686  -3.033   3.574  0.00  0.00    +0.165 A 
ATOM      6  N   UNL     1      -2.629  -1.849   4.138  0.00  0.00    -0.225 NA
ATOM      7  C   UNL     1      -3.155  -1.599   5.356  0.00  0.00    +0.080 A 
ATOM      8  C   UNL     1      -3.162  -0.379   6.071  0.00  0.00    +0.029 A 
ATOM      9  C   UNL     1      -3.744  -0.296   7.309  0.00  0.00    +0.005 A 
ATOM     10  C   UNL     1      -4.344  -1.396   7.903  0.00  0.00    -0.049 A 
ATOM     11  C   UNL     1      -4.355  -2.606   7.233  0.00  0.00    +0.020 A 
ATOM     12  C   UNL     1      -3.775  -2.699   5.993  0.00  0.00    +0.041 A 
ATOM     13  S   UNL     1      -3.563  -3.996   4.797  0.00  0.00    -0.052 S 
ATOM     14  C   UNL     1      -4.977  -1.275   9.265  0.00  0.00    +0.044 C 
ATOM     15  H   UNL     1      -2.310  -4.351   2.049  0.00  0.00    +0.157 HD
ENDBRANCH   1   2
BRANCH   1  16
ATOM     16  N   UNL     1      -0.095  -2.020  -0.313  0.00  0.00    -0.222 N 
ATOM     17  C   UNL     1      -0.316  -0.720  -0.577  0.00  0.00    +0.255 C 
ATOM     18  O   UNL     1      -1.378  -0.142  -0.457  0.00  0.00    -0.270 OA
ATOM     19  C   UNL     1       0.950  -0.112  -1.038  0.00  0.00    +0.049 A 
ATOM     20  C   UNL     1       1.321   1.161  -1.441  0.00  0.00    +0.014 A 
ATOM     21  C   UNL     1       2.631   1.406  -1.823  0.00  0.00    +0.001 A 
ATOM     22  C   UNL     1       3.568   0.390  -1.806  0.00  0.00    +0.001 A 
ATOM     23  C   UNL     1       3.210  -0.888  -1.405  0.00  0.00    +0.014 A 
ATOM     24  C   UNL     1       1.905  -1.148  -1.020  0.00  0.00    +0.049 A 
ATOM     25  C   UNL     1       1.187  -2.351  -0.548  0.00  0.00    +0.255 C 
ATOM     26  O   UNL     1       1.674  -3.453  -0.397  0.00  0.00    -0.270 OA
ENDBRANCH   1  16
BRANCH   1  27
ATOM     27  C   UNL     1      -2.318  -2.927  -0.780  0.00  0.00    +0.016 C 
ATOM     28  C   UNL     1      -3.444  -3.787  -0.201  0.00  0.00    +0.010 C 
BRANCH  27  30
ATOM     29  C   UNL     1      -0.933  -2.506  -2.817  0.00  0.00    +0.004 C 
ATOM     30  C   UNL     1      -1.904  -3.480  -2.145  0.00  0.00    +0.002 C 
ENDBRANCH  27  30
ENDBRANCH   1  27
TORSDOF 4
