REMARK  Name = ZINC06281933
REMARK  10 active torsions:
REMARK  status: ('A' for Active; 'I' for Inactive)
REMARK    1  A    between atoms: C_1  and  C_2
REMARK    2  A    between atoms: C_9  and  C_14
REMARK    3  A    between atoms: C_14  and  C_16
REMARK    4  A    between atoms: C_14  and  N_69
REMARK    5  A    between atoms: N_20  and  C_21
REMARK    6  A    between atoms: C_21  and  C_22
REMARK    7  A    between atoms: C_28  and  C_29
REMARK    8  A    between atoms: C_28  and  N_69
REMARK    9  A    between atoms: C_35  and  C_36
REMARK   10  A    between atoms: C_35  and  N_69
REMARK                            x       y       z     vdW  Elec       q    Type
REMARK                         _______ _______ _______ _____ _____    ______ ____
ROOT
ATOM      1  C   UNL     1       1.740  -3.992  -0.911  0.00  0.00    +0.040 C 
ENDROOT
BRANCH   1  10
ATOM      2  C   UNL     1      -0.593 -10.829   0.940  0.00  0.00    +0.044 C 
ATOM      3  C   UNL     1      -0.504  -9.351   1.218  0.00  0.00    -0.050 A 
ATOM      4  C   UNL     1      -1.108  -8.827   2.353  0.00  0.00    +0.005 A 
ATOM      5  C   UNL     1      -1.040  -7.478   2.627  0.00  0.00    +0.026 A 
ATOM      6  C   UNL     1      -0.359  -6.631   1.758  0.00  0.00    +0.049 A 
ATOM      7  C   UNL     1       0.251  -7.166   0.608  0.00  0.00    -0.001 A 
ATOM      8  C   UNL     1       0.169  -8.538   0.351  0.00  0.00    +0.013 A 
ATOM      9  C   UNL     1       0.961  -6.265  -0.302  0.00  0.00    +0.017 A 
ATOM     10  C   UNL     1       1.013  -4.945   0.002  0.00  0.00    +0.011 A 
ATOM     11  C   UNL     1       0.383  -4.459   1.168  0.00  0.00    +0.251 A 
ATOM     12  O   UNL     1       0.437  -3.268   1.421  0.00  0.00    -0.268 OA
ATOM     13  N   UNL     1      -0.275  -5.278   2.008  0.00  0.00    -0.322 N 
ATOM     14  H   UNL     1      -0.696  -4.911   2.801  0.00  0.00    +0.169 HD
ENDBRANCH   1  10
BRANCH   1  15
ATOM     15  C   UNL     1       2.997  -3.508  -0.235  0.00  0.00    +0.143 A 
ATOM     16  N   UNL     1       3.070  -2.704   0.798  0.00  0.00    -0.115 NA
ATOM     17  N   UNL     1       4.316  -2.530   1.078  0.00  0.00    -0.023 NA
ATOM     18  N   UNL     1       5.038  -3.202   0.252  0.00  0.00    -0.044 NA
ATOM     19  N   UNL     1       4.262  -3.823  -0.570  0.00  0.00    -0.226 N 
BRANCH  19  20
ATOM     20  C   UNL     1       4.678  -4.703  -1.665  0.00  0.00    +0.182 C 
BRANCH  20  21
ATOM     21  C   UNL     1       4.865  -3.889  -2.920  0.00  0.00    -0.026 A 
ATOM     22  C   UNL     1       3.806  -3.703  -3.788  0.00  0.00    +0.005 A 
ATOM     23  C   UNL     1       3.976  -2.953  -4.936  0.00  0.00    +0.000 A 
ATOM     24  C   UNL     1       5.209  -2.397  -5.222  0.00  0.00    +0.000 A 
ATOM     25  C   UNL     1       6.270  -2.587  -4.356  0.00  0.00    +0.000 A 
ATOM     26  C   UNL     1       6.098  -3.333  -3.205  0.00  0.00    +0.005 A 
ENDBRANCH  20  21
ENDBRANCH  19  20
ENDBRANCH   1  15
BRANCH   1  27
ATOM     27  N   UNL     1       0.860  -2.836  -1.187  0.00  0.00    +0.395 N 
ATOM     28  H   UNL     1       0.394  -2.556  -0.316  0.00  0.00    -0.079 HD
BRANCH  27  29
ATOM     29  C   UNL     1       1.661  -1.701  -1.690  0.00  0.00    -0.041 C 
BRANCH  29  30
ATOM     30  C   UNL     1       0.846  -0.440  -1.560  0.00  0.00    -0.064 A 
ATOM     31  C   UNL     1       0.053  -0.017  -2.611  0.00  0.00    +0.002 A 
ATOM     32  C   UNL     1      -0.698   1.136  -2.490  0.00  0.00    +0.000 A 
ATOM     33  C   UNL     1      -0.649   1.874  -1.322  0.00  0.00    +0.000 A 
ATOM     34  C   UNL     1       0.148   1.455  -0.273  0.00  0.00    +0.000 A 
ATOM     35  C   UNL     1       0.895   0.298  -0.392  0.00  0.00    +0.002 A 
ENDBRANCH  29  30
ENDBRANCH  27  29
BRANCH  27  36
ATOM     36  C   UNL     1      -0.168  -3.210  -2.182  0.00  0.00    -0.040 C 
BRANCH  36  37
ATOM     37  C   UNL     1      -1.269  -3.960  -1.478  0.00  0.00    -0.046 A 
ATOM     38  C   UNL     1      -1.304  -5.346  -1.507  0.00  0.00    +0.005 A 
ATOM     39  C   UNL     1      -2.336  -5.994  -0.845  0.00  0.00    +0.020 A 
ATOM     40  C   UNL     1      -3.288  -5.242  -0.183  0.00  0.00    +0.111 A 
ATOM     41  N   UNL     1      -3.224  -3.926  -0.177  0.00  0.00    -0.263 NA
ATOM     42  C   UNL     1      -2.257  -3.276  -0.795  0.00  0.00    +0.112 A 
ENDBRANCH  36  37
ENDBRANCH  27  36
ENDBRANCH   1  27
TORSDOF 9
