REMARK  Name = ZINC36704416
REMARK  10 active torsions:
REMARK  status: ('A' for Active; 'I' for Inactive)
REMARK    1  A    between atoms: C_1  and  C_2
REMARK    2  A    between atoms: N_11  and  C_12
REMARK    3  A    between atoms: C_12  and  C_13
REMARK    4  A    between atoms: C_13  and  C_14
REMARK    5  A    between atoms: C_14  and  N_15
REMARK    6  A    between atoms: N_15  and  C_16
REMARK    7  A    between atoms: N_15  and  C_17
REMARK    8  A    between atoms: C_18  and  C_20
REMARK    9  A    between atoms: N_25  and  S_26
REMARK   10  A    between atoms: S_26  and  C_29
REMARK                            x       y       z     vdW  Elec       q    Type
REMARK                         _______ _______ _______ _____ _____    ______ ____
ROOT
ATOM      1  C   UNL     1      -1.442   1.299   0.192  0.00  0.00    +0.047 C 
ATOM      2  C   UNL     1      -0.610   0.054   0.022  0.00  0.00    -0.006 A 
ATOM      3  C   UNL     1      -0.482  -0.512  -1.221  0.00  0.00    +0.046 A 
ATOM      4  C   UNL     1       0.275  -1.658  -1.421  0.00  0.00    +0.021 A 
ATOM      5  C   UNL     1       0.916  -2.243  -0.344  0.00  0.00    +0.019 A 
ATOM      6  C   UNL     1       0.793  -1.684   0.903  0.00  0.00    +0.041 A 
ATOM      7  C   UNL     1       0.035  -0.515   1.144  0.00  0.00    +0.085 A 
ATOM      8  N   UNL     1       0.016  -0.084   2.424  0.00  0.00    -0.224 NA
ATOM      9  C   UNL     1       0.660  -0.702   3.387  0.00  0.00    +0.168 A 
ATOM     10  S   UNL     1       1.413  -2.073   2.522  0.00  0.00    -0.052 S 
ATOM     11  N   UNL     1       0.731  -0.379   4.732  0.00  0.00    -0.249 N 
ATOM     12  C   UNL     1       0.078   0.704   5.200  0.00  0.00    +0.240 C 
ATOM     13  O   UNL     1      -0.642   1.343   4.463  0.00  0.00    -0.273 OA
ATOM     14 CL   UNL     1      -1.286   0.221  -2.574  0.00  0.00    -0.083 Cl
ENDROOT
BRANCH  12  15
ATOM     15  C   UNL     1       0.242   1.118   6.640  0.00  0.00    +0.166 C 
ATOM     16  C   UNL     1      -0.866   0.477   7.500  0.00  0.00    +0.031 C 
ATOM     17  C   UNL     1      -1.221   1.603   8.507  0.00  0.00    +0.019 C 
ATOM     18  C   UNL     1      -1.056   2.868   7.628  0.00  0.00    +0.110 C 
ATOM     19  N   UNL     1       0.103   2.577   6.759  0.00  0.00    -0.164 NA
BRANCH  19  20
ATOM     20  S   UNL     1       1.081   3.702   6.038  0.00  0.00    +0.068 S 
ATOM     21  O   UNL     1       0.978   4.887   6.816  0.00  0.00    -0.152 OA
ATOM     22  O   UNL     1       2.324   3.060   5.790  0.00  0.00    -0.152 OA
BRANCH  20  23
ATOM     23  C   UNL     1       0.381   4.070   4.464  0.00  0.00    +0.143 A 
ATOM     24  C   UNL     1      -0.524   5.024   4.134  0.00  0.00    +0.036 A 
ATOM     25  C   UNL     1      -0.935   5.131   2.819  0.00  0.00    +0.010 A 
ATOM     26  C   UNL     1      -0.422   4.279   1.898  0.00  0.00    +0.047 A 
ATOM     27  S   UNL     1       0.684   3.287   2.888  0.00  0.00    -0.077 S 
ENDBRANCH  20  23
ENDBRANCH  19  20
ENDBRANCH  12  15
BRANCH  11  28
ATOM     28  C   UNL     1       1.516  -1.213   5.646  0.00  0.00    +0.114 C 
BRANCH  28  29
ATOM     29  C   UNL     1       2.971  -0.742   5.643  0.00  0.00    +0.001 C 
BRANCH  29  30
ATOM     30  C   UNL     1       3.791  -1.614   6.597  0.00  0.00    -0.078 C 
BRANCH  30  31
ATOM     31  N   UNL     1       5.189  -1.162   6.594  0.00  0.00    +0.376 N 
ATOM     32  C   UNL     1       5.265   0.197   7.147  0.00  0.00    -0.097 C 
ATOM     33  C   UNL     1       5.998  -2.071   7.417  0.00  0.00    -0.097 C 
ATOM     34  H   UNL     1       5.540  -1.161   5.649  0.00  0.00    -0.083 HD
ENDBRANCH  30  31
ENDBRANCH  29  30
ENDBRANCH  28  29
ENDBRANCH  11  28
TORSDOF 7
