REMARK  Name = ZINC08569259
REMARK  14 active torsions:
REMARK  status: ('A' for Active; 'I' for Inactive)
REMARK    1  A    between atoms: C_1  and  C_2
REMARK    2  A    between atoms: C_2  and  O_3
REMARK    3  A    between atoms: O_3  and  C_4
REMARK    4  A    between atoms: C_6  and  C_18
REMARK    5  A    between atoms: C_9  and  O_10
REMARK    6  A    between atoms: O_10  and  C_11
REMARK    7  A    between atoms: C_11  and  C_12
REMARK    8  A    between atoms: C_21  and  C_32
REMARK    9  A    between atoms: N_28  and  C_29
REMARK   10  A    between atoms: C_29  and  C_30
REMARK   11  A    between atoms: C_30  and  O_31
REMARK   12  A    between atoms: C_34  and  C_40
REMARK   13  A    between atoms: C_36  and  C_39
REMARK   14  A    between atoms: C_37  and  O_38
REMARK                            x       y       z     vdW  Elec       q    Type
REMARK                         _______ _______ _______ _____ _____    ______ ____
ROOT
ATOM      1  C   UNL     1       0.154  -5.358  -0.091  0.00  0.00    +0.141 C 
ATOM      2  C   UNL     1       0.838  -5.747  -1.373  0.00  0.00    +0.035 A 
ATOM      3  C   UNL     1       1.473  -5.326  -2.546  0.00  0.00    +0.102 A 
ATOM      4  N   UNL     1       1.821  -6.406  -3.216  0.00  0.00    -0.173 NA
ATOM      5  N   UNL     1       1.469  -7.468  -2.582  0.00  0.00    -0.272 N 
ATOM      6  H   UNL     1       1.624  -8.376  -2.888  0.00  0.00    +0.189 HD
ATOM      7  C   UNL     1       0.846  -7.128  -1.415  0.00  0.00    +0.126 A 
ATOM      8  C   UNL     1       0.190  -7.636  -0.205  0.00  0.00    +0.266 C 
ATOM      9  O   UNL     1       0.035  -8.813   0.058  0.00  0.00    -0.268 OA
ATOM     10  N   UNL     1      -0.216  -6.615   0.573  0.00  0.00    -0.283 N 
ENDROOT
BRANCH   3  11
ATOM     11  C   UNL     1       1.711  -3.920  -2.960  0.00  0.00    +0.044 A 
ATOM     12  C   UNL     1       1.407  -2.875  -2.092  0.00  0.00    +0.017 A 
ATOM     13  C   UNL     1       1.630  -1.569  -2.482  0.00  0.00    -0.049 A 
ATOM     14  C   UNL     1       2.154  -1.296  -3.733  0.00  0.00    +0.010 A 
ATOM     15  C   UNL     1       2.458  -2.326  -4.602  0.00  0.00    -0.008 A 
ATOM     16  C   UNL     1       2.245  -3.641  -4.221  0.00  0.00    +0.129 A 
ATOM     17  C   UNL     1       3.028  -2.019  -5.963  0.00  0.00    +0.047 C 
ATOM     18  C   UNL     1       1.301  -0.439  -1.542  0.00  0.00    +0.044 C 
BRANCH  16  19
ATOM     19  O   UNL     1       2.550  -4.655  -5.072  0.00  0.00    -0.506 OA
ATOM     20  H   UNL     1       1.822  -4.911  -5.656  0.00  0.00    +0.292 HD
ENDBRANCH  16  19
ENDBRANCH   3  11
BRANCH   1  23
ATOM     21  C   UNL     1      -3.301  -4.395  -1.279  0.00  0.00    +0.162 A 
ATOM     22  C   UNL     1      -2.166  -5.140  -1.005  0.00  0.00    +0.055 A 
ATOM     23  C   UNL     1      -1.081  -4.546  -0.388  0.00  0.00    -0.019 A 
ATOM     24  C   UNL     1      -1.126  -3.208  -0.043  0.00  0.00    +0.009 A 
ATOM     25  C   UNL     1      -2.256  -2.459  -0.313  0.00  0.00    +0.050 A 
ATOM     26  C   UNL     1      -3.344  -3.047  -0.936  0.00  0.00    +0.162 A 
BRANCH  21  27
ATOM     27  O   UNL     1      -4.369  -4.979  -1.886  0.00  0.00    -0.489 OA
BRANCH  27  29
ATOM     28  C   UNL     1      -5.624  -6.879  -2.695  0.00  0.00    +0.048 C 
ATOM     29  C   UNL     1      -4.298  -6.388  -2.109  0.00  0.00    +0.226 C 
ENDBRANCH  27  29
ENDBRANCH  21  27
BRANCH  26  30
ATOM     30  O   UNL     1      -4.455  -2.310  -1.208  0.00  0.00    -0.484 OA
BRANCH  30  31
ATOM     31  C   UNL     1      -4.428  -0.933  -0.829  0.00  0.00    +0.264 C 
BRANCH  31  32
ATOM     32  C   UNL     1      -5.734  -0.282  -1.206  0.00  0.00    -0.010 A 
ATOM     33  C   UNL     1      -5.883   0.297  -2.452  0.00  0.00    +0.007 A 
ATOM     34  C   UNL     1      -7.080   0.894  -2.799  0.00  0.00    +0.000 A 
ATOM     35  C   UNL     1      -8.130   0.911  -1.899  0.00  0.00    +0.000 A 
ATOM     36  C   UNL     1      -7.981   0.330  -0.653  0.00  0.00    +0.000 A 
ATOM     37  C   UNL     1      -6.785  -0.270  -0.308  0.00  0.00    +0.007 A 
ENDBRANCH  31  32
ENDBRANCH  30  31
ENDBRANCH  26  30
ENDBRANCH   1  23
BRANCH  10  38
ATOM     38  C   UNL     1      -0.907  -6.735   1.859  0.00  0.00    +0.137 C 
BRANCH  38  39
ATOM     39  C   UNL     1      -2.409  -6.899   1.617  0.00  0.00    +0.175 C 
BRANCH  39  40
ATOM     40  O   UNL     1      -2.648  -8.121   0.915  0.00  0.00    -0.393 OA
ATOM     41  H   UNL     1      -3.581  -8.290   0.727  0.00  0.00    +0.209 HD
ENDBRANCH  39  40
ENDBRANCH  38  39
ENDBRANCH  10  38
TORSDOF 11
