REMARK  Name = ZINC35087269
REMARK  5 active torsions:
REMARK  status: ('A' for Active; 'I' for Inactive)
REMARK    1  A    between atoms: C_3  and  C_11
REMARK    2  A    between atoms: C_11  and  C_13
REMARK    3  A    between atoms: C_14  and  N_30
REMARK    4  A    between atoms: C_16  and  C_25
REMARK    5  A    between atoms: C_17  and  C_23
REMARK                            x       y       z     vdW  Elec       q    Type
REMARK                         _______ _______ _______ _____ _____    ______ ____
ROOT
ATOM      1  C   UNL     1       3.631   3.583  -0.137  0.00  0.00    +0.083 A 
ATOM      2  C   UNL     1       4.699   4.457  -0.247  0.00  0.00    +0.053 A 
ATOM      3  C   UNL     1       4.449   5.840  -0.316  0.00  0.00    +0.041 A 
ATOM      4  C   UNL     1       5.402   6.902  -0.431  0.00  0.00    +0.049 A 
ATOM      5  C   UNL     1       4.934   8.226  -0.484  0.00  0.00    +0.102 A 
ATOM      6  C   UNL     1       3.550   8.482  -0.424  0.00  0.00    +0.136 A 
ATOM      7  N   UNL     1       2.693   7.479  -0.318  0.00  0.00    -0.224 NA
ATOM      8  C   UNL     1       3.089   6.224  -0.265  0.00  0.00    +0.114 A 
ATOM      9  S   UNL     1       2.223   4.677  -0.134  0.00  0.00    -0.063 S 
ATOM     10  N   UNL     1       3.087   9.783  -0.477  0.00  0.00    -0.342 N 
ATOM     11  H   UNL     1       3.715  10.518  -0.554  0.00  0.00    +0.144 HD
ATOM     12  H   UNL     1       2.134   9.960  -0.436  0.00  0.00    +0.144 HD
ENDROOT
BRANCH   4  13
ATOM     13  C   UNL     1       6.841   6.613  -0.491  0.00  0.00    +0.137 A 
ATOM     14  C   UNL     1       7.664   6.858  -1.552  0.00  0.00    +0.050 A 
ATOM     15  C   UNL     1       8.948   6.428  -1.175  0.00  0.00    +0.042 A 
ATOM     16  C   UNL     1       8.853   5.947   0.083  0.00  0.00    +0.196 A 
ATOM     17  O   UNL     1       7.581   6.065   0.494  0.00  0.00    -0.463 OA
ENDBRANCH   4  13
BRANCH   2  18
ATOM     18  N   UNL     1       5.999   3.976  -0.288  0.00  0.00    -0.356 N 
ATOM     19  H   UNL     1       6.694   4.494  -0.722  0.00  0.00    +0.142 HD
ATOM     20  H   UNL     1       6.212   3.120   0.117  0.00  0.00    +0.142 HD
ENDBRANCH   2  18
BRANCH   1  21
ATOM     21  C   UNL     1       3.651   2.173  -0.053  0.00  0.00    +0.205 C 
ATOM     22  O   UNL     1       4.715   1.581   0.005  0.00  0.00    -0.286 OA
BRANCH  21  25
ATOM     23  C   UNL     1      -0.012   1.366  -0.222  0.00  0.00    +0.004 A 
ATOM     24  C   UNL     1       1.169   2.076  -0.237  0.00  0.00    +0.015 A 
ATOM     25  C   UNL     1       2.383   1.415  -0.037  0.00  0.00    +0.068 A 
ATOM     26  C   UNL     1       2.393   0.031   0.180  0.00  0.00    +0.173 A 
ATOM     27  C   UNL     1       1.195  -0.671   0.195  0.00  0.00    +0.163 A 
ATOM     28  C   UNL     1      -0.002  -0.002  -0.008  0.00  0.00    +0.049 A 
ATOM     29  O   UNL     1       1.180  -2.015   0.411  0.00  0.00    -0.485 OA
ATOM     30  C   UNL     1       2.421  -2.709   0.239  0.00  0.00    +0.270 C 
ATOM     31  C   UNL     1       3.520  -1.912   0.954  0.00  0.00    +0.270 C 
ATOM     32  O   UNL     1       3.578  -0.606   0.370  0.00  0.00    -0.484 OA
ENDBRANCH  21  25
ENDBRANCH   1  21
BRANCH   5  33
ATOM     33  C   UNL     1       5.862   9.311  -0.599  0.00  0.00    +0.103 C 
ATOM     34  N   UNL     1       6.597  10.172  -0.689  0.00  0.00    -0.191 NA
ENDBRANCH   5  33
TORSDOF 5
