REMARK  Name = ZINC39016639
REMARK  8 active torsions:
REMARK  status: ('A' for Active; 'I' for Inactive)
REMARK    1  A    between atoms: C_4  and  C_7
REMARK    2  A    between atoms: C_7  and  C_8
REMARK    3  A    between atoms: C_8  and  O_9
REMARK    4  A    between atoms: O_9  and  C_10
REMARK    5  A    between atoms: C_13  and  C_16
REMARK    6  A    between atoms: C_18  and  C_22
REMARK    7  A    between atoms: N_24  and  N_25
REMARK    8  A    between atoms: C_26  and  C_27
REMARK                            x       y       z     vdW  Elec       q    Type
REMARK                         _______ _______ _______ _____ _____    ______ ____
ROOT
ATOM      1  C   UNL     1       7.694  -2.928   6.351  0.00  0.00    +0.046 C 
ATOM      2  C   UNL     1       8.854  -3.564   6.506  0.00  0.00    +0.027 C 
ATOM      3  C   UNL     1       9.082  -3.695   7.996  0.00  0.00    +0.184 C 
ATOM      4  N   UNL     1       7.904  -3.050   8.607  0.00  0.00    -0.227 NA
ATOM      5  N   UNL     1       7.124  -2.612   7.576  0.00  0.00    -0.279 N 
ATOM      6  H   UNL     1       7.401  -3.699   9.195  0.00  0.00    +0.145 HD
ATOM      7  H   UNL     1       6.281  -2.145   7.685  0.00  0.00    +0.166 HD
ENDROOT
BRANCH   1  11
ATOM      8  C   UNL     1       5.969  -1.968   2.586  0.00  0.00    +0.121 A 
ATOM      9  C   UNL     1       5.317  -1.609   3.758  0.00  0.00    +0.046 A 
ATOM     10  C   UNL     1       5.874  -1.919   4.981  0.00  0.00    +0.013 A 
ATOM     11  C   UNL     1       7.093  -2.594   5.039  0.00  0.00    -0.003 A 
ATOM     12  C   UNL     1       7.745  -2.954   3.860  0.00  0.00    +0.013 A 
ATOM     13  C   UNL     1       7.180  -2.645   2.640  0.00  0.00    +0.046 A 
BRANCH   8  14
ATOM     14  O   UNL     1       5.418  -1.661   1.382  0.00  0.00    -0.492 OA
BRANCH  14  15
ATOM     15  C   UNL     1       4.171  -0.963   1.399  0.00  0.00    +0.233 C 
BRANCH  15  16
ATOM     16  C   UNL     1       3.711  -0.707  -0.038  0.00  0.00    +0.076 C 
BRANCH  16  20
ATOM     17  C   UNL     1      -0.017   1.378   0.010  0.00  0.00    +0.000 A 
ATOM     18  C   UNL     1       1.171   2.086   0.002  0.00  0.00    +0.000 A 
ATOM     19  C   UNL     1       2.377   1.411  -0.013  0.00  0.00    +0.004 A 
ATOM     20  C   UNL     1       2.396   0.029  -0.020  0.00  0.00    -0.044 A 
ATOM     21  C   UNL     1       1.208  -0.679  -0.012  0.00  0.00    +0.004 A 
ATOM     22  C   UNL     1       0.002  -0.004   0.002  0.00  0.00    +0.000 A 
ENDBRANCH  16  20
ENDBRANCH  15  16
ENDBRANCH  14  15
ENDBRANCH   8  14
ENDBRANCH   1  11
BRANCH   3  23
ATOM     23  C   UNL     1      10.345  -2.978   8.399  0.00  0.00    +0.255 C 
ATOM     24  O   UNL     1      10.284  -1.873   8.894  0.00  0.00    -0.272 OA
ATOM     25  N   UNL     1      11.543  -3.566   8.210  0.00  0.00    -0.205 N 
ATOM     26  H   UNL     1      11.593  -4.450   7.815  0.00  0.00    +0.177 HD
BRANCH  25  27
ATOM     27  N   UNL     1      12.717  -2.900   8.585  0.00  0.00    -0.188 NA
ATOM     28  C   UNL     1      13.881  -3.471   8.402  0.00  0.00    +0.136 C 
BRANCH  28  29
ATOM     29  C   UNL     1      15.056  -2.804   8.777  0.00  0.00    +0.000 C 
ATOM     30  C   UNL     1      16.364  -3.265   8.646  0.00  0.00    +0.004 A 
ATOM     31  C   UNL     1      16.907  -4.463   8.133  0.00  0.00    +0.010 A 
ATOM     32  C   UNL     1      18.252  -4.646   8.131  0.00  0.00    +0.001 A 
ATOM     33  C   UNL     1      19.124  -3.674   8.628  0.00  0.00    +0.002 A 
ATOM     34  C   UNL     1      18.675  -2.501   9.135  0.00  0.00    +0.026 A 
ATOM     35  C   UNL     1      17.280  -2.236   9.171  0.00  0.00    +0.043 A 
ATOM     36  N   UNL     1      16.602  -1.195   9.605  0.00  0.00    -0.380 N 
ATOM     37  C   UNL     1      15.169  -1.431   9.403  0.00  0.00    +0.150 C 
ATOM     38  H   UNL     1      16.989  -0.395   9.993  0.00  0.00    +0.160 HD
ENDBRANCH  28  29
ENDBRANCH  25  27
ENDBRANCH   3  23
TORSDOF 8
