REMARK  Name = ZINC02750040
REMARK  6 active torsions:
REMARK  status: ('A' for Active; 'I' for Inactive)
REMARK    1  A    between atoms: C_1  and  N_2
REMARK    2  A    between atoms: C_3  and  C_5
REMARK    3  A    between atoms: C_9  and  N_10
REMARK    4  A    between atoms: C_11  and  C_13
REMARK    5  A    between atoms: C_15  and  S_21
REMARK    6  A    between atoms: S_21  and  N_24
REMARK                            x       y       z     vdW  Elec       q    Type
REMARK                         _______ _______ _______ _____ _____    ______ ____
ROOT
ATOM      1  N   UNL     1      -5.338   0.168   3.328  0.00  0.00    -0.275 N 
ATOM      2  C   UNL     1      -5.488  -0.646   2.264  0.00  0.00    +0.250 C 
ATOM      3  O   UNL     1      -6.367  -1.486   2.260  0.00  0.00    -0.270 OA
ATOM      4  H   UNL     1      -4.636   0.838   3.331  0.00  0.00    +0.156 HD
ENDROOT
BRANCH   1   9
ATOM      5  C   UNL     1      -6.186   0.782   5.595  0.00  0.00    +0.069 A 
ATOM      6  C   UNL     1      -7.195   0.457   6.588  0.00  0.00    -0.023 A 
ATOM      7  C   UNL     1      -8.030  -0.550   6.253  0.00  0.00    -0.004 A 
ATOM      8  S   UNL     1      -7.498  -1.061   4.643  0.00  0.00    -0.077 S 
ATOM      9  C   UNL     1      -6.186   0.048   4.417  0.00  0.00    +0.085 A 
ATOM     10  C   UNL     1      -9.154  -1.104   7.073  0.00  0.00    +0.043 C 
ATOM     11  C   UNL     1      -8.988  -0.608   8.517  0.00  0.00    +0.005 C 
ATOM     12  C   UNL     1      -8.723   0.900   8.494  0.00  0.00    +0.005 C 
ATOM     13  C   UNL     1      -7.330   1.175   7.926  0.00  0.00    +0.037 C 
BRANCH   5  16
ATOM     14  C   UNL     1      -3.049   2.630   6.646  0.00  0.00    +0.128 C 
ATOM     15  N   UNL     1      -4.028   1.565   6.415  0.00  0.00    -0.314 N 
ATOM     16  C   UNL     1      -5.207   1.848   5.826  0.00  0.00    +0.246 C 
ATOM     17  O   UNL     1      -5.458   2.990   5.487  0.00  0.00    -0.270 OA
ATOM     18  H   UNL     1      -3.827   0.655   6.685  0.00  0.00    +0.149 HD
ENDBRANCH   5  16
ENDBRANCH   1   9
BRANCH   2  19
ATOM     19  C   UNL     1      -4.585  -0.518   1.103  0.00  0.00    +0.057 A 
ATOM     20  C   UNL     1      -3.570   0.442   1.107  0.00  0.00    +0.044 A 
ATOM     21  C   UNL     1      -2.733   0.560   0.018  0.00  0.00    +0.124 A 
ATOM     22  C   UNL     1      -2.889  -0.279  -1.074  0.00  0.00    +0.069 A 
ATOM     23  C   UNL     1      -3.889  -1.236  -1.083  0.00  0.00    +0.042 A 
ATOM     24  C   UNL     1      -4.738  -1.361  -0.001  0.00  0.00    +0.055 A 
ATOM     25 CL   UNL     1      -5.991  -2.562  -0.013  0.00  0.00    -0.083 Cl
ATOM     26 CL   UNL     1      -1.825  -0.128  -2.438  0.00  0.00    -0.081 Cl
BRANCH  21  27
ATOM     27  S   UNL     1      -1.456   1.774   0.019  0.00  0.00    +0.057 S 
ATOM     28  O   UNL     1      -1.536   2.446   1.268  0.00  0.00    -0.153 OA
ATOM     29  O   UNL     1      -1.548   2.460  -1.223  0.00  0.00    -0.153 OA
BRANCH  27  30
ATOM     30  N   UNL     1      -0.011   0.966   0.007  0.00  0.00    -0.203 NA
ATOM     31  H   UNL     1       0.002  -0.004   0.002  0.00  0.00    +0.144 HD
ATOM     32  H   UNL     1       0.822   1.462   0.002  0.00  0.00    +0.144 HD
ENDBRANCH  27  30
ENDBRANCH  21  27
ENDBRANCH   2  19
TORSDOF 5
