REMARK  Name = ZINC22718658
REMARK  12 active torsions:
REMARK  status: ('A' for Active; 'I' for Inactive)
REMARK    1  A    between atoms: C_1  and  C_2
REMARK    2  A    between atoms: C_2  and  C_4
REMARK    3  A    between atoms: C_2  and  N_31
REMARK    4  A    between atoms: C_7  and  S_16
REMARK    5  A    between atoms: N_8  and  C_9
REMARK    6  A    between atoms: S_16  and  C_17
REMARK    7  A    between atoms: C_17  and  C_18
REMARK    8  A    between atoms: N_20  and  C_21
REMARK    9  A    between atoms: C_26  and  O_27
REMARK   10  A    between atoms: O_27  and  C_28
REMARK   11  A    between atoms: N_31  and  C_32
REMARK   12  A    between atoms: N_31  and  C_33
REMARK                            x       y       z     vdW  Elec       q    Type
REMARK                         _______ _______ _______ _____ _____    ______ ____
ROOT
ATOM      1  C   UNL     1       1.200   1.747  -0.050  0.00  0.00    +0.125 A 
ATOM      2  N   UNL     1      -0.018   1.281  -0.040  0.00  0.00    -0.135 NA
ATOM      3  N   UNL     1       0.000  -0.004  -0.037  0.00  0.00    -0.122 NA
ATOM      4  C   UNL     1       1.241  -0.434  -0.045  0.00  0.00    +0.197 A 
ATOM      5  N   UNL     1       2.047   0.671  -0.054  0.00  0.00    -0.275 N 
ENDROOT
BRANCH   5   6
ATOM      6  C   UNL     1       3.450   0.697  -0.063  0.00  0.00    +0.050 A 
ATOM      7  C   UNL     1       4.143   1.226   1.017  0.00  0.00    +0.028 A 
ATOM      8  C   UNL     1       5.524   1.246   1.007  0.00  0.00    +0.022 A 
ATOM      9  C   UNL     1       6.216   0.749  -0.083  0.00  0.00    +0.041 A 
ATOM     10  C   UNL     1       5.527   0.226  -1.163  0.00  0.00    +0.022 A 
ATOM     11  C   UNL     1       4.147   0.199  -1.156  0.00  0.00    +0.028 A 
ATOM     12 CL   UNL     1       7.952   0.782  -0.096  0.00  0.00    -0.084 Cl
ENDBRANCH   5   6
BRANCH   1  14
ATOM     13  C   UNL     1       1.365   3.787  -1.450  0.00  0.00    -0.005 C 
ATOM     14  C   UNL     1       1.600   3.200  -0.057  0.00  0.00    -0.003 C 
BRANCH  14  15
ATOM     15  N   UNL     1       0.793   3.935   0.926  0.00  0.00    +0.382 N 
ATOM     16  C   UNL     1       1.237   5.331   1.033  0.00  0.00    -0.096 C 
ATOM     17  C   UNL     1      -0.636   3.860   0.596  0.00  0.00    -0.096 C 
ATOM     18  H   UNL     1       0.939   3.458   1.907  0.00  0.00    -0.082 HD
ENDBRANCH  14  15
ENDBRANCH   1  14
BRANCH   4  19
ATOM     19  S   UNL     1       1.767  -2.115  -0.044  0.00  0.00    -0.076 S 
BRANCH  19  20
ATOM     20  C   UNL     1       0.160  -2.948  -0.031  0.00  0.00    +0.173 C 
BRANCH  20  21
ATOM     21  C   UNL     1       0.367  -4.441  -0.029  0.00  0.00    +0.228 C 
ATOM     22  O   UNL     1       1.491  -4.897  -0.035  0.00  0.00    -0.275 OA
ATOM     23  N   UNL     1      -0.696  -5.269  -0.019  0.00  0.00    -0.282 N 
ATOM     24  H   UNL     1      -1.712  -4.858   0.079  0.00  0.00    +0.155 HD
BRANCH  23  25
ATOM     25  C   UNL     1      -0.508  -6.652  -0.134  0.00  0.00    +0.076 A 
ATOM     26  C   UNL     1       0.630  -7.150  -0.752  0.00  0.00    +0.027 A 
ATOM     27  C   UNL     1       0.816  -8.516  -0.860  0.00  0.00    +0.002 A 
ATOM     28  C   UNL     1      -0.134  -9.388  -0.361  0.00  0.00    +0.004 A 
ATOM     29  C   UNL     1      -1.273  -8.899   0.252  0.00  0.00    +0.048 A 
ATOM     30  C   UNL     1      -1.465  -7.531   0.368  0.00  0.00    +0.148 A 
BRANCH  30  31
ATOM     31  O   UNL     1      -2.584  -7.049   0.970  0.00  0.00    -0.432 OA
BRANCH  31  32
ATOM     32  C   UNL     1      -3.522  -8.009   1.460  0.00  0.00    +0.541 C 
ATOM     33  F   UNL     1      -3.977  -8.801   0.400  0.00  0.00    -0.166 F 
ATOM     34  F   UNL     1      -2.902  -8.821   2.416  0.00  0.00    -0.166 F 
ENDBRANCH  31  32
ENDBRANCH  30  31
ENDBRANCH  23  25
ENDBRANCH  20  21
ENDBRANCH  19  20
ENDBRANCH   4  19
TORSDOF 9
