REMARK  Name = ZINC29009544
REMARK  2 active torsions:
REMARK  status: ('A' for Active; 'I' for Inactive)
REMARK    1  A    between atoms: N_14  and  N_15
REMARK    2  A    between atoms: N_15  and  C_16
REMARK                            x       y       z     vdW  Elec       q    Type
REMARK                         _______ _______ _______ _____ _____    ______ ____
ROOT
ATOM      1  C   UNL     1      -0.404  -2.050  -0.730  0.00  0.00    +0.224 A 
ATOM      2  N   UNL     1      -0.561  -0.755  -0.520  0.00  0.00    -0.219 NA
ATOM      3  C   UNL     1       0.464   0.081  -0.477  0.00  0.00    +0.147 A 
ATOM      4  C   UNL     1       1.780  -0.426  -0.667  0.00  0.00    +0.052 A 
ATOM      5  C   UNL     1       3.050   0.300  -0.666  0.00  0.00    -0.025 A 
ATOM      6  C   UNL     1       4.169  -0.424  -0.871  0.00  0.00    -0.004 A 
ATOM      7  S   UNL     1       3.609  -2.095  -1.064  0.00  0.00    -0.073 S 
ATOM      8  C   UNL     1       1.867  -1.816  -0.880  0.00  0.00    +0.114 A 
ATOM      9  N   UNL     1       0.792  -2.579  -0.908  0.00  0.00    -0.228 NA
ATOM     10  C   UNL     1       5.580   0.079  -0.917  0.00  0.00    +0.043 C 
ATOM     11  C   UNL     1       5.546   1.607  -1.064  0.00  0.00    +0.005 C 
ATOM     12  C   UNL     1       4.556   2.176  -0.044  0.00  0.00    +0.005 C 
ATOM     13  C   UNL     1       3.127   1.809  -0.445  0.00  0.00    +0.037 C 
ATOM     14  N   UNL     1       0.258   1.431  -0.255  0.00  0.00    -0.250 N 
ATOM     15  H   UNL     1       1.007   2.163  -0.589  0.00  0.00    +0.171 HD
ENDROOT
BRANCH  14  16
ATOM     16  N   UNL     1      -0.904   1.864   0.396  0.00  0.00    -0.272 N 
ATOM     17  H   UNL     1      -1.653   1.131   0.730  0.00  0.00    +0.169 HD
BRANCH  16  18
ATOM     18  C   UNL     1      -1.105   3.179   0.612  0.00  0.00    +0.106 C 
ATOM     19  C   UNL     1      -2.194   3.600   1.359  0.00  0.00    +0.116 C 
ATOM     20  C   UNL     1      -2.536   5.029   1.482  0.00  0.00    +0.276 C 
ATOM     21  O   UNL     1      -1.870   5.885   0.931  0.00  0.00    -0.268 OA
ATOM     22  N   UNL     1      -3.614   5.355   2.228  0.00  0.00    -0.154 NA
ATOM     23  C   UNL     1      -4.347   4.411   2.836  0.00  0.00    +0.164 C 
ATOM     24  S   UNL     1      -5.697   4.907   3.764  0.00  0.00    -0.016 S 
ATOM     25  N   UNL     1      -4.082   3.110   2.757  0.00  0.00    -0.262 N 
ATOM     26  C   UNL     1      -3.062   2.642   2.057  0.00  0.00    +0.256 C 
ATOM     27  O   UNL     1      -2.821   1.316   1.991  0.00  0.00    -0.270 OA
ATOM     28  H   UNL     1      -4.721   2.386   3.283  0.00  0.00    +0.157 HD
ENDBRANCH  16  18
ENDBRANCH  14  16
TORSDOF 2
