REMARK  Name = ZINC45411674
REMARK  9 active torsions:
REMARK  status: ('A' for Active; 'I' for Inactive)
REMARK    1  A    between atoms: C_1  and  C_2
REMARK    2  A    between atoms: C_2  and  C_4
REMARK    3  A    between atoms: C_2  and  N_14
REMARK    4  A    between atoms: C_15  and  C_17
REMARK    5  A    between atoms: C_17  and  S_18
REMARK    6  A    between atoms: S_18  and  C_19
REMARK    7  A    between atoms: C_22  and  C_30
REMARK    8  A    between atoms: N_23  and  C_24
REMARK    9  A    between atoms: C_30  and  N_31
REMARK                            x       y       z     vdW  Elec       q    Type
REMARK                         _______ _______ _______ _____ _____    ______ ____
ROOT
ATOM      1  C   UNL     1      -5.739  -1.846  -2.652  0.00  0.00    +0.197 A 
ATOM      2  N   UNL     1      -6.331  -2.173  -1.527  0.00  0.00    -0.122 NA
ATOM      3  N   UNL     1      -7.523  -2.590  -1.765  0.00  0.00    -0.135 NA
ATOM      4  C   UNL     1      -7.764  -2.555  -3.045  0.00  0.00    +0.122 A 
ATOM      5  N   UNL     1      -6.637  -2.074  -3.658  0.00  0.00    -0.276 N 
ENDROOT
BRANCH   5   6
ATOM      6  C   UNL     1      -6.444  -1.863  -5.031  0.00  0.00    +0.050 A 
ATOM      7  C   UNL     1      -7.191  -0.901  -5.698  0.00  0.00    +0.026 A 
ATOM      8  C   UNL     1      -6.998  -0.694  -7.050  0.00  0.00    +0.002 A 
ATOM      9  C   UNL     1      -6.064  -1.445  -7.739  0.00  0.00    +0.000 A 
ATOM     10  C   UNL     1      -5.319  -2.404  -7.078  0.00  0.00    +0.002 A 
ATOM     11  C   UNL     1      -5.503  -2.611  -5.725  0.00  0.00    +0.026 A 
ENDBRANCH   5   6
BRANCH   1  12
ATOM     12  S   UNL     1      -4.100  -1.225  -2.832  0.00  0.00    -0.076 S 
BRANCH  12  13
ATOM     13  C   UNL     1      -3.465  -1.164  -1.134  0.00  0.00    +0.173 C 
BRANCH  13  15
ATOM     14  N   UNL     1      -1.372  -0.511   0.012  0.00  0.00    -0.308 N 
ATOM     15  C   UNL     1      -2.051  -0.643  -1.145  0.00  0.00    +0.224 C 
ATOM     16  O   UNL     1      -1.524  -0.341  -2.194  0.00  0.00    -0.275 OA
ATOM     17  H   UNL     1      -1.794  -0.752   0.852  0.00  0.00    +0.149 HD
BRANCH  14  19
ATOM     18  C   UNL     1      -0.019   1.526   0.010  0.00  0.00    +0.033 C 
ATOM     19  C   UNL     1       0.002  -0.004   0.002  0.00  0.00    +0.100 C 
BRANCH  19  20
ATOM     20  C   UNL     1       0.731  -0.503   1.223  0.00  0.00    -0.027 A 
ATOM     21  C   UNL     1       0.083  -0.559   2.443  0.00  0.00    +0.006 A 
ATOM     22  C   UNL     1       0.758  -1.015   3.557  0.00  0.00    +0.004 A 
ATOM     23  C   UNL     1       2.083  -1.419   3.462  0.00  0.00    -0.044 A 
ATOM     24  C   UNL     1       2.727  -1.368   2.247  0.00  0.00    -0.044 A 
ATOM     25  C   UNL     1       2.045  -0.911   1.126  0.00  0.00    +0.009 A 
ATOM     26  C   UNL     1       4.157  -1.805   2.067  0.00  0.00    +0.035 C 
ATOM     27  C   UNL     1       4.873  -1.866   3.415  0.00  0.00    +0.005 C 
ATOM     28  C   UNL     1       4.019  -2.696   4.380  0.00  0.00    +0.005 C 
ATOM     29  C   UNL     1       2.762  -1.898   4.719  0.00  0.00    +0.035 C 
ENDBRANCH  19  20
ENDBRANCH  14  19
ENDBRANCH  13  15
ENDBRANCH  12  13
ENDBRANCH   1  12
BRANCH   4  30
ATOM     30  C   UNL     1      -9.046  -2.963  -3.724  0.00  0.00    -0.001 C 
BRANCH  30  31
ATOM     31  N   UNL     1      -9.940  -1.802  -3.821  0.00  0.00    +0.384 N 
ATOM     32  C   UNL     1     -10.325  -1.370  -2.472  0.00  0.00    -0.078 C 
ATOM     33  C   UNL     1     -11.191  -0.111  -2.563  0.00  0.00    -0.019 C 
ATOM     34  C   UNL     1     -12.448  -0.421  -3.381  0.00  0.00    -0.004 C 
ATOM     35  C   UNL     1     -12.033  -0.942  -4.760  0.00  0.00    -0.019 C 
ATOM     36  C   UNL     1     -11.136  -2.169  -4.587  0.00  0.00    -0.078 C 
ATOM     37  H   UNL     1      -9.460  -1.047  -4.289  0.00  0.00    -0.081 HD
ENDBRANCH  30  31
ENDBRANCH   4  30
TORSDOF 8
