REMARK  Name = ZINC22015625
REMARK  11 active torsions:
REMARK  status: ('A' for Active; 'I' for Inactive)
REMARK    1  A    between atoms: C_1  and  C_2
REMARK    2  A    between atoms: N_7  and  S_9
REMARK    3  A    between atoms: S_9  and  C_12
REMARK    4  A    between atoms: C_15  and  N_21
REMARK    5  A    between atoms: C_16  and  N_18
REMARK    6  A    between atoms: N_24  and  C_27
REMARK    7  A    between atoms: C_27  and  C_28
REMARK    8  A    between atoms: N_30  and  C_31
REMARK    9  A    between atoms: C_31  and  C_32
REMARK   10  A    between atoms: C_32  and  C_33
REMARK   11  A    between atoms: C_32  and  C_34
REMARK                            x       y       z     vdW  Elec       q    Type
REMARK                         _______ _______ _______ _____ _____    ______ ____
ROOT
ATOM      1  C   UNL     1       2.445   0.160   0.143  0.00  0.00    +0.108 A 
ATOM      2  C   UNL     1       1.278  -0.546  -0.087  0.00  0.00    +0.030 A 
ATOM      3  C   UNL     1       0.060   0.103  -0.059  0.00  0.00    +0.027 A 
ATOM      4  C   UNL     1       0.006   1.467   0.202  0.00  0.00    +0.060 A 
ATOM      5  C   UNL     1       1.180   2.173   0.433  0.00  0.00    +0.149 A 
ATOM      6  C   UNL     1       2.396   1.517   0.403  0.00  0.00    +0.063 A 
ENDROOT
BRANCH   4   7
ATOM      7  N   UNL     1      -1.224   2.127   0.225  0.00  0.00    -0.332 N 
ATOM      8  C   UNL     1      -2.073   1.621   1.313  0.00  0.00    +0.086 C 
ATOM      9  C   UNL     1      -3.376   2.423   1.354  0.00  0.00    -0.059 C 
ATOM     10  N   UNL     1      -4.060   2.308   0.059  0.00  0.00    +0.387 N 
ATOM     11  C   UNL     1      -3.211   2.814  -1.029  0.00  0.00    -0.059 C 
ATOM     12  C   UNL     1      -1.908   2.013  -1.070  0.00  0.00    +0.086 C 
ATOM     13  H   UNL     1      -4.254   1.242  -0.130  0.00  0.00    -0.081 HD
BRANCH  10  14
ATOM     14  C   UNL     1      -5.354   3.003   0.084  0.00  0.00    +0.019 C 
BRANCH  14  15
ATOM     15  C   UNL     1      -6.133   2.659  -1.160  0.00  0.00    +0.196 C 
ATOM     16  O   UNL     1      -5.709   1.822  -1.929  0.00  0.00    -0.278 OA
ATOM     17  N   UNL     1      -7.301   3.280  -1.417  0.00  0.00    -0.317 N 
ATOM     18  H   UNL     1      -7.686   4.038  -0.719  0.00  0.00    +0.149 HD
BRANCH  17  19
ATOM     19  C   UNL     1      -8.058   2.945  -2.626  0.00  0.00    +0.107 C 
BRANCH  19  20
ATOM     20  C   UNL     1      -9.335   3.787  -2.677  0.00  0.00    -0.000 C 
ATOM     21  C   UNL     1     -10.063   3.529  -3.998  0.00  0.00    +0.009 C 
ATOM     22  C   UNL     1     -10.246   3.404  -1.510  0.00  0.00    +0.009 C 
ENDBRANCH  19  20
ENDBRANCH  17  19
ENDBRANCH  14  15
ENDBRANCH  10  14
ENDBRANCH   4   7
BRANCH   1  23
ATOM     23  S   UNL     1       3.998  -0.672   0.106  0.00  0.00    +0.061 S 
ATOM     24  O   UNL     1       4.893   0.104   0.891  0.00  0.00    -0.153 OA
ATOM     25  O   UNL     1       3.732  -2.040   0.382  0.00  0.00    -0.153 OA
BRANCH  23  31
ATOM     26  C   UNL     1       7.501   1.098  -3.112  0.00  0.00    +0.009 C 
ATOM     27  C   UNL     1       6.675  -0.046  -2.520  0.00  0.00    +0.002 C 
ATOM     28  C   UNL     1       6.308  -1.036  -3.627  0.00  0.00    +0.006 C 
ATOM     29  C   UNL     1       5.510  -2.198  -3.031  0.00  0.00    +0.017 C 
ATOM     30  C   UNL     1       4.220  -1.663  -2.414  0.00  0.00    +0.109 C 
ATOM     31  N   UNL     1       4.553  -0.603  -1.452  0.00  0.00    -0.176 NA
ATOM     32  C   UNL     1       5.393   0.517  -1.899  0.00  0.00    +0.112 C 
ENDBRANCH  23  31
ENDBRANCH   1  23
BRANCH   5  33
ATOM     33  N   UNL     1       1.128   3.626   0.711  0.00  0.00    +0.058 N 
ATOM     34  O   UNL     1       2.158   4.244   0.913  0.00  0.00    -0.126 OA
ATOM     35  O   UNL     1       0.056   4.203   0.736  0.00  0.00    -0.126 OA
ENDBRANCH   5  33
TORSDOF 8
