REMARK  Name = ZINC64670834
REMARK  14 active torsions:
REMARK  status: ('A' for Active; 'I' for Inactive)
REMARK    1  A    between atoms: C_1  and  C_2
REMARK    2  A    between atoms: C_3  and  C_31
REMARK    3  A    between atoms: C_5  and  N_11
REMARK    4  A    between atoms: C_7  and  C_9
REMARK    5  A    between atoms: C_12  and  C_14
REMARK    6  A    between atoms: C_14  and  S_15
REMARK    7  A    between atoms: S_15  and  C_16
REMARK    8  A    between atoms: C_19  and  C_30
REMARK    9  A    between atoms: C_20  and  C_22
REMARK   10  A    between atoms: C_22  and  C_23
REMARK   11  A    between atoms: C_26  and  O_29
REMARK   12  A    between atoms: C_31  and  C_32
REMARK   13  A    between atoms: C_32  and  S_33
REMARK   14  A    between atoms: S_33  and  C_34
REMARK                            x       y       z     vdW  Elec       q    Type
REMARK                         _______ _______ _______ _____ _____    ______ ____
ROOT
ATOM      1  S   UNL     1      -6.205  -1.377  -5.437  0.00  0.00    -0.080 S 
ENDROOT
BRANCH   1   2
ATOM      2  C   UNL     1      -7.092  -2.895  -5.552  0.00  0.00    +0.145 A 
ATOM      3  H   UNL     1      -9.035  -2.304  -6.040  0.00  0.00    +0.168 HD
ATOM      4  N   UNL     1      -6.592  -4.093  -5.357  0.00  0.00    -0.338 N 
ATOM      5  C   UNL     1      -7.558  -5.010  -5.527  0.00  0.00    +0.034 A 
ATOM      6  C   UNL     1      -8.698  -4.371  -5.839  0.00  0.00    +0.041 A 
ATOM      7  N   UNL     1      -8.413  -3.024  -5.852  0.00  0.00    -0.338 N 
ATOM      8  C   UNL     1      -7.392  -6.502  -5.393  0.00  0.00    +0.065 C 
ATOM      9  H   UNL     1      -5.670  -4.285  -5.126  0.00  0.00    +0.167 HD
BRANCH   6  10
ATOM     10  C   UNL     1     -10.036  -5.007  -6.117  0.00  0.00    +0.090 C 
BRANCH  10  11
ATOM     11  C   UNL     1     -10.759  -5.244  -4.816  0.00  0.00    -0.041 A 
ATOM     12  C   UNL     1     -10.587  -6.436  -4.138  0.00  0.00    +0.007 A 
ATOM     13  C   UNL     1     -11.249  -6.656  -2.946  0.00  0.00    +0.045 A 
ATOM     14  C   UNL     1     -12.088  -5.679  -2.429  0.00  0.00    +0.117 A 
ATOM     15  C   UNL     1     -12.259  -4.484  -3.111  0.00  0.00    +0.045 A 
ATOM     16  C   UNL     1     -11.590  -4.266  -4.300  0.00  0.00    +0.007 A 
BRANCH  14  17
ATOM     17  O   UNL     1     -12.741  -5.893  -1.256  0.00  0.00    -0.507 OA
ATOM     18  H   UNL     1     -12.249  -5.606  -0.474  0.00  0.00    +0.292 HD
ENDBRANCH  14  17
ENDBRANCH  10  11
ENDBRANCH   6  10
ENDBRANCH   1   2
BRANCH   1  19
ATOM     19  C   UNL     1      -5.010  -1.666  -4.103  0.00  0.00    +0.173 C 
BRANCH  19  21
ATOM     20  N   UNL     1      -3.215  -0.410  -2.954  0.00  0.00    -0.292 N 
ATOM     21  C   UNL     1      -4.175  -0.428  -3.899  0.00  0.00    +0.225 C 
ATOM     22  O   UNL     1      -4.367   0.553  -4.587  0.00  0.00    -0.275 OA
ATOM     23  H   UNL     1      -3.062  -1.195  -2.404  0.00  0.00    +0.151 HD
BRANCH  20  28
ATOM     24  C   UNL     1      -0.013   1.086   0.008  0.00  0.00    +0.015 C 
ATOM     25  C   UNL     1      -0.753   1.593  -1.232  0.00  0.00    +0.051 C 
ATOM     26  C   UNL     1      -0.148   1.007  -2.488  0.00  0.00    +0.021 C 
ATOM     27  N   UNL     1      -1.050   0.587  -3.282  0.00  0.00    -0.269 NA
ATOM     28  C   UNL     1      -2.404   0.793  -2.755  0.00  0.00    +0.208 C 
ATOM     29  C   UNL     1      -2.210   1.071  -1.246  0.00  0.00    +0.142 C 
BRANCH  29  30
ATOM     30  C   UNL     1      -2.340  -0.166  -0.458  0.00  0.00    +0.070 C 
ATOM     31  N   UNL     1      -2.440  -1.120   0.151  0.00  0.00    -0.196 NA
ENDBRANCH  29  30
BRANCH  26  32
ATOM     32  C   UNL     1       1.332   0.931  -2.764  0.00  0.00    +0.061 C 
BRANCH  32  33
ATOM     33  C   UNL     1       1.563   0.278  -4.129  0.00  0.00    +0.074 C 
BRANCH  33  34
ATOM     34  S   UNL     1       3.344   0.186  -4.462  0.00  0.00    -0.164 S 
ATOM     35  C   UNL     1       3.445  -0.601  -6.093  0.00  0.00    +0.084 C 
ENDBRANCH  33  34
ENDBRANCH  32  33
ENDBRANCH  26  32
ENDBRANCH  20  28
ENDBRANCH  19  21
ENDBRANCH   1  19
TORSDOF 11
