REMARK  Name = ZINC63655347
REMARK  18 active torsions:
REMARK  status: ('A' for Active; 'I' for Inactive)
REMARK    1  A    between atoms: C_1  and  C_2
REMARK    2  A    between atoms: C_2  and  N_3
REMARK    3  A    between atoms: N_3  and  C_4
REMARK    4  A    between atoms: C_4  and  N_6
REMARK    5  A    between atoms: N_6  and  C_7
REMARK    6  A    between atoms: N_6  and  C_22
REMARK    7  A    between atoms: C_7  and  C_8
REMARK    8  A    between atoms: C_8  and  C_9
REMARK    9  A    between atoms: C_12  and  O_20
REMARK   10  A    between atoms: C_17  and  C_19
REMARK   11  A    between atoms: O_20  and  C_21
REMARK   12  A    between atoms: C_22  and  C_23
REMARK   13  A    between atoms: C_25  and  O_33
REMARK   14  A    between atoms: C_26  and  O_31
REMARK   15  A    between atoms: C_27  and  O_29
REMARK   16  A    between atoms: O_29  and  C_30
REMARK   17  A    between atoms: O_31  and  C_32
REMARK   18  A    between atoms: O_33  and  C_34
REMARK                            x       y       z     vdW  Elec       q    Type
REMARK                         _______ _______ _______ _____ _____    ______ ____
ROOT
ATOM      1  N   UNL     1       1.458  -2.233  -2.534  0.00  0.00    -0.308 N 
ENDROOT
BRANCH   1   2
ATOM      2  C   UNL     1       0.827  -1.799  -1.425  0.00  0.00    +0.133 C 
ATOM      3  S   UNL     1       0.202  -2.926  -0.298  0.00  0.00    -0.019 S 
BRANCH   2   4
ATOM      4  N   UNL     1       0.688  -0.476  -1.203  0.00  0.00    -0.327 N 
ATOM      5  H   UNL     1       1.042   0.162  -1.842  0.00  0.00    +0.148 HD
BRANCH   4   7
ATOM      6  C   UNL     1      -0.019   1.526   0.010  0.00  0.00    +0.024 C 
ATOM      7  C   UNL     1       0.002  -0.004   0.002  0.00  0.00    +0.100 C 
ENDBRANCH   4   7
ENDBRANCH   2   4
ENDBRANCH   1   2
BRANCH   1   8
ATOM      8  C   UNL     1       1.609  -3.670  -2.775  0.00  0.00    +0.111 C 
BRANCH   8   9
ATOM      9  C   UNL     1       0.406  -4.184  -3.568  0.00  0.00    +0.052 C 
BRANCH   9  10
ATOM     10  C   UNL     1       0.561  -5.662  -3.816  0.00  0.00    -0.037 C 
ATOM     11  C   UNL     1       1.583  -6.451  -3.413  0.00  0.00    +0.003 A 
ATOM     12  C   UNL     1       2.809  -6.181  -2.654  0.00  0.00    +0.055 A 
ATOM     13  C   UNL     1       3.670  -7.195  -2.395  0.00  0.00    +0.121 A 
ATOM     14  C   UNL     1       3.432  -8.511  -2.830  0.00  0.00    +0.047 A 
ATOM     15  C   UNL     1       2.334  -8.857  -3.535  0.00  0.00    +0.029 A 
ATOM     16  C   UNL     1       1.334  -7.838  -3.871  0.00  0.00    +0.043 A 
ATOM     17  N   UNL     1       0.204  -7.903  -4.530  0.00  0.00    -0.378 N 
ATOM     18  C   UNL     1      -0.398  -6.565  -4.560  0.00  0.00    +0.103 C 
ATOM     19  C   UNL     1      -1.759  -6.579  -3.861  0.00  0.00    +0.035 C 
ATOM     20  H   UNL     1      -0.174  -8.703  -4.927  0.00  0.00    +0.160 HD
BRANCH  13  21
ATOM     21  O   UNL     1       4.802  -6.931  -1.691  0.00  0.00    -0.495 OA
ATOM     22  C   UNL     1       5.681  -8.029  -1.441  0.00  0.00    +0.277 C 
ENDBRANCH  13  21
ENDBRANCH   9  10
ENDBRANCH   8   9
ENDBRANCH   1   8
BRANCH   1  23
ATOM     23  C   UNL     1       1.992  -1.269  -3.498  0.00  0.00    +0.142 C 
BRANCH  23  24
ATOM     24  C   UNL     1       3.413  -0.925  -3.130  0.00  0.00    -0.023 A 
ATOM     25  C   UNL     1       3.667   0.131  -2.274  0.00  0.00    +0.054 A 
ATOM     26  C   UNL     1       4.972   0.450  -1.934  0.00  0.00    +0.165 A 
ATOM     27  C   UNL     1       6.026  -0.292  -2.453  0.00  0.00    +0.204 A 
ATOM     28  C   UNL     1       5.766  -1.353  -3.313  0.00  0.00    +0.165 A 
ATOM     29  C   UNL     1       4.457  -1.669  -3.645  0.00  0.00    +0.054 A 
BRANCH  28  30
ATOM     30  O   UNL     1       6.794  -2.082  -3.824  0.00  0.00    -0.491 OA
ATOM     31  C   UNL     1       6.452  -3.158  -4.701  0.00  0.00    +0.277 C 
ENDBRANCH  28  30
BRANCH  27  32
ATOM     32  O   UNL     1       7.309   0.019  -2.122  0.00  0.00    -0.488 OA
ATOM     33  C   UNL     1       7.854  -0.624  -0.968  0.00  0.00    +0.277 C 
ENDBRANCH  27  32
BRANCH  26  34
ATOM     34  O   UNL     1       5.221   1.489  -1.092  0.00  0.00    -0.491 OA
ATOM     35  C   UNL     1       4.090   2.208  -0.597  0.00  0.00    +0.277 C 
ENDBRANCH  26  34
ENDBRANCH  23  24
ENDBRANCH   1  23
TORSDOF 12
