REMARK  Name = ZINC36051938
REMARK  12 active torsions:
REMARK  status: ('A' for Active; 'I' for Inactive)
REMARK    1  A    between atoms: C_1  and  O_2
REMARK    2  A    between atoms: O_2  and  C_3
REMARK    3  A    between atoms: C_6  and  C_9
REMARK    4  A    between atoms: N_11  and  C_33
REMARK    5  A    between atoms: N_14  and  C_15
REMARK    6  A    between atoms: C_15  and  C_17
REMARK    7  A    between atoms: C_17  and  N_18
REMARK    8  A    between atoms: N_18  and  C_19
REMARK    9  A    between atoms: C_19  and  C_20
REMARK   10  A    between atoms: C_23  and  C_25
REMARK   11  A    between atoms: C_29  and  O_31
REMARK   12  A    between atoms: O_31  and  C_32
REMARK                            x       y       z     vdW  Elec       q    Type
REMARK                         _______ _______ _______ _____ _____    ______ ____
ROOT
ATOM      1  C   UNL     1       4.406  -4.305  -5.513  0.00  0.00    +0.066 A 
ATOM      2  C   UNL     1       4.594  -5.474  -6.150  0.00  0.00    +0.120 A 
ATOM      3  N   UNL     1       4.952  -5.197  -7.455  0.00  0.00    -0.287 N 
ATOM      4  C   UNL     1       4.982  -3.846  -7.608  0.00  0.00    +0.205 A 
ATOM      5  N   UNL     1       4.642  -3.280  -6.421  0.00  0.00    -0.326 N 
ATOM      6  N   UNL     1       5.287  -3.192  -8.729  0.00  0.00    -0.145 NA
ATOM      7  H   UNL     1       4.578  -2.330  -6.239  0.00  0.00    +0.169 HD
ENDROOT
BRANCH   3   8
ATOM      8  C   UNL     1       5.237  -6.144  -8.447  0.00  0.00    +0.049 A 
ATOM      9  C   UNL     1       5.593  -5.728  -9.724  0.00  0.00    +0.029 A 
ATOM     10  C   UNL     1       5.873  -6.663 -10.701  0.00  0.00    +0.040 A 
ATOM     11  C   UNL     1       5.799  -8.014 -10.409  0.00  0.00    +0.124 A 
ATOM     12  C   UNL     1       5.444  -8.431  -9.137  0.00  0.00    +0.040 A 
ATOM     13  C   UNL     1       5.169  -7.500  -8.155  0.00  0.00    +0.029 A 
ATOM     14  F   UNL     1       6.074  -8.927 -11.366  0.00  0.00    -0.205 F 
ENDBRANCH   3   8
BRANCH   1  18
ATOM     15  C   UNL     1       3.273  -3.828  -1.444  0.00  0.00    +0.120 A 
ATOM     16  C   UNL     1       3.478  -2.710  -2.241  0.00  0.00    +0.046 A 
ATOM     17  C   UNL     1       3.846  -2.860  -3.562  0.00  0.00    +0.013 A 
ATOM     18  C   UNL     1       4.012  -4.139  -4.096  0.00  0.00    +0.000 A 
ATOM     19  C   UNL     1       3.805  -5.260  -3.292  0.00  0.00    +0.013 A 
ATOM     20  C   UNL     1       3.443  -5.101  -1.971  0.00  0.00    +0.046 A 
BRANCH  15  22
ATOM     21  C   UNL     1       2.753  -2.337   0.334  0.00  0.00    +0.277 C 
ATOM     22  O   UNL     1       2.911  -3.675  -0.143  0.00  0.00    -0.495 OA
ENDBRANCH  15  22
ENDBRANCH   1  18
BRANCH   6  23
ATOM     23  C   UNL     1       5.279  -1.865  -8.746  0.00  0.00    +0.256 C 
ATOM     24  O   UNL     1       4.993  -1.245  -7.739  0.00  0.00    -0.272 OA
BRANCH  23  25
ATOM     25  C   UNL     1       5.623  -1.125 -10.013  0.00  0.00    +0.206 C 
BRANCH  25  26
ATOM     26  N   UNL     1       5.543   0.318  -9.774  0.00  0.00    -0.288 N 
ATOM     27  C   UNL     1       4.425   0.995 -10.104  0.00  0.00    +0.247 C 
ATOM     28  O   UNL     1       4.384   2.203  -9.971  0.00  0.00    -0.270 OA
BRANCH  27  29
ATOM     29  C   UNL     1       3.249   0.269 -10.629  0.00  0.00    +0.040 A 
ATOM     30  C   UNL     1       2.764  -0.857  -9.960  0.00  0.00    +0.013 A 
ATOM     31  C   UNL     1       1.667  -1.532 -10.453  0.00  0.00    +0.004 A 
ATOM     32  C   UNL     1       1.044  -1.098 -11.609  0.00  0.00    +0.045 A 
ATOM     33  C   UNL     1       1.519   0.020 -12.281  0.00  0.00    +0.121 A 
ATOM     34  C   UNL     1       2.616   0.709 -11.792  0.00  0.00    +0.058 A 
BRANCH  33  35
ATOM     35  O   UNL     1       0.903   0.441 -13.417  0.00  0.00    -0.495 OA
ATOM     36  C   UNL     1      -0.226  -0.313 -13.861  0.00  0.00    +0.277 C 
ENDBRANCH  33  35
ENDBRANCH  27  29
BRANCH  26  37
ATOM     37  C   UNL     1       6.677   1.025  -9.175  0.00  0.00    +0.112 C 
BRANCH  37  38
ATOM     38  C   UNL     1       7.541   1.633 -10.281  0.00  0.00    +0.006 C 
ATOM     39  C   UNL     1       8.975   1.118 -10.422  0.00  0.00    +0.005 C 
ATOM     40  C   UNL     1       8.716   2.516  -9.855  0.00  0.00    +0.005 C 
ENDBRANCH  37  38
ENDBRANCH  26  37
ENDBRANCH  25  26
ENDBRANCH  23  25
ENDBRANCH   6  23
TORSDOF 10
