REMARK  Name = ZINC08897776
REMARK  7 active torsions:
REMARK  status: ('A' for Active; 'I' for Inactive)
REMARK    1  A    between atoms: C_4  and  N_32
REMARK    2  A    between atoms: C_5  and  C_7
REMARK    3  A    between atoms: N_9  and  C_10
REMARK    4  A    between atoms: C_10  and  N_12
REMARK    5  A    between atoms: N_12  and  C_13
REMARK    6  A    between atoms: C_16  and  N_19
REMARK    7  A    between atoms: C_25  and  C_27
REMARK                            x       y       z     vdW  Elec       q    Type
REMARK                         _______ _______ _______ _____ _____    ______ ____
ROOT
ATOM      1  C   UNL     1      -0.162  -0.133   2.158  0.00  0.00    +0.033 A 
ATOM      2  C   UNL     1      -0.048  -1.499   1.937  0.00  0.00    +0.025 A 
ATOM      3  C   UNL     1      -1.181  -2.267   1.760  0.00  0.00    +0.025 A 
ATOM      4  C   UNL     1      -2.436  -1.672   1.794  0.00  0.00    +0.030 A 
ATOM      5  C   UNL     1      -2.549  -0.305   2.010  0.00  0.00    +0.025 A 
ATOM      6  C   UNL     1      -1.416   0.462   2.191  0.00  0.00    +0.025 A 
ENDROOT
BRANCH   4   7
ATOM      7  N   UNL     1      -3.584  -2.449   1.610  0.00  0.00    -0.327 N 
ATOM      8  C   UNL     1      -4.512  -2.292   2.739  0.00  0.00    +0.124 C 
ATOM      9  C   UNL     1      -5.827  -3.011   2.418  0.00  0.00    +0.127 C 
ATOM     10  N   UNL     1      -5.522  -4.403   2.053  0.00  0.00    -0.294 N 
ATOM     11  C   UNL     1      -4.499  -4.644   1.024  0.00  0.00    +0.127 C 
ATOM     12  C   UNL     1      -3.236  -3.861   1.399  0.00  0.00    +0.124 C 
ATOM     13  C   UNL     1      -6.162  -5.430   2.646  0.00  0.00    +0.253 C 
ATOM     14  O   UNL     1      -5.827  -6.575   2.407  0.00  0.00    -0.269 OA
BRANCH  13  15
ATOM     15  C   UNL     1      -7.263  -5.167   3.577  0.00  0.00    +0.074 A 
ATOM     16  C   UNL     1      -7.783  -5.986   4.568  0.00  0.00    +0.021 A 
ATOM     17  C   UNL     1      -8.826  -5.486   5.308  0.00  0.00    +0.008 A 
ATOM     18  C   UNL     1      -9.297  -4.241   5.034  0.00  0.00    +0.046 A 
ATOM     19  S   UNL     1      -8.288  -3.715   3.726  0.00  0.00    -0.092 S 
ENDBRANCH  13  15
ENDBRANCH   4   7
BRANCH   1  20
ATOM     20  N   UNL     1       0.989   0.645   2.343  0.00  0.00    -0.297 N 
ATOM     21  H   UNL     1       1.745   0.542   1.744  0.00  0.00    +0.154 HD
BRANCH  20  22
ATOM     22  C   UNL     1       1.044   1.536   3.353  0.00  0.00    +0.141 C 
ATOM     23  S   UNL     1      -0.334   1.810   4.330  0.00  0.00    -0.018 S 
BRANCH  22  26
ATOM     24  C   UNL     1       2.244   3.095   4.609  0.00  0.00    +0.252 C 
ATOM     25  O   UNL     1       1.266   3.289   5.303  0.00  0.00    -0.270 OA
ATOM     26  N   UNL     1       2.187   2.208   3.596  0.00  0.00    -0.264 N 
ATOM     27  H   UNL     1       2.968   2.054   3.042  0.00  0.00    +0.157 HD
BRANCH  24  32
ATOM     28  C   UNL     1       5.750   4.396   4.263  0.00  0.00    +0.001 A 
ATOM     29  C   UNL     1       5.845   5.212   5.376  0.00  0.00    +0.002 A 
ATOM     30  C   UNL     1       4.773   5.342   6.241  0.00  0.00    +0.033 A 
ATOM     31  C   UNL     1       3.600   4.657   5.997  0.00  0.00    +0.138 A 
ATOM     32  C   UNL     1       3.497   3.832   4.876  0.00  0.00    +0.067 A 
ATOM     33  C   UNL     1       4.585   3.702   4.010  0.00  0.00    +0.015 A 
BRANCH  31  34
ATOM     34  N   UNL     1       2.454   4.796   6.923  0.00  0.00    +0.057 N 
ATOM     35  O   UNL     1       2.035   5.903   7.213  0.00  0.00    -0.126 OA
ATOM     36  O   UNL     1       1.929   3.804   7.396  0.00  0.00    -0.126 OA
ENDBRANCH  31  34
ENDBRANCH  24  32
ENDBRANCH  22  26
ENDBRANCH  20  22
ENDBRANCH   1  20
TORSDOF 7
