REMARK  Name = ZINC09483015
REMARK  14 active torsions:
REMARK  status: ('A' for Active; 'I' for Inactive)
REMARK    1  A    between atoms: C_1  and  C_2
REMARK    2  A    between atoms: C_2  and  C_3
REMARK    3  A    between atoms: C_3  and  C_4
REMARK    4  A    between atoms: C_4  and  N_5
REMARK    5  A    between atoms: C_6  and  C_27
REMARK    6  A    between atoms: C_9  and  S_10
REMARK    7  A    between atoms: S_10  and  C_11
REMARK    8  A    between atoms: C_11  and  C_12
REMARK    9  A    between atoms: N_14  and  C_15
REMARK   10  A    between atoms: N_14  and  C_16
REMARK   11  A    between atoms: C_16  and  C_17
REMARK   12  A    between atoms: N_19  and  C_20
REMARK   13  A    between atoms: C_30  and  O_33
REMARK   14  A    between atoms: O_33  and  C_34
REMARK                            x       y       z     vdW  Elec       q    Type
REMARK                         _______ _______ _______ _____ _____    ______ ____
ROOT
ATOM      1  S   UNL     1      -1.404   5.522   1.000  0.00  0.00    -0.077 S 
ENDROOT
BRANCH   1   6
ATOM      2  N   UNL     1      -1.275   2.728   1.050  0.00  0.00    -0.302 N 
ATOM      3  C   UNL     1      -0.299   1.777   0.859  0.00  0.00    +0.165 A 
ATOM      4  N   UNL     1       0.814   2.417   0.583  0.00  0.00    -0.128 NA
ATOM      5  N   UNL     1       0.605   3.685   0.593  0.00  0.00    -0.122 NA
ATOM      6  C   UNL     1      -0.654   3.933   0.876  0.00  0.00    +0.192 A 
BRANCH   3   7
ATOM      7  C   UNL     1      -0.472   0.312   0.942  0.00  0.00    +0.020 A 
ATOM      8  C   UNL     1       0.476  -0.539   0.370  0.00  0.00    +0.015 A 
ATOM      9  C   UNL     1       0.314  -1.905   0.456  0.00  0.00    +0.046 A 
ATOM     10  C   UNL     1      -0.796  -2.436   1.099  0.00  0.00    +0.120 A 
ATOM     11  C   UNL     1      -1.745  -1.593   1.663  0.00  0.00    +0.046 A 
ATOM     12  C   UNL     1      -1.587  -0.226   1.588  0.00  0.00    +0.015 A 
BRANCH  10  13
ATOM     13  O   UNL     1      -0.955  -3.783   1.175  0.00  0.00    -0.495 OA
ATOM     14  C   UNL     1       0.058  -4.591   0.573  0.00  0.00    +0.277 C 
ENDBRANCH  10  13
ENDBRANCH   3   7
BRANCH   2  15
ATOM     15  C   UNL     1      -2.684   2.497   1.375  0.00  0.00    +0.126 C 
BRANCH  15  16
ATOM     16  C   UNL     1      -2.861   2.475   2.895  0.00  0.00    +0.021 C 
BRANCH  16  18
ATOM     17  C   UNL     1      -4.509   2.212   4.754  0.00  0.00    +0.004 C 
ATOM     18  C   UNL     1      -4.333   2.234   3.234  0.00  0.00    -0.002 C 
ENDBRANCH  16  18
ENDBRANCH  15  16
ENDBRANCH   2  15
ENDBRANCH   1   6
BRANCH   1  19
ATOM     19  C   UNL     1       0.024   6.573   0.639  0.00  0.00    +0.173 C 
BRANCH  19  20
ATOM     20  C   UNL     1      -0.391   8.021   0.691  0.00  0.00    +0.226 C 
ATOM     21  O   UNL     1      -1.540   8.313   0.946  0.00  0.00    -0.275 OA
ATOM     22  N   UNL     1       0.514   8.991   0.453  0.00  0.00    -0.295 N 
ATOM     23  C   UNL     1       1.902   8.637   0.144  0.00  0.00    +0.132 C 
BRANCH  22  24
ATOM     24  C   UNL     1       0.110  10.398   0.502  0.00  0.00    +0.203 C 
BRANCH  24  25
ATOM     25  C   UNL     1       0.291  10.923   1.904  0.00  0.00    +0.235 C 
ATOM     26  O   UNL     1       0.715  10.193   2.775  0.00  0.00    -0.274 OA
ATOM     27  N   UNL     1      -0.019  12.203   2.189  0.00  0.00    -0.284 N 
ATOM     28  H   UNL     1      -0.422  12.767   1.510  0.00  0.00    +0.155 HD
BRANCH  27  29
ATOM     29  C   UNL     1       0.240  12.719   3.465  0.00  0.00    +0.034 A 
ATOM     30  C   UNL     1      -0.613  13.662   4.020  0.00  0.00    +0.026 A 
ATOM     31  C   UNL     1      -0.359  14.166   5.281  0.00  0.00    +0.040 A 
ATOM     32  C   UNL     1       0.754  13.738   5.986  0.00  0.00    +0.124 A 
ATOM     33  C   UNL     1       1.610  12.802   5.431  0.00  0.00    +0.040 A 
ATOM     34  C   UNL     1       1.355  12.292   4.173  0.00  0.00    +0.026 A 
ATOM     35  F   UNL     1       1.004  14.236   7.217  0.00  0.00    -0.205 F 
ENDBRANCH  27  29
ENDBRANCH  24  25
ENDBRANCH  22  24
ENDBRANCH  19  20
ENDBRANCH   1  19
TORSDOF 11
