REMARK  Name = ZINC02856771
REMARK  13 active torsions:
REMARK  status: ('A' for Active; 'I' for Inactive)
REMARK    1  A    between atoms: C_1  and  C_2
REMARK    2  A    between atoms: C_2  and  C_3
REMARK    3  A    between atoms: C_2  and  C_4
REMARK    4  A    between atoms: C_8  and  C_28
REMARK    5  A    between atoms: C_9  and  N_10
REMARK    6  A    between atoms: N_10  and  C_11
REMARK    7  A    between atoms: C_11  and  N_13
REMARK    8  A    between atoms: N_13  and  C_14
REMARK    9  A    between atoms: C_21  and  C_24
REMARK   10  A    between atoms: C_24  and  O_26
REMARK   11  A    between atoms: O_26  and  C_27
REMARK   12  A    between atoms: C_28  and  C_29
REMARK   13  A    between atoms: C_28  and  C_30
REMARK                            x       y       z     vdW  Elec       q    Type
REMARK                         _______ _______ _______ _____ _____    ______ ____
ROOT
ATOM      1  C   UNL     1      -0.308   9.169   0.861  0.00  0.00    +0.139 C 
ATOM      2  S   UNL     1      -1.371   9.244   2.201  0.00  0.00    -0.018 S 
ENDROOT
BRANCH   1   3
ATOM      3  N   UNL     1      -0.484   9.999  -0.186  0.00  0.00    -0.296 N 
ATOM      4  H   UNL     1       0.083   9.920  -0.969  0.00  0.00    +0.154 HD
BRANCH   3  10
ATOM      5  C   UNL     1      -2.800  10.638  -0.428  0.00  0.00    -0.023 A 
ATOM      6  C   UNL     1      -3.786  11.604  -0.379  0.00  0.00    +0.006 A 
ATOM      7  C   UNL     1      -3.462  12.909  -0.059  0.00  0.00    +0.001 A 
ATOM      8  C   UNL     1      -2.151  13.251   0.219  0.00  0.00    +0.006 A 
ATOM      9  C   UNL     1      -1.161  12.289   0.178  0.00  0.00    -0.023 A 
ATOM     10  C   UNL     1      -1.484  10.977  -0.143  0.00  0.00    +0.040 A 
BRANCH   5  12
ATOM     11  C   UNL     1      -4.269   8.722   0.140  0.00  0.00    +0.012 C 
ATOM     12  C   UNL     1      -3.154   9.217  -0.783  0.00  0.00    +0.015 C 
ATOM     13  C   UNL     1      -3.630   9.158  -2.236  0.00  0.00    +0.012 C 
ENDBRANCH   5  12
BRANCH   9  14
ATOM     14  C   UNL     1       0.267  12.662   0.481  0.00  0.00    +0.015 C 
ATOM     15  C   UNL     1       0.740  13.722  -0.517  0.00  0.00    +0.012 C 
ATOM     16  C   UNL     1       0.357  13.223   1.901  0.00  0.00    +0.012 C 
ENDBRANCH   9  14
ENDBRANCH   3  10
ENDBRANCH   1   3
BRANCH   1  17
ATOM     17  N   UNL     1       0.705   8.279   0.853  0.00  0.00    -0.297 N 
ATOM     18  H   UNL     1       1.343   8.278   0.122  0.00  0.00    +0.154 HD
BRANCH  17  19
ATOM     19  C   UNL     1       0.834   7.359   1.896  0.00  0.00    +0.034 A 
ATOM     20  C   UNL     1       1.121   6.020   1.623  0.00  0.00    +0.024 A 
ATOM     21  C   UNL     1       1.253   5.107   2.616  0.00  0.00    +0.012 A 
ATOM     22  C   UNL     1       1.103   5.483   3.977  0.00  0.00    +0.008 A 
ATOM     23  C   UNL     1       0.813   6.846   4.227  0.00  0.00    +0.023 A 
ATOM     24  C   UNL     1       0.680   7.768   3.212  0.00  0.00    +0.039 A 
ATOM     25  S   UNL     1       0.700   6.928   5.997  0.00  0.00    -0.080 S 
ATOM     26  C   UNL     1       1.030   5.212   6.357  0.00  0.00    +0.116 A 
ATOM     27  C   UNL     1       1.213   4.671   5.120  0.00  0.00    +0.070 A 
ATOM     28 CL   UNL     1       1.575   2.981   4.955  0.00  0.00    -0.082 Cl
BRANCH  26  29
ATOM     29  C   UNL     1       1.094   4.549   7.662  0.00  0.00    +0.347 C 
ATOM     30  O   UNL     1       1.333   3.358   7.728  0.00  0.00    -0.244 OA
BRANCH  29  31
ATOM     31  O   UNL     1       0.888   5.259   8.790  0.00  0.00    -0.464 OA
ATOM     32  C   UNL     1       0.966   4.536  10.047  0.00  0.00    +0.280 C 
ENDBRANCH  29  31
ENDBRANCH  26  29
ENDBRANCH  17  19
ENDBRANCH   1  17
TORSDOF 8
