REMARK  Name = ZINC21810069
REMARK  9 active torsions:
REMARK  status: ('A' for Active; 'I' for Inactive)
REMARK    1  A    between atoms: C_1  and  C_2
REMARK    2  A    between atoms: C_2  and  C_3
REMARK    3  A    between atoms: C_12  and  C_25
REMARK    4  A    between atoms: C_12  and  C_26
REMARK    5  A    between atoms: N_13  and  C_16
REMARK    6  A    between atoms: C_16  and  C_17
REMARK    7  A    between atoms: C_17  and  C_18
REMARK    8  A    between atoms: C_18  and  N_19
REMARK    9  A    between atoms: N_28  and  C_29
REMARK                            x       y       z     vdW  Elec       q    Type
REMARK                         _______ _______ _______ _____ _____    ______ ____
ROOT
ATOM      1  C   UNL     1       0.204   2.481   1.548  0.00  0.00    -0.008 A 
ATOM      2  C   UNL     1       1.529   2.607   1.323  0.00  0.00    +0.037 A 
ATOM      3  C   UNL     1       2.287   1.496   0.926  0.00  0.00    +0.057 A 
ATOM      4  C   UNL     1       1.577   0.294   0.792  0.00  0.00    +0.038 A 
ATOM      5  S   UNL     1      -0.085   0.752   1.212  0.00  0.00    -0.092 S 
ATOM      6  C   UNL     1       2.445  -0.718   0.400  0.00  0.00    +0.048 A 
ATOM      7  C   UNL     1       3.686  -0.164   0.292  0.00  0.00    +0.106 A 
ATOM      8  N   UNL     1       3.596   1.189   0.604  0.00  0.00    -0.333 N 
ATOM      9  C   UNL     1       4.764   2.073   0.558  0.00  0.00    +0.157 C 
ATOM     10  C   UNL     1       6.020   1.254   0.857  0.00  0.00    +0.128 C 
ATOM     11  N   UNL     1       6.070   0.008   0.101  0.00  0.00    -0.281 N 
ATOM     12  C   UNL     1       4.972  -0.760  -0.090  0.00  0.00    +0.264 C 
ATOM     13  O   UNL     1       5.046  -1.884  -0.552  0.00  0.00    -0.268 OA
ATOM     14  C   UNL     1       6.053   0.925   2.351  0.00  0.00    +0.043 C 
ENDROOT
BRANCH  10  15
ATOM     15  C   UNL     1       7.233   2.080   0.515  0.00  0.00    +0.238 C 
ATOM     16  O   UNL     1       7.912   2.556   1.400  0.00  0.00    -0.273 OA
ATOM     17  N   UNL     1       7.563   2.291  -0.775  0.00  0.00    -0.311 N 
ATOM     18  H   UNL     1       6.902   1.932  -1.577  0.00  0.00    +0.149 HD
BRANCH  17  19
ATOM     19  C   UNL     1       8.803   2.997  -1.108  0.00  0.00    +0.073 C 
ATOM     20  C   UNL     1       8.574   4.506  -1.002  0.00  0.00    +0.022 C 
ATOM     21  C   UNL     1       9.868   5.244  -1.349  0.00  0.00    +0.002 C 
ATOM     22  C   UNL     1      10.288   4.892  -2.778  0.00  0.00    +0.000 C 
ATOM     23  C   UNL     1      10.517   3.382  -2.885  0.00  0.00    +0.002 C 
ATOM     24  C   UNL     1       9.222   2.645  -2.537  0.00  0.00    +0.022 C 
ENDBRANCH  17  19
ENDBRANCH  10  15
BRANCH   1  26
ATOM     25  C   UNL     1      -1.378   4.205   0.728  0.00  0.00    +0.009 C 
ATOM     26  C   UNL     1      -0.785   3.536   1.970  0.00  0.00    +0.039 C 
ENDBRANCH   1  26
BRANCH  11  27
ATOM     27  C   UNL     1       7.348  -0.425  -0.470  0.00  0.00    +0.107 C 
BRANCH  27  28
ATOM     28  C   UNL     1       8.145  -1.192   0.587  0.00  0.00    +0.000 C 
BRANCH  28  29
ATOM     29  C   UNL     1       9.524  -1.547   0.028  0.00  0.00    -0.077 C 
BRANCH  29  30
ATOM     30  N   UNL     1      10.241  -2.391   0.993  0.00  0.00    +0.380 N 
ATOM     31  C   UNL     1      10.539  -1.647   2.223  0.00  0.00    -0.079 C 
ATOM     32  C   UNL     1      11.153  -2.592   3.257  0.00  0.00    -0.019 C 
ATOM     33  C   UNL     1      12.436  -3.203   2.685  0.00  0.00    -0.004 C 
ATOM     34  C   UNL     1      12.107  -3.931   1.379  0.00  0.00    -0.019 C 
ATOM     35  C   UNL     1      11.464  -2.946   0.400  0.00  0.00    -0.079 C 
ATOM     36  H   UNL     1       9.586  -3.233   1.261  0.00  0.00    -0.082 HD
ENDBRANCH  29  30
ENDBRANCH  28  29
ENDBRANCH  27  28
ENDBRANCH  11  27
TORSDOF 7
