REMARK  Name = ZINC55306840
REMARK  5 active torsions:
REMARK  status: ('A' for Active; 'I' for Inactive)
REMARK    1  A    between atoms: C_3  and  S_8
REMARK    2  A    between atoms: S_8  and  C_9
REMARK    3  A    between atoms: C_9  and  C_10
REMARK    4  A    between atoms: C_12  and  N_17
REMARK    5  A    between atoms: C_15  and  O_16
REMARK                            x       y       z     vdW  Elec       q    Type
REMARK                         _______ _______ _______ _____ _____    ______ ____
ROOT
ATOM      1  C   UNL     1       6.536   1.664  -0.052  0.00  0.00    +0.006 A 
ATOM      2  C   UNL     1       7.146   1.970  -1.253  0.00  0.00    +0.030 A 
ATOM      3  C   UNL     1       8.401   2.563  -1.262  0.00  0.00    +0.025 A 
ATOM      4  C   UNL     1       9.043   2.848  -0.064  0.00  0.00    +0.026 A 
ATOM      5  C   UNL     1       8.431   2.542   1.136  0.00  0.00    +0.047 A 
ATOM      6  C   UNL     1       7.174   1.954   1.144  0.00  0.00    +0.121 A 
ENDROOT
BRANCH   3   7
ATOM      7  N   UNL     1       9.021   2.873  -2.478  0.00  0.00    -0.358 N 
ATOM      8  H   UNL     1       8.573   2.674  -3.315  0.00  0.00    +0.142 HD
ATOM      9  H   UNL     1       9.898   3.287  -2.484  0.00  0.00    +0.142 HD
ENDBRANCH   3   7
BRANCH   6  10
ATOM     10  O   UNL     1       6.571   1.657   2.326  0.00  0.00    -0.506 OA
ATOM     11  H   UNL     1       6.773   0.773   2.660  0.00  0.00    +0.292 HD
ENDBRANCH   6  10
BRANCH   1  12
ATOM     12  C   UNL     1       5.173   1.021  -0.042  0.00  0.00    +0.113 C 
BRANCH  12  13
ATOM     13  S   UNL     1       3.896   2.310  -0.023  0.00  0.00    -0.120 S 
BRANCH  13  16
ATOM     14  C   UNL     1      -0.017   1.378   0.010  0.00  0.00    +0.002 A 
ATOM     15  C   UNL     1       1.169   2.087   0.002  0.00  0.00    +0.015 A 
ATOM     16  C   UNL     1       2.382   1.409  -0.013  0.00  0.00    +0.009 A 
ATOM     17  C   UNL     1       2.398   0.020  -0.021  0.00  0.00    +0.030 A 
ATOM     18  C   UNL     1       1.208  -0.683  -0.013  0.00  0.00    +0.019 A 
ATOM     19  C   UNL     1       0.002  -0.004   0.002  0.00  0.00    +0.015 A 
ATOM     20 BR   UNL     1       1.228  -2.574  -0.024  0.00  0.00    -0.050 Br
ENDBRANCH  13  16
ENDBRANCH  12  13
ENDBRANCH   1  12
TORSDOF 5
