REMARK  Name = ZINC13451595
REMARK  4 active torsions:
REMARK  status: ('A' for Active; 'I' for Inactive)
REMARK    1  A    between atoms: C_1  and  C_2
REMARK    2  A    between atoms: C_7  and  C_27
REMARK    3  A    between atoms: C_10  and  C_12
REMARK    4  A    between atoms: N_25  and  O_26
REMARK                            x       y       z     vdW  Elec       q    Type
REMARK                         _______ _______ _______ _____ _____    ______ ____
ROOT
ATOM      1  C   UNL     1       1.313  -1.325   3.233  0.00  0.00    +0.045 A 
ATOM      2  C   UNL     1       2.534  -1.970   3.027  0.00  0.00    +0.014 A 
ATOM      3  C   UNL     1       3.369  -2.236   4.093  0.00  0.00    +0.001 A 
ATOM      4  C   UNL     1       3.009  -1.866   5.377  0.00  0.00    +0.011 A 
ATOM      5  C   UNL     1       1.797  -1.222   5.606  0.00  0.00    +0.013 A 
ATOM      6  C   UNL     1       0.939  -0.941   4.532  0.00  0.00    +0.004 A 
ATOM      7  C   UNL     1      -0.263  -0.252   5.049  0.00  0.00    -0.007 A 
ATOM      8  C   UNL     1      -1.404   0.232   4.413  0.00  0.00    +0.009 A 
ATOM      9  C   UNL     1      -2.397   0.847   5.150  0.00  0.00    +0.001 A 
ATOM     10  C   UNL     1      -2.269   0.988   6.521  0.00  0.00    +0.001 A 
ATOM     11  C   UNL     1      -1.144   0.514   7.169  0.00  0.00    +0.011 A 
ATOM     12  C   UNL     1      -0.136  -0.108   6.441  0.00  0.00    +0.012 A 
ATOM     13  C   UNL     1       1.154  -0.719   6.843  0.00  0.00    +0.118 C 
ATOM     14  N   UNL     1       1.637  -0.787   8.050  0.00  0.00    -0.086 NA
ENDROOT
BRANCH   1  22
ATOM     15  C   UNL     1       2.976  -0.632  -0.192  0.00  0.00    +0.028 C 
ATOM     16  C   UNL     1       2.286   0.083   0.971  0.00  0.00    +0.074 C 
ATOM     17  C   UNL     1       2.347   1.598   0.750  0.00  0.00    +0.022 C 
ATOM     18  C   UNL     1       1.526   1.962  -0.489  0.00  0.00    +0.004 C 
ATOM     19  C   UNL     1       0.065   1.564  -0.271  0.00  0.00    +0.022 C 
ATOM     20  C   UNL     1      -0.021   0.049  -0.062  0.00  0.00    +0.074 C 
ATOM     21  N   UNL     1       0.879  -0.332   1.039  0.00  0.00    -0.292 N 
ATOM     22  C   UNL     1       0.423  -1.043   2.090  0.00  0.00    +0.248 C 
ATOM     23  O   UNL     1      -0.723  -1.451   2.096  0.00  0.00    -0.270 OA
ATOM     24  C   UNL     1      -1.459  -0.339   0.291  0.00  0.00    +0.028 C 
ENDBRANCH   1  22
BRANCH  14  25
ATOM     25  O   UNL     1       0.900  -0.258   9.137  0.00  0.00    -0.409 OA
ATOM     26  H   UNL     1       1.339  -0.354   9.994  0.00  0.00    +0.328 HD
ENDBRANCH  14  25
TORSDOF 2
