REMARK  Name = ZINC05125832
REMARK  4 active torsions:
REMARK  status: ('A' for Active; 'I' for Inactive)
REMARK    1  A    between atoms: C_6  and  C_11
REMARK    2  A    between atoms: C_13  and  C_17
REMARK    3  A    between atoms: N_19  and  N_20
REMARK    4  A    between atoms: C_21  and  C_22
REMARK                            x       y       z     vdW  Elec       q    Type
REMARK                         _______ _______ _______ _____ _____    ______ ____
ROOT
ATOM      1  C   UNL     1      -1.834   5.654   0.041  0.00  0.00    +0.093 A 
ATOM      2  C   UNL     1      -2.331   4.338   0.031  0.00  0.00    +0.062 A 
ATOM      3  C   UNL     1      -1.213   3.526   0.027  0.00  0.00    +0.122 A 
ATOM      4  N   UNL     1      -0.130   4.359   0.026  0.00  0.00    -0.272 N 
ATOM      5  H   UNL     1       0.825   4.060   0.020  0.00  0.00    +0.189 HD
ATOM      6  N   UNL     1      -0.519   5.582   0.034  0.00  0.00    -0.173 NA
ENDROOT
BRANCH   1  12
ATOM      7  C   UNL     1      -4.349  11.590  -0.011  0.00  0.00    +0.001 A 
ATOM      8  C   UNL     1      -2.963  11.682  -0.123  0.00  0.00    +0.001 A 
ATOM      9  C   UNL     1      -2.186  10.565  -0.138  0.00  0.00    +0.008 A 
ATOM     10  C   UNL     1      -2.788   9.297  -0.038  0.00  0.00    -0.017 A 
ATOM     11  C   UNL     1      -2.017   8.125  -0.044  0.00  0.00    +0.018 A 
ATOM     12  C   UNL     1      -2.644   6.898   0.052  0.00  0.00    +0.003 A 
ATOM     13  C   UNL     1      -4.041   6.817   0.165  0.00  0.00    +0.011 A 
ATOM     14  C   UNL     1      -4.806   7.940   0.178  0.00  0.00    +0.009 A 
ATOM     15  C   UNL     1      -4.198   9.204   0.077  0.00  0.00    -0.018 A 
ATOM     16  C   UNL     1      -4.966  10.381   0.088  0.00  0.00    +0.008 A 
ENDBRANCH   1  12
BRANCH   3  17
ATOM     17  C   UNL     1      -1.193   2.055   0.019  0.00  0.00    +0.281 C 
ATOM     18  O   UNL     1      -2.238   1.432   0.020  0.00  0.00    -0.267 OA
ATOM     19  N   UNL     1      -0.017   1.397   0.010  0.00  0.00    -0.202 N 
ATOM     20  H   UNL     1       0.816   1.893   0.004  0.00  0.00    +0.178 HD
BRANCH  19  21
ATOM     21  N   UNL     1       0.002  -0.004   0.002  0.00  0.00    -0.187 NA
ATOM     22  C   UNL     1       1.135  -0.638  -0.012  0.00  0.00    +0.139 C 
BRANCH  22  23
ATOM     23  C   UNL     1       1.155  -2.112  -0.020  0.00  0.00    +0.014 A 
ATOM     24  C   UNL     1       2.372  -2.797  -0.036  0.00  0.00    +0.011 A 
ATOM     25  C   UNL     1       2.384  -4.176  -0.043  0.00  0.00    +0.002 A 
ATOM     26  C   UNL     1       1.194  -4.883  -0.034  0.00  0.00    +0.021 A 
ATOM     27  C   UNL     1      -0.017  -4.212  -0.019  0.00  0.00    +0.060 A 
ATOM     28  C   UNL     1      -0.044  -2.830  -0.007  0.00  0.00    +0.068 A 
ATOM     29 CL   UNL     1      -1.563  -1.990   0.019  0.00  0.00    -0.081 Cl
ATOM     30 CL   UNL     1      -1.503  -5.108  -0.008  0.00  0.00    -0.082 Cl
ENDBRANCH  22  23
ENDBRANCH  19  21
ENDBRANCH   3  17
TORSDOF 4
