REMARK  Name = ZINC14094600
REMARK  10 active torsions:
REMARK  status: ('A' for Active; 'I' for Inactive)
REMARK    1  A    between atoms: C_1  and  C_2
REMARK    2  A    between atoms: C_2  and  C_3
REMARK    3  A    between atoms: C_2  and  C_4
REMARK    4  A    between atoms: C_7  and  C_10
REMARK    5  A    between atoms: C_10  and  C_36
REMARK    6  A    between atoms: N_13  and  C_17
REMARK    7  A    between atoms: C_17  and  C_18
REMARK    8  A    between atoms: N_20  and  C_21
REMARK    9  A    between atoms: C_24  and  S_27
REMARK   10  A    between atoms: S_27  and  N_30
REMARK                            x       y       z     vdW  Elec       q    Type
REMARK                         _______ _______ _______ _____ _____    ______ ____
ROOT
ATOM      1  C   UNL     1      -4.714   2.609  -6.592  0.00  0.00    +0.214 C 
ENDROOT
BRANCH   1   5
ATOM      2  C   UNL     1      -7.292   0.052  -7.374  0.00  0.00    +0.135 C 
ATOM      3  C   UNL     1      -6.836   1.316  -6.673  0.00  0.00    +0.251 C 
ATOM      4  O   UNL     1      -7.490   2.020  -5.934  0.00  0.00    -0.272 OA
ATOM      5  N   UNL     1      -5.552   1.494  -7.042  0.00  0.00    -0.215 N 
ATOM      6  C   UNL     1      -5.139   0.531  -7.874  0.00  0.00    +0.310 C 
ATOM      7  O   UNL     1      -4.020   0.479  -8.345  0.00  0.00    -0.252 OA
ATOM      8  N   UNL     1      -6.100  -0.376  -8.127  0.00  0.00    -0.281 N 
ATOM      9  C   UNL     1      -7.699  -1.013  -6.353  0.00  0.00    +0.047 C 
ATOM     10  H   UNL     1      -6.024  -1.156  -8.698  0.00  0.00    +0.152 HD
BRANCH   2  14
ATOM     11  C   UNL     1     -10.529   0.891 -10.032  0.00  0.00    -0.045 A 
ATOM     12  C   UNL     1      -9.653  -0.141 -10.314  0.00  0.00    +0.004 A 
ATOM     13  C   UNL     1      -8.605  -0.412  -9.454  0.00  0.00    +0.006 A 
ATOM     14  C   UNL     1      -8.434   0.348  -8.312  0.00  0.00    -0.015 A 
ATOM     15  C   UNL     1      -9.313   1.376  -8.028  0.00  0.00    +0.006 A 
ATOM     16  C   UNL     1     -10.357   1.651  -8.890  0.00  0.00    +0.004 A 
BRANCH  11  18
ATOM     17  C   UNL     1     -12.997   1.035 -10.222  0.00  0.00    +0.012 C 
ATOM     18  C   UNL     1     -11.671   1.187 -10.970  0.00  0.00    +0.013 C 
ATOM     19  C   UNL     1     -11.543   2.618 -11.495  0.00  0.00    +0.012 C 
ENDBRANCH  11  18
ENDBRANCH   2  14
ENDBRANCH   1   5
BRANCH   1  20
ATOM     20  C   UNL     1      -3.999   2.220  -5.324  0.00  0.00    +0.235 C 
ATOM     21  O   UNL     1      -4.173   1.120  -4.842  0.00  0.00    -0.274 OA
ATOM     22  N   UNL     1      -3.167   3.094  -4.724  0.00  0.00    -0.284 N 
ATOM     23  H   UNL     1      -3.086   3.998  -5.065  0.00  0.00    +0.155 HD
BRANCH  22  24
ATOM     24  C   UNL     1      -2.420   2.696  -3.610  0.00  0.00    +0.034 A 
ATOM     25  C   UNL     1      -1.965   1.388  -3.507  0.00  0.00    +0.025 A 
ATOM     26  C   UNL     1      -1.228   0.999  -2.406  0.00  0.00    +0.030 A 
ATOM     27  C   UNL     1      -0.942   1.911  -1.406  0.00  0.00    +0.106 A 
ATOM     28  C   UNL     1      -1.398   3.212  -1.503  0.00  0.00    +0.030 A 
ATOM     29  C   UNL     1      -2.131   3.609  -2.604  0.00  0.00    +0.025 A 
BRANCH  27  30
ATOM     30  S   UNL     1      -0.002   1.410  -0.003  0.00  0.00    +0.061 S 
ATOM     31  O   UNL     1      -0.336   2.304   1.050  0.00  0.00    -0.153 OA
ATOM     32  O   UNL     1      -0.164   0.003   0.114  0.00  0.00    -0.153 OA
BRANCH  30  33
ATOM     33  N   UNL     1       1.593   1.675  -0.362  0.00  0.00    -0.177 NA
ATOM     34  C   UNL     1       2.402   0.625  -0.994  0.00  0.00    +0.109 C 
ATOM     35  C   UNL     1       3.051   1.203  -2.260  0.00  0.00    +0.017 C 
ATOM     36  C   UNL     1       3.835   2.466  -1.894  0.00  0.00    +0.003 C 
ATOM     37  C   UNL     1       2.878   3.514  -1.321  0.00  0.00    +0.017 C 
ATOM     38  C   UNL     1       2.226   2.963  -0.049  0.00  0.00    +0.109 C 
ENDBRANCH  30  33
ENDBRANCH  27  30
ENDBRANCH  22  24
ENDBRANCH   1  20
TORSDOF 7
