REMARK  Name = ZINC06364305
REMARK  10 active torsions:
REMARK  status: ('A' for Active; 'I' for Inactive)
REMARK    1  A    between atoms: C_1  and  C_2
REMARK    2  A    between atoms: C_2  and  C_3
REMARK    3  A    between atoms: C_2  and  C_4
REMARK    4  A    between atoms: C_4  and  C_5
REMARK    5  A    between atoms: N_7  and  C_8
REMARK    6  A    between atoms: C_11  and  C_14
REMARK    7  A    between atoms: N_16  and  N_17
REMARK    8  A    between atoms: C_18  and  C_19
REMARK    9  A    between atoms: C_22  and  O_26
REMARK   10  A    between atoms: C_24  and  O_25
REMARK                            x       y       z     vdW  Elec       q    Type
REMARK                         _______ _______ _______ _____ _____    ______ ____
ROOT
ATOM      1  C   UNL     1      -5.056   3.485  -0.165  0.00  0.00    +0.263 C 
ATOM      2  O   UNL     1      -6.071   2.818  -0.096  0.00  0.00    -0.268 OA
ATOM      3  N   UNL     1      -5.136   4.825  -0.284  0.00  0.00    -0.203 N 
ATOM      4  H   UNL     1      -4.327   5.356  -0.340  0.00  0.00    +0.178 HD
ENDROOT
BRANCH   1   8
ATOM      5  C   UNL     1      -1.258   1.589  -0.035  0.00  0.00    +0.033 A 
ATOM      6  C   UNL     1      -1.339   2.973  -0.152  0.00  0.00    +0.024 A 
ATOM      7  C   UNL     1      -2.569   3.590  -0.200  0.00  0.00    +0.015 A 
ATOM      8  C   UNL     1      -3.736   2.826  -0.120  0.00  0.00    +0.038 A 
ATOM      9  C   UNL     1      -3.651   1.436   0.004  0.00  0.00    +0.015 A 
ATOM     10  C   UNL     1      -2.418   0.825   0.046  0.00  0.00    +0.024 A 
BRANCH   5  13
ATOM     11  C   UNL     1       1.026   1.574   0.617  0.00  0.00    +0.217 C 
ATOM     12  O   UNL     1       0.895   2.696   1.060  0.00  0.00    -0.275 OA
ATOM     13  N   UNL     1      -0.011   0.966   0.007  0.00  0.00    -0.285 N 
ATOM     14  H   UNL     1       0.111   0.097  -0.405  0.00  0.00    +0.155 HD
BRANCH  11  15
ATOM     15  C   UNL     1       2.347   0.861   0.748  0.00  0.00    +0.099 C 
BRANCH  15  17
ATOM     16  C   UNL     1       4.646   0.998   1.716  0.00  0.00    +0.008 C 
ATOM     17  C   UNL     1       3.345   1.766   1.473  0.00  0.00    -0.008 C 
ATOM     18  C   UNL     1       3.634   2.999   0.614  0.00  0.00    +0.008 C 
ENDBRANCH  15  17
ENDBRANCH  11  15
ENDBRANCH   5  13
ENDBRANCH   1   8
BRANCH   3  19
ATOM     19  N   UNL     1      -6.389   5.450  -0.328  0.00  0.00    -0.187 NA
ATOM     20  C   UNL     1      -6.467   6.741  -0.442  0.00  0.00    +0.142 C 
BRANCH  20  21
ATOM     21  C   UNL     1      -7.784   7.399  -0.488  0.00  0.00    +0.036 A 
ATOM     22  C   UNL     1      -7.871   8.788  -0.611  0.00  0.00    +0.016 A 
ATOM     23  C   UNL     1      -9.105   9.399  -0.654  0.00  0.00    +0.046 A 
ATOM     24  C   UNL     1     -10.265   8.638  -0.575  0.00  0.00    +0.120 A 
ATOM     25  C   UNL     1     -10.190   7.259  -0.452  0.00  0.00    +0.091 A 
ATOM     26  C   UNL     1      -8.956   6.633  -0.414  0.00  0.00    +0.129 A 
BRANCH  26  27
ATOM     27  O   UNL     1      -8.881   5.282  -0.300  0.00  0.00    -0.506 OA
ATOM     28  H   UNL     1      -8.852   4.965   0.613  0.00  0.00    +0.292 HD
ENDBRANCH  26  27
BRANCH  24  29
ATOM     29  O   UNL     1     -11.478   9.248  -0.618  0.00  0.00    -0.507 OA
ATOM     30  H   UNL     1     -11.838   9.346  -1.510  0.00  0.00    +0.292 HD
ENDBRANCH  24  29
ENDBRANCH  20  21
ENDBRANCH   3  19
TORSDOF 8
