REMARK  Name = ZINC42892554
REMARK  2 active torsions:
REMARK  status: ('A' for Active; 'I' for Inactive)
REMARK    1  A    between atoms: C_7  and  C_10
REMARK    2  A    between atoms: C_10  and  C_12
REMARK                            x       y       z     vdW  Elec       q    Type
REMARK                         _______ _______ _______ _____ _____    ______ ____
ROOT
ATOM      1  C   UNL     1      -0.172  -3.329   1.402  0.00  0.00    -0.027 A 
ATOM      2  C   UNL     1       0.671  -3.957   2.303  0.00  0.00    +0.007 A 
ATOM      3  C   UNL     1       0.264  -4.171   3.605  0.00  0.00    +0.028 A 
ATOM      4  C   UNL     1      -0.994  -3.754   4.012  0.00  0.00    +0.067 A 
ATOM      5  C   UNL     1      -1.845  -3.121   3.104  0.00  0.00    +0.067 A 
ATOM      6  C   UNL     1      -1.425  -2.905   1.800  0.00  0.00    +0.033 A 
ATOM      7  N   UNL     1      -3.019  -2.823   3.792  0.00  0.00    -0.306 N 
ATOM      8  H   UNL     1      -3.797  -2.380   3.420  0.00  0.00    +0.170 HD
ATOM      9  C   UNL     1      -2.888  -3.256   5.060  0.00  0.00    +0.325 A 
ATOM     10  O   UNL     1      -3.736  -3.151   5.927  0.00  0.00    -0.247 OA
ATOM     11  N   UNL     1      -1.678  -3.822   5.224  0.00  0.00    -0.306 N 
ATOM     12  H   UNL     1      -1.340  -4.211   6.045  0.00  0.00    +0.170 HD
ENDROOT
BRANCH   1  13
ATOM     13  C   UNL     1       0.282  -3.100  -0.017  0.00  0.00    +0.117 C 
ATOM     14 BR   UNL     1       0.826  -4.813  -0.815  0.00  0.00    -0.078 Br
BRANCH  13  21
ATOM     15  C   UNL     1      -0.016   1.355   0.009  0.00  0.00    +0.001 A 
ATOM     16  C   UNL     1       1.157   2.097   0.002  0.00  0.00    +0.001 A 
ATOM     17  C   UNL     1       2.374   1.445  -0.013  0.00  0.00    +0.015 A 
ATOM     18  C   UNL     1       2.406   0.067  -0.020  0.00  0.00    +0.020 A 
ATOM     19  C   UNL     1       1.228  -0.711  -0.013  0.00  0.00    -0.006 A 
ATOM     20  C   UNL     1       0.002  -0.004   0.002  0.00  0.00    +0.009 A 
ATOM     21  C   UNL     1       1.451  -2.149  -0.023  0.00  0.00    -0.015 A 
ATOM     22  C   UNL     1       2.706  -2.619  -0.038  0.00  0.00    +0.051 A 
ATOM     23  S   UNL     1       3.704  -1.142  -0.039  0.00  0.00    -0.096 S 
ENDBRANCH  13  21
ENDBRANCH   1  13
TORSDOF 2
