REMARK  Name = ZINC01283123
REMARK  11 active torsions:
REMARK  status: ('A' for Active; 'I' for Inactive)
REMARK    1  A    between atoms: C_1  and  O_2
REMARK    2  A    between atoms: O_2  and  C_3
REMARK    3  A    between atoms: C_6  and  N_9
REMARK    4  A    between atoms: C_19  and  S_20
REMARK    5  A    between atoms: S_20  and  C_21
REMARK    6  A    between atoms: C_21  and  C_22
REMARK    7  A    between atoms: N_24  and  N_25
REMARK    8  A    between atoms: C_26  and  C_27
REMARK    9  A    between atoms: C_29  and  O_35
REMARK   10  A    between atoms: C_30  and  O_34
REMARK   11  A    between atoms: O_35  and  C_36
REMARK                            x       y       z     vdW  Elec       q    Type
REMARK                         _______ _______ _______ _____ _____    ______ ____
ROOT
ATOM      1  N   UNL     1       2.460  -2.458  -4.302  0.00  0.00    -0.255 N 
ATOM      2  C   UNL     1       2.926  -1.708  -5.327  0.00  0.00    +0.267 A 
ATOM      3  O   UNL     1       2.816  -0.495  -5.324  0.00  0.00    -0.267 OA
ATOM      4  C   UNL     1       3.570  -2.411  -6.444  0.00  0.00    +0.065 A 
ATOM      5  C   UNL     1       4.083  -1.728  -7.547  0.00  0.00    +0.015 A 
ATOM      6  C   UNL     1       4.673  -2.432  -8.560  0.00  0.00    +0.001 A 
ATOM      7  C   UNL     1       4.767  -3.817  -8.502  0.00  0.00    +0.002 A 
ATOM      8  C   UNL     1       4.272  -4.511  -7.434  0.00  0.00    +0.028 A 
ATOM      9  C   UNL     1       3.663  -3.820  -6.382  0.00  0.00    +0.079 A 
ATOM     10  N   UNL     1       3.164  -4.466  -5.309  0.00  0.00    -0.223 NA
ATOM     11  C   UNL     1       2.597  -3.818  -4.320  0.00  0.00    +0.177 A 
ENDROOT
BRANCH   1  15
ATOM     12  C   UNL     1       0.607  -0.607  -1.056  0.00  0.00    +0.120 A 
ATOM     13  C   UNL     1       1.978  -0.816  -1.045  0.00  0.00    +0.047 A 
ATOM     14  C   UNL     1       2.592  -1.429  -2.119  0.00  0.00    +0.030 A 
ATOM     15  C   UNL     1       1.837  -1.836  -3.211  0.00  0.00    +0.052 A 
ATOM     16  C   UNL     1       0.464  -1.626  -3.221  0.00  0.00    +0.030 A 
ATOM     17  C   UNL     1      -0.149  -1.017  -2.144  0.00  0.00    +0.047 A 
BRANCH  12  19
ATOM     18  C   UNL     1       0.842   0.394   1.088  0.00  0.00    +0.277 C 
ATOM     19  O   UNL     1       0.003  -0.003   0.002  0.00  0.00    -0.495 OA
ENDBRANCH  12  19
ENDBRANCH   1  15
BRANCH  11  20
ATOM     20  S   UNL     1       1.978  -4.744  -2.955  0.00  0.00    -0.078 S 
BRANCH  20  21
ATOM     21  C   UNL     1       2.360  -6.465  -3.382  0.00  0.00    +0.174 C 
BRANCH  21  22
ATOM     22  C   UNL     1       1.877  -7.375  -2.283  0.00  0.00    +0.242 C 
ATOM     23  O   UNL     1       1.328  -6.909  -1.307  0.00  0.00    -0.273 OA
ATOM     24  N   UNL     1       2.054  -8.707  -2.384  0.00  0.00    -0.206 N 
ATOM     25  H   UNL     1       2.493  -9.081  -3.164  0.00  0.00    +0.177 HD
BRANCH  24  26
ATOM     26  N   UNL     1       1.605  -9.553  -1.361  0.00  0.00    -0.188 NA
ATOM     27  C   UNL     1       1.776 -10.836  -1.459  0.00  0.00    +0.138 C 
BRANCH  27  28
ATOM     28  C   UNL     1       1.302 -11.727  -0.383  0.00  0.00    -0.001 A 
ATOM     29  C   UNL     1       1.491 -13.108  -0.483  0.00  0.00    +0.059 A 
ATOM     30  C   UNL     1       1.045 -13.938   0.528  0.00  0.00    +0.163 A 
ATOM     31  C   UNL     1       0.410 -13.398   1.644  0.00  0.00    +0.173 A 
ATOM     32  C   UNL     1       0.222 -12.027   1.744  0.00  0.00    +0.063 A 
ATOM     33  C   UNL     1       0.670 -11.191   0.742  0.00  0.00    +0.028 A 
ATOM     34 BR   UNL     1      -0.641 -11.301   3.262  0.00  0.00    -0.046 Br
BRANCH  31  35
ATOM     35  O   UNL     1      -0.029 -14.217   2.637  0.00  0.00    -0.503 OA
ATOM     36  H   UNL     1       0.625 -14.377   3.332  0.00  0.00    +0.292 HD
ENDBRANCH  31  35
BRANCH  30  37
ATOM     37  O   UNL     1       1.227 -15.283   0.433  0.00  0.00    -0.491 OA
ATOM     38  C   UNL     1       1.886 -15.767  -0.739  0.00  0.00    +0.277 C 
ENDBRANCH  30  37
ENDBRANCH  27  28
ENDBRANCH  24  26
ENDBRANCH  21  22
ENDBRANCH  20  21
ENDBRANCH  11  20
TORSDOF 9
