REMARK  Name = ZINC34830107
REMARK  12 active torsions:
REMARK  status: ('A' for Active; 'I' for Inactive)
REMARK    1  A    between atoms: C_1  and  C_2
REMARK    2  A    between atoms: C_2  and  C_3
REMARK    3  A    between atoms: C_3  and  C_4
REMARK    4  A    between atoms: C_4  and  C_5
REMARK    5  A    between atoms: C_5  and  C_7
REMARK    6  A    between atoms: C_5  and  C_9
REMARK    7  A    between atoms: C_7  and  C_8
REMARK    8  A    between atoms: C_16  and  C_18
REMARK    9  A    between atoms: C_19  and  C_21
REMARK   10  A    between atoms: C_21  and  C_22
REMARK   11  A    between atoms: C_22  and  N_23
REMARK   12  A    between atoms: C_31  and  C_33
REMARK                            x       y       z     vdW  Elec       q    Type
REMARK                         _______ _______ _______ _____ _____    ______ ____
ROOT
ATOM      1  C   UNL     1       0.853  -4.051  -2.654  0.00  0.00    +0.219 C 
ATOM      2  O   UNL     1       0.557  -4.563  -1.595  0.00  0.00    -0.275 OA
ATOM      3  N   UNL     1       1.309  -4.814  -3.667  0.00  0.00    -0.295 N 
ATOM      4  C   UNL     1       1.751  -4.199  -4.927  0.00  0.00    +0.127 C 
ATOM      5  C   UNL     1       0.968  -4.833  -6.083  0.00  0.00    +0.127 C 
ATOM      6  N   UNL     1       1.033  -6.295  -5.948  0.00  0.00    -0.298 N 
ATOM      7  C   UNL     1       0.591  -6.911  -4.688  0.00  0.00    +0.130 C 
ATOM      8  C   UNL     1       1.379  -6.276  -3.530  0.00  0.00    +0.090 C 
ATOM      9  C   UNL     1       0.762  -6.696  -2.195  0.00  0.00    +0.029 C 
ATOM     10  C   UNL     1       1.490  -7.058  -6.960  0.00  0.00    +0.214 C 
ATOM     11  O   UNL     1       1.539  -8.264  -6.837  0.00  0.00    -0.276 OA
ENDROOT
BRANCH   1  12
ATOM     12  C   UNL     1       0.710  -2.562  -2.837  0.00  0.00    +0.075 C 
BRANCH  12  13
ATOM     13  C   UNL     1      -0.377  -2.278  -3.876  0.00  0.00    +0.009 C 
ATOM     14  C   UNL     1      -1.703  -2.877  -3.402  0.00  0.00    +0.004 C 
ENDBRANCH  12  13
BRANCH  12  15
ATOM     15  C   UNL     1       0.323  -1.919  -1.504  0.00  0.00    +0.013 C 
BRANCH  15  16
ATOM     16  C   UNL     1       0.327  -0.396  -1.652  0.00  0.00    +0.000 C 
BRANCH  16  18
ATOM     17  C   UNL     1      -0.136   1.768  -0.492  0.00  0.00    +0.004 C 
ATOM     18  C   UNL     1      -0.140   0.245  -0.344  0.00  0.00    -0.003 C 
ENDBRANCH  16  18
ENDBRANCH  15  16
ENDBRANCH  12  15
ENDBRANCH   1  12
BRANCH  10  19
ATOM     19  C   UNL     1       1.939  -6.414  -8.246  0.00  0.00    +0.077 C 
BRANCH  19  20
ATOM     20  C   UNL     1       2.407  -7.495  -9.223  0.00  0.00    -0.068 C 
BRANCH  20  21
ATOM     21  N   UNL     1       2.845  -6.866 -10.476  0.00  0.00    +0.388 N 
ATOM     22  C   UNL     1       4.009  -6.012 -10.207  0.00  0.00    -0.072 C 
ATOM     23  C   UNL     1       4.257  -5.110 -11.429  0.00  0.00    +0.024 C 
ATOM     24  C   UNL     1       4.202  -5.975 -12.646  0.00  0.00    -0.010 A 
ATOM     25  C   UNL     1       3.728  -7.251 -12.710  0.00  0.00    -0.047 A 
ATOM     26  C   UNL     1       3.780  -7.871 -13.956  0.00  0.00    +0.010 A 
ATOM     27  C   UNL     1       4.280  -7.205 -15.024  0.00  0.00    +0.045 A 
ATOM     28  S   UNL     1       4.714  -5.628 -14.304  0.00  0.00    -0.101 S 
ATOM     29  C   UNL     1       3.178  -7.912 -11.450  0.00  0.00    -0.006 C 
ATOM     30  H   UNL     1       2.095  -6.299 -10.843  0.00  0.00    -0.080 HD
BRANCH  29  31
ATOM     31  C   UNL     1       1.939  -8.699 -11.791  0.00  0.00    -0.057 A 
ATOM     32  C   UNL     1       0.731  -8.048 -11.957  0.00  0.00    +0.002 A 
ATOM     33  C   UNL     1      -0.406  -8.770 -12.271  0.00  0.00    +0.000 A 
ATOM     34  C   UNL     1      -0.334 -10.142 -12.418  0.00  0.00    +0.000 A 
ATOM     35  C   UNL     1       0.874 -10.793 -12.253  0.00  0.00    +0.000 A 
ATOM     36  C   UNL     1       2.012 -10.071 -11.944  0.00  0.00    +0.002 A 
ENDBRANCH  29  31
ENDBRANCH  20  21
ENDBRANCH  19  20
ENDBRANCH  10  19
TORSDOF 9
