REMARK  Name = ZINC33665917
REMARK  8 active torsions:
REMARK  status: ('A' for Active; 'I' for Inactive)
REMARK    1  A    between atoms: C_1  and  C_2
REMARK    2  A    between atoms: C_2  and  C_3
REMARK    3  A    between atoms: C_3  and  C_5
REMARK    4  A    between atoms: C_3  and  N_6
REMARK    5  A    between atoms: C_7  and  C_9
REMARK    6  A    between atoms: N_17  and  S_20
REMARK    7  A    between atoms: S_20  and  C_23
REMARK    8  A    between atoms: C_27  and  N_29
REMARK                            x       y       z     vdW  Elec       q    Type
REMARK                         _______ _______ _______ _____ _____    ______ ____
ROOT
ATOM      1  C   UNL     1       2.783  -1.099   2.395  0.00  0.00    +0.028 C 
ATOM      2  C   UNL     1       2.523  -0.124   3.581  0.00  0.00    +0.061 C 
ATOM      3  S   UNL     1       3.985  -0.567   4.624  0.00  0.00    -0.174 S 
ATOM      4  C   UNL     1       5.118  -1.017   3.249  0.00  0.00    -0.016 C 
ATOM      5  N   UNL     1       4.216  -1.188   2.098  0.00  0.00    +0.397 N 
ATOM      6  C   UNL     1       5.835  -2.318   3.583  0.00  0.00    +0.015 C 
ATOM      7  C   UNL     1       6.765  -2.701   2.427  0.00  0.00    +0.109 C 
ATOM      8  N   UNL     1       7.644  -1.561   2.131  0.00  0.00    -0.177 NA
ATOM      9  C   UNL     1       7.037  -0.253   1.849  0.00  0.00    +0.109 C 
ATOM     10  C   UNL     1       6.105   0.117   3.009  0.00  0.00    +0.015 C 
ATOM     11  H   UNL     1       4.442  -2.178   1.674  0.00  0.00    -0.083 HD
ATOM     12  H   UNL     1       4.490  -0.408   1.373  0.00  0.00    -0.083 HD
ENDROOT
BRANCH   1  14
ATOM     13  N   UNL     1       0.711  -0.489   1.189  0.00  0.00    -0.314 N 
ATOM     14  C   UNL     1       2.054  -0.600   1.174  0.00  0.00    +0.200 C 
ATOM     15  O   UNL     1       2.676  -0.297   0.177  0.00  0.00    -0.278 OA
ATOM     16  H   UNL     1       0.146  -0.764   2.092  0.00  0.00    +0.149 HD
BRANCH  13  17
ATOM     17  C   UNL     1       0.002  -0.004   0.002  0.00  0.00    +0.070 C 
ATOM     18  C   UNL     1      -0.019   1.526   0.010  0.00  0.00    +0.028 C 
BRANCH  17  20
ATOM     19  C   UNL     1      -1.416  -2.058  -0.121  0.00  0.00    +0.005 C 
ATOM     20  C   UNL     1      -1.433  -0.534   0.013  0.00  0.00    +0.018 C 
ENDBRANCH  17  20
ENDBRANCH  13  17
ENDBRANCH   1  14
BRANCH   8  21
ATOM     21  S   UNL     1       9.289  -1.747   2.116  0.00  0.00    +0.061 S 
ATOM     22  O   UNL     1       9.540  -3.122   1.860  0.00  0.00    -0.153 OA
ATOM     23  O   UNL     1       9.807  -0.712   1.291  0.00  0.00    -0.153 OA
BRANCH  21  24
ATOM     24  C   UNL     1       9.866  -1.426   3.749  0.00  0.00    +0.108 A 
ATOM     25  C   UNL     1       9.963  -2.458   4.664  0.00  0.00    +0.030 A 
ATOM     26  C   UNL     1      10.415  -2.207   5.945  0.00  0.00    +0.024 A 
ATOM     27  C   UNL     1      10.770  -0.921   6.313  0.00  0.00    +0.071 A 
ATOM     28  C   UNL     1      10.672   0.112   5.398  0.00  0.00    +0.146 A 
ATOM     29  C   UNL     1      10.225  -0.142   4.115  0.00  0.00    +0.062 A 
ATOM     30 CL   UNL     1      11.337  -0.604   7.923  0.00  0.00    -0.081 Cl
BRANCH  28  31
ATOM     31  N   UNL     1      11.052   1.487   5.791  0.00  0.00    +0.058 N 
ATOM     32  O   UNL     1      10.966   2.397   4.985  0.00  0.00    -0.126 OA
ATOM     33  O   UNL     1      11.451   1.710   6.920  0.00  0.00    -0.126 OA
ENDBRANCH  28  31
ENDBRANCH  21  24
ENDBRANCH   8  21
TORSDOF 6
