REMARK  Name = ZINC00885477
REMARK  5 active torsions:
REMARK  status: ('A' for Active; 'I' for Inactive)
REMARK    1  A    between atoms: C_1  and  C_2
REMARK    2  A    between atoms: C_7  and  N_8
REMARK    3  A    between atoms: C_9  and  C_11
REMARK    4  A    between atoms: C_12  and  C_27
REMARK    5  A    between atoms: C_16  and  C_24
REMARK                            x       y       z     vdW  Elec       q    Type
REMARK                         _______ _______ _______ _____ _____    ______ ____
ROOT
ATOM      1  C   UNL     1       0.092  -0.197   4.934  0.00  0.00    +0.039 C 
ATOM      2  C   UNL     1       0.170  -0.952   6.043  0.00  0.00    +0.014 C 
ATOM      3  N   UNL     1       0.138  -0.388   7.290  0.00  0.00    -0.315 N 
ATOM      4  C   UNL     1      -0.250   0.888   7.463  0.00  0.00    +0.066 C 
ATOM      5  S   UNL     1      -0.166   1.556   8.914  0.00  0.00    -0.039 S 
ATOM      6  C   UNL     1      -0.765   1.690   6.295  0.00  0.00    +0.137 C 
ATOM      7  C   UNL     1       0.018   1.304   5.035  0.00  0.00    +0.019 C 
ATOM      8  C   UNL     1      -0.695   1.864   3.802  0.00  0.00    +0.013 C 
ATOM      9  C   UNL     1      -0.771   3.389   3.906  0.00  0.00    +0.001 C 
ATOM     10  C   UNL     1       0.643   3.966   3.984  0.00  0.00    +0.000 C 
ATOM     11  C   UNL     1       1.356   3.406   5.216  0.00  0.00    +0.001 C 
ATOM     12  C   UNL     1       1.433   1.881   5.112  0.00  0.00    +0.013 C 
ATOM     13  C   UNL     1       0.293  -2.448   5.912  0.00  0.00    +0.061 C 
ATOM     14  H   UNL     1       0.401  -0.916   8.060  0.00  0.00    +0.152 HD
ENDROOT
BRANCH   6  15
ATOM     15  C   UNL     1      -2.230   1.401   6.093  0.00  0.00    +0.221 C 
ATOM     16  O   UNL     1      -2.606   0.259   5.933  0.00  0.00    -0.275 OA
ATOM     17  N   UNL     1      -3.122   2.411   6.088  0.00  0.00    -0.329 N 
ATOM     18  H   UNL     1      -2.821   3.324   6.215  0.00  0.00    +0.145 HD
ATOM     19  H   UNL     1      -4.065   2.225   5.958  0.00  0.00    +0.145 HD
ENDBRANCH   6  15
BRANCH   1  21
ATOM     20  N   UNL     1      -1.032  -1.417   3.208  0.00  0.00    -0.281 N 
ATOM     21  C   UNL     1       0.087  -0.818   3.661  0.00  0.00    +0.246 C 
ATOM     22  O   UNL     1       1.094  -0.811   2.976  0.00  0.00    -0.270 OA
ATOM     23  H   UNL     1      -1.845  -1.389   3.737  0.00  0.00    +0.155 HD
BRANCH  20  30
ATOM     24  C   UNL     1      -2.904  -3.520   2.796  0.00  0.00    +0.045 C 
ATOM     25  C   UNL     1      -1.918  -3.110   1.732  0.00  0.00    -0.029 A 
ATOM     26  C   UNL     1      -1.909  -3.757   0.511  0.00  0.00    +0.005 A 
ATOM     27  C   UNL     1      -1.005  -3.381  -0.465  0.00  0.00    +0.000 A 
ATOM     28  C   UNL     1      -0.107  -2.357  -0.224  0.00  0.00    +0.002 A 
ATOM     29  C   UNL     1      -0.111  -1.706   0.995  0.00  0.00    +0.023 A 
ATOM     30  C   UNL     1      -1.022  -2.078   1.976  0.00  0.00    +0.037 A 
ENDBRANCH  20  30
ENDBRANCH   1  21
TORSDOF 3
