REMARK  Name = ZINC36064796
REMARK  15 active torsions:
REMARK  status: ('A' for Active; 'I' for Inactive)
REMARK    1  A    between atoms: C_1  and  C_2
REMARK    2  A    between atoms: C_3  and  C_32
REMARK    3  A    between atoms: C_4  and  C_22
REMARK    4  A    between atoms: C_7  and  C_12
REMARK    5  A    between atoms: C_13  and  N_15
REMARK    6  A    between atoms: N_18  and  C_21
REMARK    7  A    between atoms: C_26  and  O_30
REMARK    8  A    between atoms: C_27  and  O_28
REMARK    9  A    between atoms: O_28  and  C_29
REMARK   10  A    between atoms: O_30  and  C_31
REMARK   11  A    between atoms: C_32  and  O_34
REMARK   12  A    between atoms: O_34  and  C_35
REMARK   13  A    between atoms: C_35  and  C_36
REMARK   14  A    between atoms: C_35  and  C_37
REMARK   15  A    between atoms: C_35  and  C_38
REMARK                            x       y       z     vdW  Elec       q    Type
REMARK                         _______ _______ _______ _____ _____    ______ ____
ROOT
ATOM      1  C   UNL     1      -0.124   1.666  -0.402  0.00  0.00    +0.066 C 
ATOM      2  C   UNL     1      -0.060   0.190  -0.107  0.00  0.00    +0.053 C 
ATOM      3  C   UNL     1      -1.223  -0.556  -0.080  0.00  0.00    +0.083 C 
ATOM      4  C   UNL     1      -1.106  -2.034   0.220  0.00  0.00    +0.153 C 
ATOM      5  N   UNL     1       0.260  -2.569   0.464  0.00  0.00    -0.267 N 
ATOM      6  C   UNL     1       0.601  -3.875   0.753  0.00  0.00    +0.048 C 
ATOM      7  C   UNL     1       1.910  -4.154   0.940  0.00  0.00    +0.072 C 
ATOM      8  S   UNL     1       2.665  -2.557   0.706  0.00  0.00    -0.060 S 
ATOM      9  C   UNL     1       1.280  -1.662   0.391  0.00  0.00    +0.166 C 
ATOM     10  N   UNL     1       1.110  -0.385   0.119  0.00  0.00    -0.230 NA
ENDROOT
BRANCH   4  11
ATOM     11  C   UNL     1      -1.700  -2.791  -0.940  0.00  0.00    +0.023 A 
ATOM     12  C   UNL     1      -2.906  -3.452  -0.789  0.00  0.00    +0.009 A 
ATOM     13  C   UNL     1      -3.453  -4.147  -1.851  0.00  0.00    +0.004 A 
ATOM     14  C   UNL     1      -2.798  -4.186  -3.068  0.00  0.00    +0.049 A 
ATOM     15  C   UNL     1      -1.590  -3.526  -3.225  0.00  0.00    +0.162 A 
ATOM     16  C   UNL     1      -1.042  -2.820  -2.158  0.00  0.00    +0.167 A 
BRANCH  16  17
ATOM     17  O   UNL     1       0.141  -2.166  -2.309  0.00  0.00    -0.491 OA
ATOM     18  C   UNL     1       1.333  -2.949  -2.212  0.00  0.00    +0.277 C 
ENDBRANCH  16  17
BRANCH  15  19
ATOM     19  O   UNL     1      -0.944  -3.563  -4.422  0.00  0.00    -0.491 OA
ATOM     20  C   UNL     1      -1.569  -4.301  -5.474  0.00  0.00    +0.277 C 
ENDBRANCH  15  19
ENDBRANCH   4  11
BRANCH   6  21
ATOM     21  C   UNL     1      -0.423  -4.925   0.853  0.00  0.00    +0.091 C 
ATOM     22  C   UNL     1      -0.081  -6.162   1.261  0.00  0.00    +0.241 C 
ATOM     23  O   UNL     1       1.222  -6.471   1.471  0.00  0.00    -0.271 OA
BRANCH  22  24
ATOM     24  N   UNL     1      -1.061  -7.119   1.466  0.00  0.00    -0.302 N 
ATOM     25  C   UNL     1      -2.281  -7.141   0.644  0.00  0.00    +0.089 C 
ATOM     26  C   UNL     1      -2.480  -8.562   0.108  0.00  0.00    -0.060 C 
ATOM     27  N   UNL     1      -2.487  -9.510   1.229  0.00  0.00    +0.380 N 
ATOM     28  C   UNL     1      -1.175  -9.517   1.888  0.00  0.00    -0.060 C 
ATOM     29  C   UNL     1      -0.908  -8.146   2.508  0.00  0.00    +0.089 C 
ATOM     30  C   UNL     1      -2.787 -10.858   0.726  0.00  0.00    -0.096 C 
ATOM     31  H   UNL     1      -3.195  -9.237   1.895  0.00  0.00    -0.082 HD
ENDBRANCH  22  24
ENDBRANCH   6  21
BRANCH   3  32
ATOM     32  C   UNL     1      -2.468   0.037  -0.323  0.00  0.00    +0.340 C 
ATOM     33  O   UNL     1      -2.550   1.244  -0.471  0.00  0.00    -0.245 OA
BRANCH  32  34
ATOM     34  O   UNL     1      -3.579  -0.729  -0.392  0.00  0.00    -0.456 OA
BRANCH  34  35
ATOM     35  C   UNL     1      -4.807  -0.066  -0.699  0.00  0.00    +0.106 C 
ATOM     36  C   UNL     1      -4.676   0.652  -2.044  0.00  0.00    +0.055 C 
ATOM     37  C   UNL     1      -5.937  -1.094  -0.778  0.00  0.00    +0.055 C 
ATOM     38  C   UNL     1      -5.122   0.956   0.396  0.00  0.00    +0.055 C 
ENDBRANCH  34  35
ENDBRANCH  32  34
ENDBRANCH   3  32
TORSDOF 8
