REMARK  Name = ZINC33779633
REMARK  6 active torsions:
REMARK  status: ('A' for Active; 'I' for Inactive)
REMARK    1  A    between atoms: C_1  and  C_2
REMARK    2  A    between atoms: C_5  and  N_8
REMARK    3  A    between atoms: C_9  and  C_10
REMARK    4  A    between atoms: N_19  and  N_20
REMARK    5  A    between atoms: C_21  and  C_22
REMARK    6  A    between atoms: C_26  and  O_28
REMARK                            x       y       z     vdW  Elec       q    Type
REMARK                         _______ _______ _______ _____ _____    ______ ____
ROOT
ATOM      1  N   UNL     1      -3.553   7.324   0.275  0.00  0.00    -0.229 NA
ATOM      2  C   UNL     1      -2.484   8.027   0.570  0.00  0.00    +0.171 C 
ATOM      3  N   UNL     1      -1.374   7.404   1.098  0.00  0.00    -0.219 N 
ATOM      4  H   UNL     1      -1.381   6.317   1.264  0.00  0.00    +0.176 HD
ENDROOT
BRANCH   2   5
ATOM      5  C   UNL     1      -2.472   9.483   0.337  0.00  0.00    +0.144 A 
ATOM      6  N   UNL     1      -3.421  10.249  -0.158  0.00  0.00    -0.236 NA
ATOM      7  C   UNL     1      -3.277  11.571  -0.313  0.00  0.00    +0.079 A 
ATOM      8  C   UNL     1      -4.217  12.500  -0.825  0.00  0.00    +0.029 A 
ATOM      9  C   UNL     1      -3.909  13.820  -0.921  0.00  0.00    +0.002 A 
ATOM     10  C   UNL     1      -2.671  14.312  -0.527  0.00  0.00    +0.001 A 
ATOM     11  C   UNL     1      -1.725  13.441  -0.022  0.00  0.00    +0.017 A 
ATOM     12  C   UNL     1      -2.024  12.104   0.081  0.00  0.00    +0.040 A 
ATOM     13  S   UNL     1      -1.161  10.659   0.648  0.00  0.00    -0.064 S 
ENDBRANCH   2   5
BRANCH   1  18
ATOM     14  C   UNL     1      -3.428   1.697   0.674  0.00  0.00    +0.044 C 
ATOM     15  C   UNL     1      -3.462   3.200   0.567  0.00  0.00    -0.050 A 
ATOM     16  C   UNL     1      -4.423   3.917   1.256  0.00  0.00    +0.005 A 
ATOM     17  C   UNL     1      -4.460   5.293   1.164  0.00  0.00    +0.028 A 
ATOM     18  C   UNL     1      -3.523   5.962   0.371  0.00  0.00    +0.066 A 
ATOM     19  C   UNL     1      -2.558   5.230  -0.327  0.00  0.00    +0.028 A 
ATOM     20  C   UNL     1      -2.531   3.855  -0.220  0.00  0.00    +0.005 A 
ENDBRANCH   1  18
BRANCH   3  21
ATOM     21  N   UNL     1      -0.238   8.156   1.424  0.00  0.00    -0.189 NA
ATOM     22  C   UNL     1       0.842   7.559   1.828  0.00  0.00    +0.138 C 
BRANCH  22  23
ATOM     23  C   UNL     1       2.000   8.353   2.278  0.00  0.00    -0.002 A 
ATOM     24  C   UNL     1       1.979   9.746   2.169  0.00  0.00    +0.010 A 
ATOM     25  C   UNL     1       3.062  10.486   2.596  0.00  0.00    +0.004 A 
ATOM     26  C   UNL     1       4.174   9.854   3.122  0.00  0.00    +0.045 A 
ATOM     27  C   UNL     1       4.204   8.470   3.233  0.00  0.00    +0.117 A 
ATOM     28  C   UNL     1       3.121   7.717   2.813  0.00  0.00    +0.054 A 
BRANCH  27  29
ATOM     29  O   UNL     1       5.298   7.854   3.755  0.00  0.00    -0.507 OA
ATOM     30  H   UNL     1       5.322   6.758   3.844  0.00  0.00    +0.292 HD
ENDBRANCH  27  29
ENDBRANCH  22  23
ENDBRANCH   3  21
TORSDOF 5
