REMARK  Name = ZINC49551379
REMARK  3 active torsions:
REMARK  status: ('A' for Active; 'I' for Inactive)
REMARK    1  A    between atoms: N_15  and  C_16
REMARK    2  A    between atoms: C_16  and  C_17
REMARK    3  A    between atoms: N_19  and  C_20
REMARK                            x       y       z     vdW  Elec       q    Type
REMARK                         _______ _______ _______ _____ _____    ______ ____
ROOT
ATOM      1  C   UNL     1       2.356   1.443   0.027  0.00  0.00    +0.005 A 
ATOM      2  C   UNL     1       1.114   2.064   0.059  0.00  0.00    +0.018 A 
ATOM      3  C   UNL     1      -0.029   1.290   0.069  0.00  0.00    +0.084 A 
ATOM      4  N   UNL     1       0.046  -0.028   0.049  0.00  0.00    -0.350 N 
ATOM      5  C   UNL     1       1.211  -0.656   0.019  0.00  0.00    +0.099 A 
ATOM      6  C   UNL     1       2.403   0.061   0.007  0.00  0.00    +0.042 A 
ATOM      7  N   UNL     1       1.243  -2.046  -0.000  0.00  0.00    -0.314 N 
ATOM      8  C   UNL     1       2.517  -2.763  -0.150  0.00  0.00    +0.125 C 
ATOM      9  C   UNL     1       2.672  -3.738   1.023  0.00  0.00    +0.128 C 
ATOM     10  N   UNL     1       1.432  -4.517   1.152  0.00  0.00    -0.283 N 
ATOM     11  C   UNL     1       0.158  -3.801   1.302  0.00  0.00    +0.128 C 
ATOM     12  C   UNL     1       0.004  -2.825   0.135  0.00  0.00    +0.125 C 
ATOM     13  C   UNL     1       1.464  -5.864   1.133  0.00  0.00    +0.303 C 
ATOM     14  O   UNL     1       2.530  -6.447   1.107  0.00  0.00    -0.253 OA
ATOM     15  N   UNL     1       0.312  -6.566   1.144  0.00  0.00    -0.291 N 
ATOM     16  H   UNL     1      -0.538  -6.102   1.089  0.00  0.00    +0.151 HD
ATOM     17  H   UNL     1      -0.772  -0.548   0.057  0.00  0.00    +0.166 HD
ENDROOT
BRANCH  15  18
ATOM     18  C   UNL     1       0.346  -8.027   1.239  0.00  0.00    +0.202 C 
BRANCH  18  19
ATOM     19  C   UNL     1      -1.062  -8.563   1.232  0.00  0.00    +0.234 C 
ATOM     20  O   UNL     1      -2.002  -7.800   1.155  0.00  0.00    -0.274 OA
ATOM     21  N   UNL     1      -1.278  -9.891   1.311  0.00  0.00    -0.284 N 
ATOM     22  H   UNL     1      -0.528 -10.506   1.308  0.00  0.00    +0.155 HD
BRANCH  21  23
ATOM     23  C   UNL     1      -2.586 -10.384   1.398  0.00  0.00    +0.035 A 
ATOM     24  C   UNL     1      -3.614  -9.742   0.709  0.00  0.00    +0.024 A 
ATOM     25  C   UNL     1      -4.894 -10.210   0.783  0.00  0.00    +0.012 A 
ATOM     26  C   UNL     1      -5.178 -11.339   1.554  0.00  0.00    -0.000 A 
ATOM     27  C   UNL     1      -6.404 -12.088   1.847  0.00  0.00    +0.027 A 
ATOM     28  C   UNL     1      -6.061 -13.098   2.663  0.00  0.00    +0.083 A 
ATOM     29  N   UNL     1      -4.716 -13.057   2.916  0.00  0.00    -0.361 N 
ATOM     30  H   UNL     1      -4.235 -13.685   3.478  0.00  0.00    +0.165 HD
ATOM     31  C   UNL     1      -4.147 -11.993   2.252  0.00  0.00    +0.048 A 
ATOM     32  C   UNL     1      -2.847 -11.507   2.162  0.00  0.00    +0.049 A 
ENDBRANCH  21  23
ENDBRANCH  18  19
ENDBRANCH  15  18
TORSDOF 3
