REMARK  Name = ZINC15822860
REMARK  5 active torsions:
REMARK  status: ('A' for Active; 'I' for Inactive)
REMARK    1  A    between atoms: C_3  and  S_6
REMARK    2  A    between atoms: S_6  and  N_9
REMARK    3  A    between atoms: C_13  and  C_15
REMARK    4  A    between atoms: N_17  and  C_18
REMARK    5  A    between atoms: C_19  and  C_26
REMARK                            x       y       z     vdW  Elec       q    Type
REMARK                         _______ _______ _______ _____ _____    ______ ____
ROOT
ATOM      1  C   UNL     1       1.615   2.773  -1.246  0.00  0.00    +0.236 C 
ATOM      2  O   UNL     1       0.724   2.932  -2.053  0.00  0.00    -0.274 OA
ATOM      3  N   UNL     1       2.826   3.322  -1.463  0.00  0.00    -0.278 N 
ATOM      4  H   UNL     1       3.539   3.195  -0.817  0.00  0.00    +0.155 HD
ENDROOT
BRANCH   3   5
ATOM      5  C   UNL     1       3.053   4.070  -2.608  0.00  0.00    +0.084 A 
ATOM      6  C   UNL     1       4.217   4.707  -3.003  0.00  0.00    +0.068 A 
ATOM      7  C   UNL     1       4.193   5.437  -4.270  0.00  0.00    -0.023 A 
ATOM      8  C   UNL     1       3.018   5.405  -4.925  0.00  0.00    -0.004 A 
ATOM      9  S   UNL     1       1.953   4.426  -3.896  0.00  0.00    -0.077 S 
ATOM     10  C   UNL     1       3.073   6.173  -6.218  0.00  0.00    +0.043 C 
ATOM     11  C   UNL     1       4.581   6.343  -6.507  0.00  0.00    +0.010 C 
ATOM     12  C   UNL     1       5.183   6.266  -5.090  0.00  0.00    +0.037 C 
BRANCH   6  13
ATOM     13  C   UNL     1       5.430   4.651  -2.182  0.00  0.00    +0.244 C 
ATOM     14  O   UNL     1       6.238   3.756  -2.349  0.00  0.00    -0.270 OA
ATOM     15  N   UNL     1       5.651   5.591  -1.241  0.00  0.00    -0.325 N 
ATOM     16  H   UNL     1       5.007   6.304  -1.108  0.00  0.00    +0.145 HD
ATOM     17  H   UNL     1       6.453   5.554  -0.698  0.00  0.00    +0.145 HD
ENDBRANCH   6  13
ENDBRANCH   3   5
BRANCH   1  22
ATOM     18  N   UNL     1      -0.018   1.470   0.010  0.00  0.00    -0.164 NA
ATOM     19  C   UNL     1       0.002  -0.004   0.002  0.00  0.00    +0.110 C 
ATOM     20  C   UNL     1       1.380  -0.385   0.599  0.00  0.00    +0.019 C 
ATOM     21  C   UNL     1       2.292   0.724   0.011  0.00  0.00    +0.031 C 
ATOM     22  C   UNL     1       1.368   1.960  -0.001  0.00  0.00    +0.166 C 
BRANCH  18  23
ATOM     23  S   UNL     1      -1.377   2.417   0.022  0.00  0.00    +0.068 S 
ATOM     24  O   UNL     1      -1.001   3.674  -0.524  0.00  0.00    -0.152 OA
ATOM     25  O   UNL     1      -2.425   1.630  -0.527  0.00  0.00    -0.152 OA
BRANCH  23  28
ATOM     26  C   UNL     1      -1.857   3.736   3.830  0.00  0.00    +0.010 A 
ATOM     27  C   UNL     1      -1.392   3.707   2.529  0.00  0.00    +0.036 A 
ATOM     28  C   UNL     1      -1.795   2.706   1.709  0.00  0.00    +0.143 A 
ATOM     29  S   UNL     1      -2.855   1.752   2.784  0.00  0.00    -0.077 S 
ATOM     30  C   UNL     1      -2.694   2.756   4.251  0.00  0.00    +0.047 A 
ENDBRANCH  23  28
ENDBRANCH  18  23
ENDBRANCH   1  22
TORSDOF 5
