REMARK  Name = ZINC20366928
REMARK  13 active torsions:
REMARK  status: ('A' for Active; 'I' for Inactive)
REMARK    1  A    between atoms: C_1  and  C_2
REMARK    2  A    between atoms: C_5  and  C_8
REMARK    3  A    between atoms: C_13  and  C_23
REMARK    4  A    between atoms: C_15  and  C_19
REMARK    5  A    between atoms: C_19  and  O_21
REMARK    6  A    between atoms: O_21  and  C_22
REMARK    7  A    between atoms: C_25  and  C_39
REMARK    8  A    between atoms: C_26  and  C_27
REMARK    9  A    between atoms: C_27  and  O_29
REMARK   10  A    between atoms: O_29  and  C_30
REMARK   11  A    between atoms: C_30  and  C_31
REMARK   12  A    between atoms: C_31  and  O_32
REMARK   13  A    between atoms: O_32  and  C_33
REMARK                            x       y       z     vdW  Elec       q    Type
REMARK                         _______ _______ _______ _____ _____    ______ ____
ROOT
ATOM      1  C   UNL     1       1.229  -2.186  -0.022  0.00  0.00    +0.092 C 
ATOM      2  C   UNL     1       1.944  -2.678   1.211  0.00  0.00    +0.025 C 
ATOM      3  C   UNL     1       3.212  -3.134   1.137  0.00  0.00    +0.016 C 
ATOM      4  C   UNL     1       3.932  -3.634   2.365  0.00  0.00    +0.055 C 
ATOM      5  C   UNL     1       3.424  -2.885   3.599  0.00  0.00    +0.013 C 
ATOM      6  C   UNL     1       1.911  -3.103   3.711  0.00  0.00    +0.171 C 
ATOM      7  C   UNL     1       1.255  -2.646   2.436  0.00  0.00    +0.176 C 
ATOM      8  O   UNL     1       0.110  -2.242   2.467  0.00  0.00    -0.291 OA
ATOM      9  C   UNL     1       3.723  -1.392   3.453  0.00  0.00    +0.009 C 
ATOM     10  N   UNL     1       3.873  -3.157  -0.062  0.00  0.00    -0.321 N 
ATOM     11  C   UNL     1       3.180  -3.114  -1.240  0.00  0.00    +0.016 C 
ATOM     12  C   UNL     1       1.916  -2.662  -1.268  0.00  0.00    +0.065 C 
ATOM     13  C   UNL     1       3.840  -3.576  -2.514  0.00  0.00    +0.061 C 
ATOM     14  H   UNL     1       4.972  -3.211  -0.084  0.00  0.00    +0.152 HD
ENDROOT
BRANCH   1  19
ATOM     15  C   UNL     1       1.151   3.592   0.010  0.00  0.00    +0.044 C 
ATOM     16  C   UNL     1       1.171   2.086   0.002  0.00  0.00    -0.050 A 
ATOM     17  C   UNL     1      -0.017   1.378   0.010  0.00  0.00    +0.003 A 
ATOM     18  C   UNL     1       0.002  -0.004   0.002  0.00  0.00    +0.005 A 
ATOM     19  C   UNL     1       1.208  -0.679  -0.014  0.00  0.00    -0.035 A 
ATOM     20  C   UNL     1       2.396   0.029  -0.021  0.00  0.00    +0.005 A 
ATOM     21  C   UNL     1       2.377   1.411  -0.014  0.00  0.00    +0.003 A 
ENDBRANCH   1  19
BRANCH   6  22
ATOM     22  C   UNL     1       1.371  -2.306   4.870  0.00  0.00    +0.318 C 
ATOM     23  O   UNL     1       2.117  -1.632   5.540  0.00  0.00    -0.250 OA
BRANCH  22  24
ATOM     24  O   UNL     1       0.061  -2.345   5.159  0.00  0.00    -0.467 OA
ATOM     25  C   UNL     1      -0.389  -1.552   6.289  0.00  0.00    +0.280 C 
ENDBRANCH  22  24
ENDBRANCH   6  22
BRANCH  12  26
ATOM     26  C   UNL     1       1.218  -2.635  -2.498  0.00  0.00    +0.338 C 
ATOM     27  O   UNL     1       1.764  -3.019  -3.516  0.00  0.00    -0.245 OA
BRANCH  26  28
ATOM     28  O   UNL     1      -0.053  -2.185  -2.543  0.00  0.00    -0.458 OA
BRANCH  28  29
ATOM     29  C   UNL     1      -0.697  -2.186  -3.819  0.00  0.00    +0.273 C 
BRANCH  29  30
ATOM     30  C   UNL     1      -2.121  -1.645  -3.672  0.00  0.00    +0.270 C 
BRANCH  30  31
ATOM     31  O   UNL     1      -2.070  -0.273  -3.275  0.00  0.00    -0.489 OA
BRANCH  31  32
ATOM     32  C   UNL     1      -3.259   0.363  -3.099  0.00  0.00    +0.121 A 
ATOM     33  C   UNL     1      -4.449  -0.318  -3.310  0.00  0.00    +0.045 A 
ATOM     34  C   UNL     1      -5.655   0.328  -3.125  0.00  0.00    +0.004 A 
ATOM     35  C   UNL     1      -5.678   1.657  -2.742  0.00  0.00    +0.000 A 
ATOM     36  C   UNL     1      -4.493   2.339  -2.536  0.00  0.00    +0.004 A 
ATOM     37  C   UNL     1      -3.284   1.695  -2.714  0.00  0.00    +0.045 A 
ENDBRANCH  31  32
ENDBRANCH  30  31
ENDBRANCH  29  30
ENDBRANCH  28  29
ENDBRANCH  26  28
ENDBRANCH  12  26
TORSDOF 9
