REMARK  Name = ZINC23992587
REMARK  7 active torsions:
REMARK  status: ('A' for Active; 'I' for Inactive)
REMARK    1  A    between atoms: C_3  and  N_14
REMARK    2  A    between atoms: C_4  and  N_11
REMARK    3  A    between atoms: C_6  and  C_7
REMARK    4  A    between atoms: N_17  and  C_20
REMARK    5  A    between atoms: C_20  and  C_21
REMARK    6  A    between atoms: N_23  and  C_24
REMARK    7  A    between atoms: C_25  and  C_32
REMARK                            x       y       z     vdW  Elec       q    Type
REMARK                         _______ _______ _______ _____ _____    ______ ____
ROOT
ATOM      1  N   UNL     1       4.877  -0.045   0.901  0.00  0.00    -0.332 N 
ATOM      2  C   UNL     1       4.814   0.724  -0.350  0.00  0.00    +0.086 C 
ATOM      3  C   UNL     1       3.676   1.744  -0.262  0.00  0.00    -0.059 C 
ATOM      4  N   UNL     1       2.410   1.040  -0.015  0.00  0.00    +0.387 N 
ATOM      5  C   UNL     1       2.473   0.271   1.235  0.00  0.00    -0.059 C 
ATOM      6  C   UNL     1       3.611  -0.748   1.147  0.00  0.00    +0.086 C 
ATOM      7  H   UNL     1       2.248   0.333  -0.842  0.00  0.00    -0.081 HD
ENDROOT
BRANCH   1  10
ATOM      8  C   UNL     1       7.086  -2.805  -0.102  0.00  0.00    +0.014 A 
ATOM      9  C   UNL     1       6.023  -1.924  -0.090  0.00  0.00    +0.026 A 
ATOM     10  C   UNL     1       5.951  -0.938   0.886  0.00  0.00    +0.060 A 
ATOM     11  C   UNL     1       6.952  -0.839   1.843  0.00  0.00    +0.148 A 
ATOM     12  C   UNL     1       8.009  -1.727   1.829  0.00  0.00    +0.047 A 
ATOM     13  C   UNL     1       8.078  -2.707   0.856  0.00  0.00    +0.057 A 
BRANCH  13  14
ATOM     14  C   UNL     1       9.237  -3.671   0.839  0.00  0.00    +0.417 C 
ATOM     15  F   UNL     1       9.087  -4.562  -0.229  0.00  0.00    -0.166 F 
ATOM     16  F   UNL     1      10.432  -2.960   0.690  0.00  0.00    -0.166 F 
ATOM     17  F   UNL     1       9.267  -4.385   2.042  0.00  0.00    -0.166 F 
ENDBRANCH  13  14
BRANCH  11  18
ATOM     18  N   UNL     1       6.883   0.214   2.882  0.00  0.00    +0.058 N 
ATOM     19  O   UNL     1       7.761   0.300   3.721  0.00  0.00    -0.126 OA
ATOM     20  O   UNL     1       5.947   0.994   2.897  0.00  0.00    -0.126 OA
ENDBRANCH  11  18
ENDBRANCH   1  10
BRANCH   4  21
ATOM     21  C   UNL     1       1.280   1.980   0.001  0.00  0.00    +0.019 C 
BRANCH  21  22
ATOM     22  C   UNL     1      -0.014   1.209   0.009  0.00  0.00    +0.201 C 
ATOM     23  O   UNL     1       0.002  -0.004   0.002  0.00  0.00    -0.278 OA
ATOM     24  N   UNL     1      -1.191   1.867   0.018  0.00  0.00    -0.281 N 
ATOM     25  H   UNL     1      -1.206   2.966   0.024  0.00  0.00    +0.155 HD
BRANCH  24  26
ATOM     26  C   UNL     1      -2.382   1.157   0.020  0.00  0.00    +0.084 A 
ATOM     27  C   UNL     1      -3.676   1.649   0.034  0.00  0.00    +0.068 A 
ATOM     28  C   UNL     1      -4.769   0.677   0.029  0.00  0.00    -0.023 A 
ATOM     29  C   UNL     1      -4.388  -0.613   0.019  0.00  0.00    -0.004 A 
ATOM     30  S   UNL     1      -2.612  -0.558   0.012  0.00  0.00    -0.077 S 
ATOM     31  C   UNL     1      -5.565  -1.549   0.017  0.00  0.00    +0.043 C 
ATOM     32  C   UNL     1      -6.761  -0.670  -0.411  0.00  0.00    +0.010 C 
ATOM     33  C   UNL     1      -6.298   0.730   0.038  0.00  0.00    +0.037 C 
BRANCH  27  34
ATOM     34  C   UNL     1      -3.941   3.091   0.050  0.00  0.00    +0.244 C 
ATOM     35  O   UNL     1      -4.059   3.699  -0.997  0.00  0.00    -0.270 OA
ATOM     36  N   UNL     1      -4.053   3.742   1.225  0.00  0.00    -0.325 N 
ATOM     37  H   UNL     1      -4.252   4.824   1.237  0.00  0.00    +0.145 HD
ATOM     38  H   UNL     1      -3.946   3.192   2.171  0.00  0.00    +0.145 HD
ENDBRANCH  27  34
ENDBRANCH  24  26
ENDBRANCH  21  22
ENDBRANCH   4  21
TORSDOF 7
