REMARK  Name = ZINC36497054
REMARK  14 active torsions:
REMARK  status: ('A' for Active; 'I' for Inactive)
REMARK    1  A    between atoms: C_1  and  C_2
REMARK    2  A    between atoms: C_2  and  C_3
REMARK    3  A    between atoms: C_3  and  C_5
REMARK    4  A    between atoms: C_3  and  C_11
REMARK    5  A    between atoms: N_13  and  C_14
REMARK    6  A    between atoms: N_13  and  C_20
REMARK    7  A    between atoms: C_14  and  C_15
REMARK    8  A    between atoms: C_20  and  C_22
REMARK    9  A    between atoms: C_20  and  C_32
REMARK   10  A    between atoms: C_24  and  N_29
REMARK   11  A    between atoms: N_34  and  C_35
REMARK   12  A    between atoms: C_35  and  C_36
REMARK   13  A    between atoms: C_35  and  C_37
REMARK   14  A    between atoms: C_35  and  C_38
REMARK                            x       y       z     vdW  Elec       q    Type
REMARK                         _______ _______ _______ _____ _____    ______ ____
ROOT
ATOM      1  C   UNL     1      -0.366  -3.997  -0.829  0.00  0.00    +0.194 C 
ENDROOT
BRANCH   1   2
ATOM      2  C   UNL     1       0.365  -4.040   0.488  0.00  0.00    +0.002 A 
ATOM      3  C   UNL     1       1.687  -4.443   0.532  0.00  0.00    +0.040 A 
ATOM      4  C   UNL     1       2.358  -4.482   1.740  0.00  0.00    +0.127 A 
ATOM      5  C   UNL     1       1.708  -4.119   2.905  0.00  0.00    +0.034 A 
ATOM      6  C   UNL     1       0.387  -3.715   2.862  0.00  0.00    +0.022 A 
ATOM      7  C   UNL     1      -0.284  -3.670   1.652  0.00  0.00    +0.047 A 
ATOM      8 CL   UNL     1      -1.941  -3.156   1.597  0.00  0.00    -0.083 Cl
BRANCH   4   9
ATOM      9  N   UNL     1       3.773  -4.915   1.786  0.00  0.00    +0.056 N 
ATOM     10  O   UNL     1       4.370  -5.141   0.759  0.00  0.00    -0.126 OA
ATOM     11  O   UNL     1       4.331  -5.042   2.851  0.00  0.00    -0.126 OA
ENDBRANCH   4   9
ENDBRANCH   1   2
BRANCH   1  12
ATOM     12  C   UNL     1       0.430  -4.741  -1.870  0.00  0.00    +0.239 C 
ATOM     13  O   UNL     1       0.886  -4.147  -2.824  0.00  0.00    -0.273 OA
ATOM     14  N   UNL     1       0.635  -6.067  -1.741  0.00  0.00    -0.309 N 
ATOM     15  H   UNL     1       0.213  -6.555  -1.016  0.00  0.00    +0.149 HD
BRANCH  14  16
ATOM     16  C   UNL     1       1.495  -6.771  -2.695  0.00  0.00    +0.026 C 
ATOM     17  C   UNL     1       2.903  -6.173  -2.651  0.00  0.00    +0.031 C 
ATOM     18  C   UNL     1       1.559  -8.255  -2.326  0.00  0.00    +0.031 C 
ATOM     19  C   UNL     1       0.921  -6.621  -4.106  0.00  0.00    +0.031 C 
ENDBRANCH  14  16
ENDBRANCH   1  12
BRANCH   1  22
ATOM     20  C   UNL     1       0.528  -1.779  -1.294  0.00  0.00    +0.224 C 
ATOM     21  O   UNL     1       1.642  -2.215  -1.096  0.00  0.00    -0.275 OA
ATOM     22  N   UNL     1      -0.537  -2.604  -1.248  0.00  0.00    -0.278 N 
BRANCH  20  23
ATOM     23  C   UNL     1       0.335  -0.314  -1.592  0.00  0.00    +0.105 C 
BRANCH  23  24
ATOM     24  C   UNL     1       1.535   0.210  -2.337  0.00  0.00    -0.036 A 
ATOM     25  C   UNL     1       2.789   0.145  -1.760  0.00  0.00    +0.004 A 
ATOM     26  C   UNL     1       3.890   0.626  -2.443  0.00  0.00    +0.000 A 
ATOM     27  C   UNL     1       3.737   1.171  -3.704  0.00  0.00    +0.000 A 
ATOM     28  C   UNL     1       2.483   1.236  -4.282  0.00  0.00    +0.000 A 
ATOM     29  C   UNL     1       1.383   0.751  -3.600  0.00  0.00    +0.004 A 
ENDBRANCH  23  24
BRANCH  23  31
ATOM     30  C   UNL     1      -0.202   1.908  -0.584  0.00  0.00    +0.005 C 
ATOM     31  C   UNL     1       0.172   0.456  -0.280  0.00  0.00    +0.014 C 
ENDBRANCH  23  31
ENDBRANCH  20  23
BRANCH  22  32
ATOM     32  C   UNL     1      -1.865  -2.107  -1.617  0.00  0.00    +0.183 C 
BRANCH  32  33
ATOM     33  C   UNL     1      -2.144  -2.445  -3.059  0.00  0.00    +0.122 A 
ATOM     34  C   UNL     1      -2.819  -3.523  -3.497  0.00  0.00    +0.046 A 
ATOM     35  C   UNL     1      -2.845  -3.444  -4.909  0.00  0.00    +0.041 A 
ATOM     36  C   UNL     1      -2.185  -2.322  -5.248  0.00  0.00    +0.195 A 
ATOM     37  O   UNL     1      -1.768  -1.718  -4.123  0.00  0.00    -0.466 OA
ENDBRANCH  32  33
ENDBRANCH  22  32
ENDBRANCH   1  22
TORSDOF 10
