REMARK  Name = ZINC14991851
REMARK  9 active torsions:
REMARK  status: ('A' for Active; 'I' for Inactive)
REMARK    1  A    between atoms: C_1  and  C_2
REMARK    2  A    between atoms: C_2  and  O_3
REMARK    3  A    between atoms: O_3  and  C_4
REMARK    4  A    between atoms: C_12  and  C_14
REMARK    5  A    between atoms: C_22  and  C_24
REMARK    6  A    between atoms: C_22  and  C_25
REMARK    7  A    between atoms: C_22  and  N_72
REMARK    8  A    between atoms: C_25  and  C_26
REMARK    9  A    between atoms: C_26  and  C_27
REMARK                            x       y       z     vdW  Elec       q    Type
REMARK                         _______ _______ _______ _____ _____    ______ ____
ROOT
ATOM      1  C   UNL     1      -1.769   0.158  -4.221  0.00  0.00    +0.082 C 
ATOM      2  C   UNL     1      -2.117   1.649  -4.213  0.00  0.00    +0.020 C 
ATOM      3  C   UNL     1      -1.311   1.045  -3.064  0.00  0.00    -0.021 C 
ATOM      4  C   UNL     1      -2.011   0.873  -1.712  0.00  0.00    -0.011 C 
ATOM      5  C   UNL     1      -1.199  -0.109  -0.861  0.00  0.00    -0.078 C 
ATOM      6  C   UNL     1       0.862   0.377  -2.050  0.00  0.00    -0.078 C 
ATOM      7  C   UNL     1       0.179   1.390  -2.975  0.00  0.00    -0.011 C 
ATOM      8  N   UNL     1       0.184   0.400  -0.735  0.00  0.00    +0.381 N 
ATOM      9  H   UNL     1       0.152   1.369  -0.395  0.00  0.00    -0.081 HD
ENDROOT
BRANCH   1  18
ATOM     10  C   UNL     1      -1.685  -5.771  -2.526  0.00  0.00    +0.403 C 
ATOM     11  O   UNL     1      -2.584  -6.559  -2.308  0.00  0.00    -0.226 OA
ATOM     12  N   UNL     1      -1.946  -4.451  -2.592  0.00  0.00    -0.264 N 
ATOM     13  C   UNL     1      -3.314  -3.949  -2.401  0.00  0.00    +0.130 C 
ATOM     14  C   UNL     1      -3.701  -3.103  -3.620  0.00  0.00    +0.127 C 
ATOM     15  N   UNL     1      -2.623  -2.139  -3.884  0.00  0.00    -0.298 N 
ATOM     16  C   UNL     1      -1.256  -2.641  -4.081  0.00  0.00    +0.127 C 
ATOM     17  C   UNL     1      -0.869  -3.487  -2.856  0.00  0.00    +0.130 C 
ATOM     18  C   UNL     1      -2.885  -0.818  -3.950  0.00  0.00    +0.219 C 
ATOM     19  O   UNL     1      -4.018  -0.416  -3.791  0.00  0.00    -0.275 OA
BRANCH  10  20
ATOM     20  O   UNL     1      -0.427  -6.218  -2.703  0.00  0.00    -0.451 OA
BRANCH  20  22
ATOM     21  C   UNL     1       1.261  -7.967  -2.845  0.00  0.00    +0.048 C 
ATOM     22  C   UNL     1      -0.219  -7.652  -2.619  0.00  0.00    +0.230 C 
ENDBRANCH  20  22
ENDBRANCH  10  20
ENDBRANCH   1  18
BRANCH   8  23
ATOM     23  C   UNL     1       0.937  -0.422   0.234  0.00  0.00    -0.071 C 
ATOM     24  C   UNL     1       0.326  -0.228   1.623  0.00  0.00    -0.013 C 
BRANCH  23  25
ATOM     25  C   UNL     1       2.396   0.038   0.249  0.00  0.00    -0.011 C 
BRANCH  25  26
ATOM     26  C   UNL     1       3.191  -0.821   1.234  0.00  0.00    +0.036 C 
BRANCH  26  27
ATOM     27  C   UNL     1       4.649  -0.443   1.167  0.00  0.00    -0.022 A 
ATOM     28  C   UNL     1       5.596  -1.044   0.430  0.00  0.00    +0.087 A 
ATOM     29  N   UNL     1       6.801  -0.426   0.625  0.00  0.00    -0.360 N 
ATOM     30  H   UNL     1       7.634  -0.682   0.199  0.00  0.00    +0.165 HD
ATOM     31  C   UNL     1       6.655   0.614   1.515  0.00  0.00    +0.047 A 
ATOM     32  C   UNL     1       5.299   0.653   1.889  0.00  0.00    +0.003 A 
ATOM     33  C   UNL     1       4.854   1.614   2.799  0.00  0.00    +0.010 A 
ATOM     34  C   UNL     1       5.738   2.521   3.313  0.00  0.00    +0.001 A 
ATOM     35  C   UNL     1       7.075   2.491   2.943  0.00  0.00    +0.002 A 
ATOM     36  C   UNL     1       7.536   1.547   2.051  0.00  0.00    +0.026 A 
ENDBRANCH  26  27
ENDBRANCH  25  26
ENDBRANCH  23  25
ENDBRANCH   8  23
TORSDOF 7
