REMARK  Name = ZINC53113244
REMARK  7 active torsions:
REMARK  status: ('A' for Active; 'I' for Inactive)
REMARK    1  A    between atoms: C_1  and  C_2
REMARK    2  A    between atoms: C_7  and  C_9
REMARK    3  A    between atoms: C_7  and  N_11
REMARK    4  A    between atoms: C_9  and  O_10
REMARK    5  A    between atoms: N_11  and  S_12
REMARK    6  A    between atoms: S_12  and  C_15
REMARK    7  A    between atoms: C_17  and  N_22
REMARK                            x       y       z     vdW  Elec       q    Type
REMARK                         _______ _______ _______ _____ _____    ______ ____
ROOT
ATOM      1  S   UNL     1      -1.104  -3.775   1.906  0.00  0.00    +0.060 S 
ATOM      2  O   UNL     1      -0.345  -4.455   2.896  0.00  0.00    -0.153 OA
ATOM      3  O   UNL     1      -2.482  -3.474   2.075  0.00  0.00    -0.153 OA
ENDROOT
BRANCH   1   4
ATOM      4  C   UNL     1      -0.975  -4.729   0.430  0.00  0.00    +0.125 A 
ATOM      5  C   UNL     1      -0.183  -5.860   0.406  0.00  0.00    +0.052 A 
ATOM      6  C   UNL     1      -0.083  -6.612  -0.757  0.00  0.00    +0.026 A 
ATOM      7  C   UNL     1      -0.779  -6.223  -1.895  0.00  0.00    +0.024 A 
ATOM      8  C   UNL     1      -1.570  -5.091  -1.865  0.00  0.00    +0.024 A 
ATOM      9  C   UNL     1      -1.672  -4.347  -0.703  0.00  0.00    +0.067 A 
ATOM     10 CL   UNL     1      -2.672  -2.928  -0.668  0.00  0.00    -0.082 Cl
BRANCH   6  11
ATOM     11  N   UNL     1       0.718  -7.756  -0.784  0.00  0.00    -0.358 N 
ATOM     12  H   UNL     1       1.205  -8.027   0.010  0.00  0.00    +0.142 HD
ATOM     13  H   UNL     1       0.788  -8.281  -1.598  0.00  0.00    +0.142 HD
ENDBRANCH   6  11
ENDBRANCH   1   4
BRANCH   1  14
ATOM     14  N   UNL     1      -0.336  -2.335   1.627  0.00  0.00    -0.182 NA
ATOM     15  H   UNL     1      -0.829  -1.502   1.690  0.00  0.00    +0.149 HD
BRANCH  14  21
ATOM     16  C   UNL     1       1.363   1.422   0.416  0.00  0.00    +0.007 C 
ATOM     17  C   UNL     1       0.839  -0.014   0.353  0.00  0.00    -0.012 C 
ATOM     18  C   UNL     1       1.030  -0.565  -1.061  0.00  0.00    +0.003 C 
ATOM     19  C   UNL     1       0.506  -2.001  -1.125  0.00  0.00    +0.002 C 
ATOM     20  C   UNL     1       1.279  -2.870  -0.131  0.00  0.00    +0.026 C 
ATOM     21  C   UNL     1       1.089  -2.319   1.284  0.00  0.00    +0.063 C 
ATOM     22  C   UNL     1       1.613  -0.883   1.347  0.00  0.00    +0.029 C 
BRANCH  21  23
ATOM     23  C   UNL     1       1.862  -3.188   2.278  0.00  0.00    +0.179 C 
BRANCH  23  24
ATOM     24  O   UNL     1       1.588  -4.566   2.019  0.00  0.00    -0.393 OA
ATOM     25  H   UNL     1       1.987  -5.173   2.658  0.00  0.00    +0.209 HD
ENDBRANCH  23  24
ENDBRANCH  21  23
ENDBRANCH  14  21
ENDBRANCH   1  14
TORSDOF 6
