REMARK  Name = ZINC04685857
REMARK  3 active torsions:
REMARK  status: ('A' for Active; 'I' for Inactive)
REMARK    1  A    between atoms: C_1  and  C_2
REMARK    2  A    between atoms: C_23  and  C_27
REMARK    3  A    between atoms: C_23  and  C_28
REMARK                            x       y       z     vdW  Elec       q    Type
REMARK                         _______ _______ _______ _____ _____    ______ ____
ROOT
ATOM      1  C   UNL     1      -0.018   1.503   0.010  0.00  0.00    +0.092 C 
ATOM      2  C   UNL     1       0.002  -0.004   0.002  0.00  0.00    +0.169 C 
ATOM      3  O   UNL     1       0.022  -0.681   1.160  0.00  0.00    -0.292 OA
ATOM      4  C   UNL     1       0.000  -0.687  -1.195  0.00  0.00    +0.123 C 
ATOM      5  C   UNL     1       0.012  -2.150  -1.368  0.00  0.00    +0.192 C 
ATOM      6  C   UNL     1       0.169  -2.343  -2.843  0.00  0.00    +0.156 C 
ATOM      7  C   UNL     1      -0.683  -3.378  -3.503  0.00  0.00    +0.055 C 
ATOM      8  C   UNL     1      -1.587  -4.285  -2.758  0.00  0.00    -0.016 A 
ATOM      9  C   UNL     1      -1.690  -4.841  -1.565  0.00  0.00    +0.087 A 
ATOM     10  N   UNL     1      -2.816  -5.645  -1.496  0.00  0.00    -0.360 N 
ATOM     11  H   UNL     1      -3.089  -6.150  -0.714  0.00  0.00    +0.165 HD
ATOM     12  C   UNL     1      -3.486  -5.625  -2.682  0.00  0.00    +0.047 A 
ATOM     13  C   UNL     1      -2.762  -4.765  -3.514  0.00  0.00    +0.006 A 
ATOM     14  C   UNL     1      -3.104  -4.420  -4.827  0.00  0.00    -0.038 A 
ATOM     15  C   UNL     1      -4.220  -5.016  -5.318  0.00  0.00    +0.004 A 
ATOM     16  C   UNL     1      -4.958  -5.892  -4.522  0.00  0.00    +0.002 A 
ATOM     17  C   UNL     1      -4.632  -6.218  -3.213  0.00  0.00    +0.026 A 
ATOM     18  C   UNL     1      -2.220  -3.410  -5.529  0.00  0.00    +0.042 C 
ATOM     19  C   UNL     1      -1.615  -2.555  -4.439  0.00  0.00    +0.026 C 
ATOM     20  C   UNL     1      -0.725  -1.369  -4.805  0.00  0.00    +0.037 C 
ATOM     21  N   UNL     1      -0.197  -1.041  -3.458  0.00  0.00    -0.281 N 
ATOM     22  C   UNL     1      -0.021  -0.089  -2.544  0.00  0.00    +0.254 C 
ATOM     23  O   UNL     1       0.106   1.096  -2.786  0.00  0.00    -0.270 OA
ATOM     24  C   UNL     1       0.389  -1.786  -5.768  0.00  0.00    +0.032 C 
ATOM     25  C   UNL     1      -1.546  -0.211  -5.376  0.00  0.00    +0.032 C 
ATOM     26  O   UNL     1      -0.082  -3.003  -0.509  0.00  0.00    -0.290 OA
ENDROOT
TORSDOF 0
