REMARK  Name = ZINC14998683
REMARK  10 active torsions:
REMARK  status: ('A' for Active; 'I' for Inactive)
REMARK    1  A    between atoms: C_1  and  C_2
REMARK    2  A    between atoms: C_3  and  C_7
REMARK    3  A    between atoms: C_7  and  N_69
REMARK    4  A    between atoms: C_8  and  N_69
REMARK    5  A    between atoms: C_9  and  C_10
REMARK    6  A    between atoms: C_9  and  N_69
REMARK    7  A    between atoms: C_12  and  C_30
REMARK    8  A    between atoms: C_15  and  O_16
REMARK    9  A    between atoms: O_16  and  C_17
REMARK   10  A    between atoms: C_17  and  C_18
REMARK                            x       y       z     vdW  Elec       q    Type
REMARK                         _______ _______ _______ _____ _____    ______ ____
ROOT
ATOM      1  C   UNL     1       0.493   8.334  -3.497  0.00  0.00    -0.022 A 
ATOM      2  C   UNL     1       0.338   9.703  -3.450  0.00  0.00    +0.013 A 
ATOM      3  C   UNL     1      -0.486  10.277  -2.485  0.00  0.00    -0.017 A 
ATOM      4  C   UNL     1      -1.152   9.464  -1.568  0.00  0.00    +0.012 A 
ATOM      5  C   UNL     1      -0.998   8.095  -1.624  0.00  0.00    +0.046 A 
ATOM      6  C   UNL     1      -0.171   7.527  -2.583  0.00  0.00    +0.123 A 
ENDROOT
BRANCH   3   7
ATOM      7  C   UNL     1      -0.656  11.750  -2.432  0.00  0.00    -0.014 A 
ATOM      8  C   UNL     1       0.009  12.562  -3.348  0.00  0.00    +0.012 A 
ATOM      9  C   UNL     1      -0.149  13.932  -3.299  0.00  0.00    +0.050 A 
ATOM     10  C   UNL     1      -0.970  14.505  -2.339  0.00  0.00    +0.166 A 
ATOM     11  C   UNL     1      -1.638  13.697  -1.421  0.00  0.00    +0.167 A 
ATOM     12  C   UNL     1      -1.485  12.323  -1.470  0.00  0.00    +0.058 A 
ATOM     13  O   UNL     1      -2.373  14.495  -0.592  0.00  0.00    -0.453 OA
ATOM     14  C   UNL     1      -1.830  15.819  -0.751  0.00  0.00    +0.466 C 
ATOM     15  O   UNL     1      -1.288  15.808  -2.085  0.00  0.00    -0.453 OA
ENDBRANCH   3   7
BRANCH   1  16
ATOM     16  C   UNL     1       1.385   7.712  -4.541  0.00  0.00    -0.039 C 
BRANCH  16  18
ATOM     17  C   UNL     1      -0.282   6.085  -5.199  0.00  0.00    -0.095 C 
ATOM     18  N   UNL     1       0.546   7.221  -5.654  0.00  0.00    +0.384 N 
ATOM     19  H   UNL     1      -0.071   7.980  -5.966  0.00  0.00    -0.081 HD
BRANCH  18  20
ATOM     20  C   UNL     1       1.401   6.803  -6.785  0.00  0.00    -0.017 C 
BRANCH  20  23
ATOM     21  C   UNL     1       0.526   8.919  -8.948  0.00  0.00    +0.071 C 
ATOM     22  C   UNL     1       0.134   7.464  -8.945  0.00  0.00    +0.103 A 
ATOM     23  C   UNL     1       0.525   6.518  -7.977  0.00  0.00    +0.091 A 
ATOM     24  N   UNL     1       0.017   5.360  -8.276  0.00  0.00    -0.056 NA
ATOM     25  O   UNL     1      -0.741   5.522  -9.465  0.00  0.00    -0.242 OA
ATOM     26  N   UNL     1      -0.618   6.887  -9.834  0.00  0.00    -0.054 NA
ENDBRANCH  20  23
ENDBRANCH  18  20
ENDBRANCH  16  18
ENDBRANCH   1  16
BRANCH   6  27
ATOM     27  O   UNL     1      -0.016   6.178  -2.632  0.00  0.00    -0.483 OA
BRANCH  27  28
ATOM     28  C   UNL     1      -0.729   5.408  -1.662  0.00  0.00    +0.324 C 
BRANCH  28  29
ATOM     29  C   UNL     1      -0.436   3.944  -1.869  0.00  0.00    +0.253 C 
ATOM     30  O   UNL     1       0.309   3.595  -2.760  0.00  0.00    -0.272 OA
ATOM     31  N   UNL     1      -1.003   3.023  -1.064  0.00  0.00    -0.294 N 
ATOM     32  C   UNL     1      -0.739   1.585  -1.240  0.00  0.00    +0.113 C 
ATOM     33  C   UNL     1      -0.013   1.086   0.008  0.00  0.00    +0.054 C 
ATOM     34  C   UNL     1      -0.704   1.565   1.257  0.00  0.00    -0.041 A 
ATOM     35  C   UNL     1      -0.443   0.883   2.440  0.00  0.00    +0.004 A 
ATOM     36  C   UNL     1      -1.036   1.276   3.621  0.00  0.00    +0.000 A 
ATOM     37  C   UNL     1      -1.898   2.357   3.632  0.00  0.00    +0.000 A 
ATOM     38  C   UNL     1      -2.161   3.033   2.461  0.00  0.00    +0.005 A 
ATOM     39  C   UNL     1      -1.568   2.636   1.270  0.00  0.00    -0.027 A 
ATOM     40  C   UNL     1      -1.908   3.413   0.022  0.00  0.00    +0.143 C 
ENDBRANCH  28  29
ENDBRANCH  27  28
ENDBRANCH   6  27
TORSDOF 8
