REMARK  Name = ZINC16041247
REMARK  7 active torsions:
REMARK  status: ('A' for Active; 'I' for Inactive)
REMARK    1  A    between atoms: C_3  and  N_29
REMARK    2  A    between atoms: C_6  and  C_7
REMARK    3  A    between atoms: N_9  and  C_10
REMARK    4  A    between atoms: C_10  and  C_12
REMARK    5  A    between atoms: C_10  and  O_16
REMARK    6  A    between atoms: O_16  and  C_17
REMARK    7  A    between atoms: C_17  and  C_18
REMARK                            x       y       z     vdW  Elec       q    Type
REMARK                         _______ _______ _______ _____ _____    ______ ____
ROOT
ATOM      1  C   UNL     1      -6.310   6.073   0.068  0.00  0.00    +0.257 C 
ENDROOT
BRANCH   1   4
ATOM      2  C   UNL     1      -5.013   4.010   0.050  0.00  0.00    +0.246 C 
ATOM      3  O   UNL     1      -6.058   3.388   0.051  0.00  0.00    -0.270 OA
ATOM      4  N   UNL     1      -5.032   5.358   0.057  0.00  0.00    -0.283 N 
ATOM      5  H   UNL     1      -4.198   5.854   0.056  0.00  0.00    +0.152 HD
BRANCH   2  11
ATOM      6  C   UNL     1      -3.700   1.893   0.030  0.00  0.00    +0.015 A 
ATOM      7  C   UNL     1      -2.493   1.225   0.021  0.00  0.00    +0.033 A 
ATOM      8  C   UNL     1      -1.306   1.936   0.019  0.00  0.00    +0.126 A 
ATOM      9  C   UNL     1      -1.321   3.320   0.032  0.00  0.00    +0.033 A 
ATOM     10  C   UNL     1      -2.522   3.999   0.037  0.00  0.00    +0.015 A 
ATOM     11  C   UNL     1      -3.723   3.288   0.038  0.00  0.00    +0.037 A 
BRANCH   8  12
ATOM     12  N   UNL     1      -0.014   1.214   0.009  0.00  0.00    +0.056 N 
ATOM     13  O   UNL     1       0.002  -0.004   0.002  0.00  0.00    -0.126 OA
ATOM     14  O   UNL     1       1.032   1.837   0.002  0.00  0.00    -0.126 OA
ENDBRANCH   8  12
ENDBRANCH   2  11
ENDBRANCH   1   4
BRANCH   1  15
ATOM     15  C   UNL     1      -6.221   7.291  -0.852  0.00  0.00    +0.233 C 
ATOM     16 CL   UNL     1      -4.913   8.389  -0.272  0.00  0.00    -0.079 Cl
ATOM     17 CL   UNL     1      -5.849   6.750  -2.532  0.00  0.00    -0.079 Cl
ATOM     18 CL   UNL     1      -7.794   8.172  -0.839  0.00  0.00    -0.079 Cl
ENDBRANCH   1  15
BRANCH   1  19
ATOM     19  O   UNL     1      -6.604   6.502   1.399  0.00  0.00    -0.354 OA
BRANCH  19  20
ATOM     20  C   UNL     1      -6.932   5.437   2.294  0.00  0.00    +0.164 C 
BRANCH  20  21
ATOM     21  C   UNL     1      -7.227   6.010   3.682  0.00  0.00    +0.001 C 
ATOM     22  C   UNL     1      -8.481   6.883   3.615  0.00  0.00    +0.002 C 
ATOM     23  C   UNL     1      -9.667   6.009   3.196  0.00  0.00    -0.018 C 
ATOM     24  C   UNL     1      -9.832   4.881   4.214  0.00  0.00    -0.078 C 
ATOM     25  C   UNL     1      -7.446   4.860   4.671  0.00  0.00    -0.063 C 
ATOM     26  C   UNL     1      -6.187   3.987   4.672  0.00  0.00    -0.015 C 
ATOM     27  C   UNL     1      -6.379   2.799   5.615  0.00  0.00    -0.003 C 
ATOM     28  C   UNL     1      -7.606   2.003   5.159  0.00  0.00    -0.019 C 
ATOM     29  C   UNL     1      -8.825   2.924   5.173  0.00  0.00    -0.078 C 
ATOM     30  N   UNL     1      -8.615   4.050   4.244  0.00  0.00    +0.382 N 
ATOM     31  H   UNL     1      -8.437   3.681   3.302  0.00  0.00    -0.081 HD
ENDBRANCH  20  21
ENDBRANCH  19  20
ENDBRANCH   1  19
TORSDOF 7
