REMARK  Name = ZINC41642241
REMARK  10 active torsions:
REMARK  status: ('A' for Active; 'I' for Inactive)
REMARK    1  A    between atoms: C_1  and  N_2
REMARK    2  A    between atoms: N_2  and  C_3
REMARK    3  A    between atoms: N_2  and  C_4
REMARK    4  A    between atoms: C_4  and  C_6
REMARK    5  A    between atoms: C_4  and  C_23
REMARK    6  A    between atoms: C_6  and  N_7
REMARK    7  A    between atoms: C_8  and  C_10
REMARK    8  A    between atoms: N_12  and  C_13
REMARK    9  A    between atoms: C_18  and  C_19
REMARK   10  A    between atoms: C_19  and  C_20
REMARK                            x       y       z     vdW  Elec       q    Type
REMARK                         _______ _______ _______ _____ _____    ______ ____
ROOT
ATOM      1  N   UNL     1      -0.946  -2.605   1.187  0.00  0.00    -0.309 N 
ATOM      2  C   UNL     1      -0.851  -3.943   1.313  0.00  0.00    +0.299 C 
ATOM      3  O   UNL     1      -1.262  -4.667   0.430  0.00  0.00    -0.265 OA
ATOM      4  H   UNL     1      -0.617  -2.026   1.893  0.00  0.00    +0.149 HD
ENDROOT
BRANCH   2   5
ATOM      5  C   UNL     1      -0.240  -4.536   2.541  0.00  0.00    +0.303 C 
ATOM      6  O   UNL     1       0.171  -3.812   3.424  0.00  0.00    -0.265 OA
ATOM      7  N   UNL     1      -0.145  -5.875   2.667  0.00  0.00    -0.277 N 
ATOM      8  H   UNL     1      -0.424  -6.451   1.939  0.00  0.00    +0.155 HD
BRANCH   7   9
ATOM      9  C   UNL     1       0.354  -6.431   3.848  0.00  0.00    +0.037 A 
ATOM     10  C   UNL     1       1.221  -5.699   4.650  0.00  0.00    +0.023 A 
ATOM     11  C   UNL     1       1.712  -6.253   5.816  0.00  0.00    +0.002 A 
ATOM     12  C   UNL     1       1.343  -7.533   6.185  0.00  0.00    +0.000 A 
ATOM     13  C   UNL     1       0.481  -8.264   5.388  0.00  0.00    +0.006 A 
ATOM     14  C   UNL     1      -0.019  -7.715   4.224  0.00  0.00    -0.017 A 
BRANCH  14  15
ATOM     15  C   UNL     1      -0.965  -8.510   3.361  0.00  0.00    +0.132 C 
BRANCH  15  16
ATOM     16  C   UNL     1      -0.186  -9.210   2.277  0.00  0.00    +0.215 C 
ATOM     17  O   UNL     1       1.018  -9.077   2.212  0.00  0.00    -0.276 OA
ATOM     18  N   UNL     1      -0.828  -9.984   1.379  0.00  0.00    -0.329 N 
ATOM     19  H   UNL     1      -1.791 -10.091   1.431  0.00  0.00    +0.145 HD
ATOM     20  H   UNL     1      -0.327 -10.435   0.682  0.00  0.00    +0.145 HD
ENDBRANCH  15  16
ENDBRANCH  14  15
ENDBRANCH   7   9
ENDBRANCH   2   5
BRANCH   1  21
ATOM     21  C   UNL     1      -1.545  -2.023  -0.017  0.00  0.00    +0.089 C 
BRANCH  21  22
ATOM     22  C   UNL     1      -1.401  -0.501   0.026  0.00  0.00    -0.049 C 
BRANCH  22  23
ATOM     23  C   UNL     1       0.071  -0.122  -0.155  0.00  0.00    -0.023 C 
ATOM     24  C   UNL     1       0.900  -0.749   0.967  0.00  0.00    +0.002 C 
ATOM     25  C   UNL     1       2.372  -0.371   0.786  0.00  0.00    +0.000 C 
ATOM     26  C   UNL     1       2.869  -0.888  -0.566  0.00  0.00    +0.000 C 
ATOM     27  C   UNL     1       2.039  -0.261  -1.688  0.00  0.00    +0.000 C 
ATOM     28  C   UNL     1       0.567  -0.639  -1.507  0.00  0.00    +0.002 C 
ENDBRANCH  22  23
BRANCH  22  30
ATOM     29  C   UNL     1      -1.848   1.468   1.321  0.00  0.00    -0.096 C 
ATOM     30  N   UNL     1      -1.879  -0.000   1.322  0.00  0.00    +0.379 N 
ATOM     31  C   UNL     1      -3.256  -0.460   1.546  0.00  0.00    -0.096 C 
ATOM     32  H   UNL     1      -1.284  -0.349   2.058  0.00  0.00    -0.082 HD
ENDBRANCH  22  30
ENDBRANCH  21  22
ENDBRANCH   1  21
TORSDOF 8
