REMARK  Name = ZINC36638089
REMARK  9 active torsions:
REMARK  status: ('A' for Active; 'I' for Inactive)
REMARK    1  A    between atoms: C_1  and  C_2
REMARK    2  A    between atoms: C_2  and  N_3
REMARK    3  A    between atoms: N_3  and  C_4
REMARK    4  A    between atoms: N_3  and  C_6
REMARK    5  A    between atoms: C_4  and  C_5
REMARK    6  A    between atoms: C_6  and  C_7
REMARK    7  A    between atoms: C_7  and  N_8
REMARK    8  A    between atoms: C_19  and  C_21
REMARK    9  A    between atoms: C_21  and  C_22
REMARK                            x       y       z     vdW  Elec       q    Type
REMARK                         _______ _______ _______ _____ _____    ______ ____
ROOT
ATOM      1  N   UNL     1      -2.896  -4.091   0.189  0.00  0.00    -0.252 N 
ATOM      2  C   UNL     1      -3.057  -4.638   1.452  0.00  0.00    +0.168 A 
ATOM      3  N   UNL     1      -3.232  -4.024   2.599  0.00  0.00    -0.223 NA
ATOM      4  C   UNL     1      -3.377  -4.691   3.765  0.00  0.00    +0.099 A 
ATOM      5  C   UNL     1      -3.328  -6.101   3.674  0.00  0.00    +0.042 A 
ATOM      6  S   UNL     1      -3.086  -6.359   1.933  0.00  0.00    -0.052 S 
ATOM      7  C   UNL     1      -3.458  -6.918   4.769  0.00  0.00    +0.017 A 
ATOM      8  C   UNL     1      -3.647  -6.360   6.020  0.00  0.00    +0.003 A 
ATOM      9  C   UNL     1      -3.700  -4.980   6.147  0.00  0.00    +0.022 A 
ATOM     10  C   UNL     1      -3.571  -4.154   5.059  0.00  0.00    +0.067 A 
ATOM     11 CL   UNL     1      -3.646  -2.433   5.274  0.00  0.00    -0.081 Cl
ATOM     12  C   UNL     1      -2.733  -4.898  -0.878  0.00  0.00    +0.226 C 
ATOM     13  O   UNL     1      -2.593  -4.419  -1.984  0.00  0.00    -0.275 OA
ENDROOT
BRANCH   1  14
ATOM     14  C   UNL     1      -2.903  -2.637   0.015  0.00  0.00    +0.097 C 
BRANCH  14  15
ATOM     15  C   UNL     1      -1.477  -2.100   0.149  0.00  0.00    -0.059 C 
BRANCH  15  16
ATOM     16  N   UNL     1      -1.465  -0.661  -0.147  0.00  0.00    +0.380 N 
ATOM     17  H   UNL     1      -1.873  -0.501  -1.056  0.00  0.00    -0.082 HD
BRANCH  16  19
ATOM     18  C   UNL     1      -2.337   1.535   0.497  0.00  0.00    -0.017 C 
ATOM     19  C   UNL     1      -2.244   0.054   0.872  0.00  0.00    -0.082 C 
ENDBRANCH  16  19
BRANCH  16  20
ATOM     20  C   UNL     1      -0.080  -0.171  -0.138  0.00  0.00    -0.082 C 
ATOM     21  C   UNL     1       0.691  -0.800  -1.300  0.00  0.00    -0.017 C 
ENDBRANCH  16  20
ENDBRANCH  15  16
ENDBRANCH  14  15
ENDBRANCH   1  14
BRANCH  12  22
ATOM     22  C   UNL     1      -2.726  -6.394  -0.699  0.00  0.00    +0.132 C 
BRANCH  22  23
ATOM     23  C   UNL     1      -2.530  -7.059  -2.036  0.00  0.00    -0.031 A 
ATOM     24  C   UNL     1      -3.606  -7.473  -2.759  0.00  0.00    +0.005 A 
ATOM     25  C   UNL     1      -3.444  -8.091  -3.998  0.00  0.00    +0.001 A 
ATOM     26  C   UNL     1      -2.205  -8.298  -4.521  0.00  0.00    +0.008 A 
ATOM     27  C   UNL     1      -1.069  -7.885  -3.803  0.00  0.00    -0.018 A 
ATOM     28  C   UNL     1      -1.235  -7.251  -2.546  0.00  0.00    -0.014 A 
ATOM     29  C   UNL     1      -0.099  -6.832  -1.831  0.00  0.00    +0.009 A 
ATOM     30  C   UNL     1       1.140  -7.035  -2.357  0.00  0.00    +0.001 A 
ATOM     31  C   UNL     1       1.302  -7.652  -3.596  0.00  0.00    +0.001 A 
ATOM     32  C   UNL     1       0.226  -8.083  -4.310  0.00  0.00    +0.008 A 
ENDBRANCH  22  23
ENDBRANCH  12  22
TORSDOF 7
