REMARK  Name = ZINC37055178
REMARK  7 active torsions:
REMARK  status: ('A' for Active; 'I' for Inactive)
REMARK    1  A    between atoms: C_1  and  C_2
REMARK    2  A    between atoms: C_5  and  N_19
REMARK    3  A    between atoms: C_6  and  C_18
REMARK    4  A    between atoms: C_7  and  S_8
REMARK    5  A    between atoms: S_8  and  N_11
REMARK    6  A    between atoms: N_11  and  C_12
REMARK    7  A    between atoms: C_14  and  C_17
REMARK                            x       y       z     vdW  Elec       q    Type
REMARK                         _______ _______ _______ _____ _____    ______ ____
ROOT
ATOM      1  C   UNL     1      -0.018   1.503   0.010  0.00  0.00    +0.046 C 
ATOM      2  C   UNL     1       0.002  -0.004   0.002  0.00  0.00    -0.023 A 
ATOM      3  C   UNL     1       0.006  -0.687  -1.200  0.00  0.00    +0.007 A 
ATOM      4  C   UNL     1       0.024  -2.068  -1.212  0.00  0.00    +0.023 A 
ATOM      5  C   UNL     1       0.040  -2.771  -0.013  0.00  0.00    +0.029 A 
ATOM      6  C   UNL     1       0.036  -2.081   1.192  0.00  0.00    -0.003 A 
ATOM      7  C   UNL     1       0.023  -0.700   1.196  0.00  0.00    +0.118 A 
ATOM      8  C   UNL     1       0.052  -2.839   2.495  0.00  0.00    +0.048 C 
ENDROOT
BRANCH   7   9
ATOM      9  S   UNL     1       0.025   0.175   2.725  0.00  0.00    +0.094 S 
ATOM     10  O   UNL     1       0.597  -0.696   3.692  0.00  0.00    -0.148 OA
ATOM     11  O   UNL     1       0.556   1.465   2.454  0.00  0.00    -0.148 OA
BRANCH   9  12
ATOM     12  N   UNL     1      -1.556   0.397   3.165  0.00  0.00    -0.074 NA
BRANCH  12  13
ATOM     13  C   UNL     1      -1.862   1.067   4.345  0.00  0.00    +0.205 A 
ATOM     14  C   UNL     1      -3.159   1.322   4.845  0.00  0.00    +0.094 A 
ATOM     15  C   UNL     1      -3.036   1.991   6.005  0.00  0.00    +0.136 A 
ATOM     16  O   UNL     1      -1.728   2.165   6.251  0.00  0.00    -0.358 OA
ATOM     17  N   UNL     1      -1.000   1.569   5.193  0.00  0.00    -0.060 NA
ATOM     18  C   UNL     1      -4.170   2.465   6.877  0.00  0.00    +0.089 C 
ENDBRANCH  12  13
ENDBRANCH   9  12
ENDBRANCH   7   9
BRANCH   5  19
ATOM     19  N   UNL     1       0.058  -4.167  -0.021  0.00  0.00    -0.358 N 
ATOM     20  H   UNL     1       0.060  -4.648  -0.864  0.00  0.00    +0.142 HD
ATOM     21  H   UNL     1       0.069  -4.657   0.816  0.00  0.00    +0.142 HD
ENDBRANCH   5  19
TORSDOF 4
