REMARK  Name = ZINC63135194
REMARK  15 active torsions:
REMARK  status: ('A' for Active; 'I' for Inactive)
REMARK    1  A    between atoms: C_1  and  C_2
REMARK    2  A    between atoms: C_2  and  C_3
REMARK    3  A    between atoms: C_2  and  C_4
REMARK    4  A    between atoms: C_4  and  N_5
REMARK    5  A    between atoms: N_5  and  C_6
REMARK    6  A    between atoms: C_7  and  N_22
REMARK    7  A    between atoms: N_8  and  C_15
REMARK    8  A    between atoms: C_15  and  C_16
REMARK    9  A    between atoms: C_23  and  C_25
REMARK   10  A    between atoms: C_25  and  O_26
REMARK   11  A    between atoms: O_26  and  C_27
REMARK   12  A    between atoms: C_27  and  C_29
REMARK   13  A    between atoms: C_29  and  C_30
REMARK   14  A    between atoms: C_30  and  C_31
REMARK   15  A    between atoms: C_31  and  C_32
REMARK                            x       y       z     vdW  Elec       q    Type
REMARK                         _______ _______ _______ _____ _____    ______ ____
ROOT
ATOM      1  N   UNL     1       2.008  -0.030  -1.079  0.00  0.00    -0.261 N 
ATOM      2  C   UNL     1       2.301   1.260  -1.347  0.00  0.00    +0.258 C 
ATOM      3  O   UNL     1       3.446   1.653  -1.263  0.00  0.00    -0.272 OA
ENDROOT
BRANCH   1   4
ATOM      4  C   UNL     1       3.016  -0.899  -0.611  0.00  0.00    +0.140 A 
ATOM      5  C   UNL     1       4.098  -1.212  -1.407  0.00  0.00    +0.128 A 
ATOM      6  N   UNL     1       5.064  -2.063  -0.923  0.00  0.00    -0.276 N 
ATOM      7  C   UNL     1       4.955  -2.584   0.313  0.00  0.00    +0.331 A 
ATOM      8  O   UNL     1       5.820  -3.334   0.722  0.00  0.00    -0.246 OA
ATOM      9  N   UNL     1       3.908  -2.290   1.103  0.00  0.00    -0.273 N 
ATOM     10  H   UNL     1       3.852  -2.678   1.990  0.00  0.00    +0.173 HD
ATOM     11  C   UNL     1       2.937  -1.458   0.678  0.00  0.00    +0.277 A 
ATOM     12  O   UNL     1       1.994  -1.194   1.405  0.00  0.00    -0.266 OA
BRANCH   5  13
ATOM     13  N   UNL     1       4.210  -0.680  -2.670  0.00  0.00    -0.343 N 
ATOM     14  H   UNL     1       3.558  -0.033  -2.983  0.00  0.00    +0.144 HD
ATOM     15  H   UNL     1       4.939  -0.952  -3.248  0.00  0.00    +0.144 HD
ENDBRANCH   5  13
BRANCH   6  16
ATOM     16  C   UNL     1       6.219  -2.404  -1.758  0.00  0.00    +0.163 C 
BRANCH  16  17
ATOM     17  C   UNL     1       7.326  -1.411  -1.513  0.00  0.00    -0.028 A 
ATOM     18  C   UNL     1       7.402  -0.259  -2.274  0.00  0.00    +0.005 A 
ATOM     19  C   UNL     1       8.418   0.652  -2.050  0.00  0.00    +0.000 A 
ATOM     20  C   UNL     1       9.357   0.411  -1.065  0.00  0.00    +0.000 A 
ATOM     21  C   UNL     1       9.281  -0.740  -0.303  0.00  0.00    +0.000 A 
ATOM     22  C   UNL     1       8.263  -1.649  -0.525  0.00  0.00    +0.005 A 
ENDBRANCH  16  17
ENDBRANCH   6  16
ENDBRANCH   1   4
BRANCH   1  23
ATOM     23  C   UNL     1       0.644  -0.527  -1.275  0.00  0.00    +0.117 C 
BRANCH  23  25
ATOM     24  C   UNL     1       1.377  -2.296  -2.880  0.00  0.00    +0.009 C 
ATOM     25  C   UNL     1       0.494  -1.059  -2.701  0.00  0.00    +0.001 C 
ATOM     26  C   UNL     1      -0.967  -1.434  -2.956  0.00  0.00    +0.009 C 
ENDBRANCH  23  25
ENDBRANCH   1  23
BRANCH   2  27
ATOM     27  C   UNL     1       1.205   2.213  -1.752  0.00  0.00    +0.328 C 
BRANCH  27  28
ATOM     28  O   UNL     1       1.776   3.478  -2.091  0.00  0.00    -0.455 OA
BRANCH  28  29
ATOM     29  C   UNL     1       0.929   4.446  -2.476  0.00  0.00    +0.308 C 
ATOM     30  O   UNL     1      -0.259   4.225  -2.522  0.00  0.00    -0.251 OA
BRANCH  29  31
ATOM     31  C   UNL     1       1.458   5.806  -2.849  0.00  0.00    +0.121 C 
BRANCH  31  32
ATOM     32  C   UNL     1       0.293   6.715  -3.246  0.00  0.00    +0.015 C 
BRANCH  32  33
ATOM     33  C   UNL     1       0.830   8.097  -3.625  0.00  0.00    +0.034 C 
BRANCH  33  34
ATOM     34  C   UNL     1      -0.318   8.992  -4.017  0.00  0.00    -0.042 C 
ATOM     35  C   UNL     1      -0.972   9.869  -3.222  0.00  0.00    -0.001 A 
ATOM     36  C   UNL     1      -0.819  10.237  -1.809  0.00  0.00    +0.010 A 
ATOM     37  C   UNL     1      -1.643  11.170  -1.281  0.00  0.00    +0.001 A 
ATOM     38  C   UNL     1      -2.638  11.793  -2.047  0.00  0.00    +0.002 A 
ATOM     39  C   UNL     1      -2.840  11.508  -3.351  0.00  0.00    +0.026 A 
ATOM     40  C   UNL     1      -2.030  10.541  -4.009  0.00  0.00    +0.043 A 
ATOM     41  N   UNL     1      -2.029  10.098  -5.243  0.00  0.00    -0.380 N 
ATOM     42  C   UNL     1      -0.966   9.096  -5.379  0.00  0.00    +0.144 C 
ATOM     43  H   UNL     1      -2.629  10.386  -5.949  0.00  0.00    +0.160 HD
ENDBRANCH  33  34
ENDBRANCH  32  33
ENDBRANCH  31  32
ENDBRANCH  29  31
ENDBRANCH  28  29
ENDBRANCH  27  28
ENDBRANCH   2  27
TORSDOF 13
