REMARK  Name = ZINC39775863
REMARK  10 active torsions:
REMARK  status: ('A' for Active; 'I' for Inactive)
REMARK    1  A    between atoms: C_1  and  C_2
REMARK    2  A    between atoms: C_6  and  C_32
REMARK    3  A    between atoms: C_7  and  N_8
REMARK    4  A    between atoms: C_9  and  C_13
REMARK    5  A    between atoms: C_13  and  N_18
REMARK    6  A    between atoms: N_18  and  C_19
REMARK    7  A    between atoms: C_19  and  C_20
REMARK    8  A    between atoms: N_22  and  N_23
REMARK    9  A    between atoms: C_24  and  C_25
REMARK   10  A    between atoms: C_28  and  O_31
REMARK                            x       y       z     vdW  Elec       q    Type
REMARK                         _______ _______ _______ _____ _____    ______ ____
ROOT
ATOM      1  C   UNL     1      -0.301  -2.409   4.383  0.00  0.00    -0.004 C 
ATOM      2  C   UNL     1       0.829  -3.353   3.922  0.00  0.00    -0.005 C 
ATOM      3  C   UNL     1       1.820  -3.369   5.112  0.00  0.00    -0.001 C 
ATOM      4  C   UNL     1       0.878  -3.346   6.341  0.00  0.00    -0.001 C 
ATOM      5  C   UNL     1      -0.270  -2.405   5.921  0.00  0.00    -0.005 C 
ENDROOT
BRANCH   1   7
ATOM      6  N   UNL     1       0.752  -0.086   4.404  0.00  0.00    -0.198 N 
ATOM      7  C   UNL     1      -0.058  -1.018   3.857  0.00  0.00    +0.146 A 
ATOM      8  N   UNL     1      -0.592  -0.489   2.788  0.00  0.00    -0.114 NA
ATOM      9  N   UNL     1      -0.175   0.714   2.621  0.00  0.00    -0.023 NA
ATOM     10  N   UNL     1       0.642   1.037   3.565  0.00  0.00    -0.039 NA
BRANCH   6  17
ATOM     11  C   UNL     1       3.430  -1.013   4.134  0.00  0.00    +0.046 C 
ATOM     12  C   UNL     1       2.843  -0.657   5.476  0.00  0.00    -0.025 A 
ATOM     13  C   UNL     1       3.610  -0.772   6.618  0.00  0.00    +0.005 A 
ATOM     14  C   UNL     1       3.072  -0.447   7.850  0.00  0.00    +0.001 A 
ATOM     15  C   UNL     1       1.764  -0.006   7.941  0.00  0.00    +0.005 A 
ATOM     16  C   UNL     1       0.992   0.111   6.802  0.00  0.00    -0.025 A 
ATOM     17  C   UNL     1       1.532  -0.209   5.564  0.00  0.00    +0.075 A 
ATOM     18  C   UNL     1      -0.433   0.591   6.902  0.00  0.00    +0.046 C 
ENDBRANCH   6  17
ENDBRANCH   1   7
BRANCH   1  19
ATOM     19  N   UNL     1      -1.599  -2.907   3.907  0.00  0.00    +0.393 N 
ATOM     20  H   UNL     1      -1.800  -3.794   4.344  0.00  0.00    -0.084 HD
ATOM     21  H   UNL     1      -2.321  -2.244   4.146  0.00  0.00    -0.084 HD
BRANCH  19  22
ATOM     22  C   UNL     1      -1.554  -3.078   2.449  0.00  0.00    +0.018 C 
BRANCH  22  23
ATOM     23  C   UNL     1      -2.897  -3.552   1.957  0.00  0.00    +0.215 C 
ATOM     24  O   UNL     1      -3.829  -3.640   2.728  0.00  0.00    -0.276 OA
ATOM     25  N   UNL     1      -3.062  -3.877   0.659  0.00  0.00    -0.209 N 
ATOM     26  H   UNL     1      -2.301  -3.879   0.059  0.00  0.00    +0.177 HD
BRANCH  25  27
ATOM     27  N   UNL     1      -4.335  -4.213   0.178  0.00  0.00    -0.188 NA
ATOM     28  C   UNL     1      -4.494  -4.527  -1.071  0.00  0.00    +0.138 C 
BRANCH  28  29
ATOM     29  C   UNL     1      -5.833  -4.880  -1.577  0.00  0.00    -0.005 A 
ATOM     30  C   UNL     1      -6.933  -4.873  -0.715  0.00  0.00    +0.013 A 
ATOM     31  C   UNL     1      -8.182  -5.204  -1.192  0.00  0.00    +0.046 A 
ATOM     32  C   UNL     1      -8.350  -5.544  -2.528  0.00  0.00    +0.117 A 
ATOM     33  C   UNL     1      -7.259  -5.553  -3.389  0.00  0.00    +0.046 A 
ATOM     34  C   UNL     1      -6.007  -5.218  -2.922  0.00  0.00    +0.013 A 
BRANCH  32  35
ATOM     35  O   UNL     1      -9.583  -5.869  -2.995  0.00  0.00    -0.507 OA
ATOM     36  H   UNL     1     -10.089  -5.115  -3.327  0.00  0.00    +0.292 HD
ENDBRANCH  32  35
ENDBRANCH  28  29
ENDBRANCH  25  27
ENDBRANCH  22  23
ENDBRANCH  19  22
ENDBRANCH   1  19
TORSDOF 8
