REMARK  Name = ZINC12421988
REMARK  12 active torsions:
REMARK  status: ('A' for Active; 'I' for Inactive)
REMARK    1  A    between atoms: N_6  and  C_11
REMARK    2  A    between atoms: C_11  and  C_12
REMARK    3  A    between atoms: C_12  and  C_14
REMARK    4  A    between atoms: C_12  and  O_22
REMARK    5  A    between atoms: C_14  and  N_52
REMARK    6  A    between atoms: C_15  and  C_16
REMARK    7  A    between atoms: C_15  and  C_18
REMARK    8  A    between atoms: C_15  and  C_20
REMARK    9  A    between atoms: C_15  and  N_52
REMARK   10  A    between atoms: C_16  and  O_17
REMARK   11  A    between atoms: C_18  and  O_19
REMARK   12  A    between atoms: C_20  and  O_21
REMARK                            x       y       z     vdW  Elec       q    Type
REMARK                         _______ _______ _______ _____ _____    ______ ____
ROOT
ATOM      1  C   UNL     1       0.254   6.710   1.026  0.00  0.00    +0.117 C 
ENDROOT
BRANCH   1   2
ATOM      2  O   UNL     1       1.171   5.710   1.474  0.00  0.00    -0.392 OA
ATOM      3  H   UNL     1       0.957   5.339   2.341  0.00  0.00    +0.210 HD
ENDBRANCH   1   2
BRANCH   1   4
ATOM      4  C   UNL     1      -1.149   6.106   0.924  0.00  0.00    +0.151 C 
BRANCH   4  10
ATOM      5  C   UNL     1      -1.911   5.082  -4.142  0.00  0.00    +0.002 A 
ATOM      6  C   UNL     1      -1.583   3.929  -3.471  0.00  0.00    +0.010 A 
ATOM      7  C   UNL     1      -1.348   4.042  -2.098  0.00  0.00    +0.005 A 
ATOM      8  C   UNL     1      -0.989   3.076  -1.080  0.00  0.00    -0.019 A 
ATOM      9  C   UNL     1      -0.891   3.747   0.088  0.00  0.00    +0.023 A 
ATOM     10  N   UNL     1      -1.162   5.075  -0.116  0.00  0.00    -0.340 N 
ATOM     11  C   UNL     1      -1.445   5.292  -1.433  0.00  0.00    +0.068 A 
ATOM     12  C   UNL     1      -1.780   6.446  -2.140  0.00  0.00    +0.065 A 
ATOM     13  C   UNL     1      -2.008   6.305  -3.499  0.00  0.00    +0.022 A 
ATOM     14 CL   UNL     1      -1.905   7.988  -1.353  0.00  0.00    -0.081 Cl
ATOM     15  C   UNL     1      -0.536   3.094   1.403  0.00  0.00    +0.054 C 
ATOM     16  C   UNL     1      -0.731   1.580   1.267  0.00  0.00    +0.006 C 
ATOM     17  C   UNL     1      -0.013   1.086   0.008  0.00  0.00    +0.005 C 
ATOM     18  C   UNL     1      -0.755   1.594  -1.233  0.00  0.00    +0.037 C 
ENDBRANCH   4  10
ENDBRANCH   1   4
BRANCH   1  19
ATOM     19  C   UNL     1       0.238   7.871   2.023  0.00  0.00    -0.048 C 
BRANCH  19  20
ATOM     20  N   UNL     1       1.561   8.523   2.026  0.00  0.00    +0.389 N 
ATOM     21  H   UNL     1       1.767   8.875   1.084  0.00  0.00    -0.085 HD
ATOM     22  H   UNL     1       2.276   7.838   2.300  0.00  0.00    -0.085 HD
BRANCH  20  23
ATOM     23  C   UNL     1       1.575   9.648   2.980  0.00  0.00    +0.002 C 
BRANCH  23  24
ATOM     24  C   UNL     1       2.957  10.304   2.961  0.00  0.00    +0.148 C 
BRANCH  24  25
ATOM     25  O   UNL     1       2.979  11.396   3.883  0.00  0.00    -0.396 OA
ATOM     26  H   UNL     1       3.827  11.859   3.924  0.00  0.00    +0.209 HD
ENDBRANCH  24  25
ENDBRANCH  23  24
BRANCH  23  27
ATOM     27  C   UNL     1       0.517  10.677   2.577  0.00  0.00    +0.148 C 
BRANCH  27  28
ATOM     28  O   UNL     1       0.730  11.073   1.220  0.00  0.00    -0.396 OA
ATOM     29  H   UNL     1       0.094  11.725   0.896  0.00  0.00    +0.209 HD
ENDBRANCH  27  28
ENDBRANCH  23  27
BRANCH  23  30
ATOM     30  C   UNL     1       1.274   9.132   4.388  0.00  0.00    +0.148 C 
BRANCH  30  31
ATOM     31  O   UNL     1       2.263   8.171   4.765  0.00  0.00    -0.396 OA
ATOM     32  H   UNL     1       2.135   7.801   5.649  0.00  0.00    +0.209 HD
ENDBRANCH  30  31
ENDBRANCH  23  30
ENDBRANCH  20  23
ENDBRANCH  19  20
ENDBRANCH   1  19
TORSDOF 12
