REMARK  Name = ZINC34978056
REMARK  11 active torsions:
REMARK  status: ('A' for Active; 'I' for Inactive)
REMARK    1  A    between atoms: C_1  and  C_2
REMARK    2  A    between atoms: C_2  and  C_3
REMARK    3  A    between atoms: C_3  and  C_4
REMARK    4  A    between atoms: C_4  and  C_5
REMARK    5  A    between atoms: C_12  and  C_14
REMARK    6  A    between atoms: C_15  and  C_17
REMARK    7  A    between atoms: C_17  and  C_19
REMARK    8  A    between atoms: C_17  and  N_26
REMARK    9  A    between atoms: C_19  and  C_20
REMARK   10  A    between atoms: N_26  and  S_27
REMARK   11  A    between atoms: S_27  and  C_30
REMARK                            x       y       z     vdW  Elec       q    Type
REMARK                         _______ _______ _______ _____ _____    ______ ____
ROOT
ATOM      1  C   UNL     1       2.558  -8.551  -1.720  0.00  0.00    +0.166 C 
ENDROOT
BRANCH   1  11
ATOM      2  C   UNL     1       0.786  -2.805  -3.154  0.00  0.00    +0.216 C 
ATOM      3  O   UNL     1       1.212  -2.014  -3.969  0.00  0.00    -0.276 OA
ATOM      4  N   UNL     1       1.127  -4.107  -3.236  0.00  0.00    -0.296 N 
ATOM      5  C   UNL     1       0.613  -5.078  -2.260  0.00  0.00    +0.127 C 
ATOM      6  C   UNL     1       1.802  -5.804  -1.619  0.00  0.00    +0.127 C 
ATOM      7  N   UNL     1       2.694  -6.278  -2.687  0.00  0.00    -0.297 N 
ATOM      8  C   UNL     1       3.208  -5.307  -3.663  0.00  0.00    +0.130 C 
ATOM      9  C   UNL     1       2.015  -4.581  -4.307  0.00  0.00    +0.090 C 
ATOM     10  C   UNL     1       1.252  -5.547  -5.216  0.00  0.00    +0.029 C 
ATOM     11  C   UNL     1       3.035  -7.579  -2.769  0.00  0.00    +0.235 C 
ATOM     12  O   UNL     1       3.726  -7.968  -3.687  0.00  0.00    -0.274 OA
BRANCH   2  13
ATOM     13  C   UNL     1      -0.125  -2.334  -2.050  0.00  0.00    +0.096 C 
BRANCH  13  14
ATOM     14  C   UNL     1      -0.352  -0.827  -2.185  0.00  0.00    +0.009 C 
BRANCH  14  16
ATOM     15  C   UNL     1      -1.503   1.160  -1.200  0.00  0.00    +0.004 C 
ATOM     16  C   UNL     1      -1.277  -0.347  -1.065  0.00  0.00    -0.003 C 
ENDBRANCH  14  16
ENDBRANCH  13  14
ENDBRANCH   2  13
ENDBRANCH   1  11
BRANCH   1  17
ATOM     17  N   UNL     1       2.900  -9.916  -2.128  0.00  0.00    -0.178 NA
ATOM     18  H   UNL     1       3.724 -10.086  -2.611  0.00  0.00    +0.149 HD
BRANCH  17  19
ATOM     19  S   UNL     1       1.879 -11.168  -1.765  0.00  0.00    +0.059 S 
ATOM     20  O   UNL     1       2.467 -12.342  -2.309  0.00  0.00    -0.153 OA
ATOM     21  O   UNL     1       1.561 -11.045  -0.385  0.00  0.00    -0.153 OA
BRANCH  19  22
ATOM     22  C   UNL     1       0.383 -10.896  -2.653  0.00  0.00    +0.106 A 
ATOM     23  C   UNL     1      -0.640 -10.153  -2.065  0.00  0.00    +0.029 A 
ATOM     24  C   UNL     1      -1.808  -9.924  -2.724  0.00  0.00    +0.010 A 
ATOM     25  C   UNL     1      -1.990 -10.443  -4.017  0.00  0.00    -0.018 A 
ATOM     26  C   UNL     1      -3.183 -10.227  -4.729  0.00  0.00    +0.008 A 
ATOM     27  C   UNL     1      -3.323 -10.745  -5.980  0.00  0.00    +0.001 A 
ATOM     28  C   UNL     1      -2.301 -11.487  -6.569  0.00  0.00    +0.001 A 
ATOM     29  C   UNL     1      -1.132 -11.716  -5.910  0.00  0.00    +0.008 A 
ATOM     30  C   UNL     1      -0.951 -11.198  -4.616  0.00  0.00    -0.016 A 
ATOM     31  C   UNL     1       0.244 -11.409  -3.906  0.00  0.00    +0.037 A 
ENDBRANCH  19  22
ENDBRANCH  17  19
ENDBRANCH   1  17
BRANCH   1  32
ATOM     32  C   UNL     1       3.235  -8.233  -0.385  0.00  0.00    +0.065 C 
BRANCH  32  33
ATOM     33  C   UNL     1       2.781  -9.223   0.656  0.00  0.00    -0.045 A 
ATOM     34  C   UNL     1       1.659  -8.959   1.419  0.00  0.00    +0.004 A 
ATOM     35  C   UNL     1       1.243  -9.867   2.374  0.00  0.00    +0.000 A 
ATOM     36  C   UNL     1       1.948 -11.041   2.566  0.00  0.00    +0.000 A 
ATOM     37  C   UNL     1       3.069 -11.306   1.802  0.00  0.00    +0.000 A 
ATOM     38  C   UNL     1       3.483 -10.399   0.844  0.00  0.00    +0.004 A 
ENDBRANCH  32  33
ENDBRANCH   1  32
TORSDOF 9
