REMARK  Name = ZINC13814877
REMARK  6 active torsions:
REMARK  status: ('A' for Active; 'I' for Inactive)
REMARK    1  A    between atoms: C_6  and  C_7
REMARK    2  A    between atoms: C_7  and  N_8
REMARK    3  A    between atoms: N_10  and  C_11
REMARK    4  A    between atoms: C_11  and  C_12
REMARK    5  A    between atoms: C_15  and  S_18
REMARK    6  A    between atoms: S_18  and  N_21
REMARK                            x       y       z     vdW  Elec       q    Type
REMARK                         _______ _______ _______ _____ _____    ______ ____
ROOT
ATOM      1  N   UNL     1      -1.726  -1.017  -1.368  0.00  0.00    -0.321 N 
ATOM      2  C   UNL     1      -2.883  -1.703  -1.611  0.00  0.00    +0.139 C 
ATOM      3  N   UNL     1      -3.286  -1.929  -2.896  0.00  0.00    -0.363 N 
ATOM      4  S   UNL     1      -3.798  -2.261  -0.343  0.00  0.00    -0.016 SA
ATOM      5  H   UNL     1      -1.191  -0.691  -2.109  0.00  0.00    +0.148 HD
ATOM      6  H   UNL     1      -2.752  -1.602  -3.637  0.00  0.00    +0.162 HD
ENDROOT
BRANCH   1   7
ATOM      7  C   UNL     1      -1.293  -0.775   0.010  0.00  0.00    +0.138 C 
BRANCH   7  13
ATOM      8  C   UNL     1      -0.017   1.378   0.010  0.00  0.00    +0.008 A 
ATOM      9  C   UNL     1       1.170   2.086   0.002  0.00  0.00    +0.038 A 
ATOM     10  C   UNL     1       2.379   1.410  -0.013  0.00  0.00    +0.123 A 
ATOM     11  C   UNL     1       2.396   0.026  -0.021  0.00  0.00    +0.038 A 
ATOM     12  C   UNL     1       1.208  -0.680  -0.013  0.00  0.00    +0.008 A 
ATOM     13  C   UNL     1       0.002  -0.004   0.002  0.00  0.00    -0.030 A 
ATOM     14  F   UNL     1       3.540   2.101  -0.021  0.00  0.00    -0.205 F 
ENDBRANCH   7  13
ENDBRANCH   1   7
BRANCH   3  15
ATOM     15  C   UNL     1      -4.527  -2.664  -3.156  0.00  0.00    +0.150 C 
BRANCH  15  16
ATOM     16  C   UNL     1      -4.742  -2.775  -4.643  0.00  0.00    -0.028 A 
ATOM     17  C   UNL     1      -5.448  -1.795  -5.315  0.00  0.00    +0.007 A 
ATOM     18  C   UNL     1      -5.646  -1.897  -6.679  0.00  0.00    +0.029 A 
ATOM     19  C   UNL     1      -5.137  -2.980  -7.372  0.00  0.00    +0.105 A 
ATOM     20  C   UNL     1      -4.430  -3.960  -6.700  0.00  0.00    +0.029 A 
ATOM     21  C   UNL     1      -4.229  -3.855  -5.337  0.00  0.00    +0.007 A 
BRANCH  19  22
ATOM     22  S   UNL     1      -5.390  -3.111  -9.111  0.00  0.00    +0.056 S 
ATOM     23  O   UNL     1      -5.284  -4.491  -9.433  0.00  0.00    -0.153 OA
ATOM     24  O   UNL     1      -6.549  -2.346  -9.411  0.00  0.00    -0.153 OA
BRANCH  22  25
ATOM     25  N   UNL     1      -4.117  -2.353  -9.849  0.00  0.00    -0.204 NA
ATOM     26  H   UNL     1      -3.418  -1.946  -9.314  0.00  0.00    +0.144 HD
ATOM     27  H   UNL     1      -4.070  -2.316 -10.817  0.00  0.00    +0.144 HD
ENDBRANCH  22  25
ENDBRANCH  19  22
ENDBRANCH  15  16
ENDBRANCH   3  15
TORSDOF 6
