REMARK  Name = ZINC63537916
REMARK  5 active torsions:
REMARK  status: ('A' for Active; 'I' for Inactive)
REMARK    1  A    between atoms: C_6  and  C_7
REMARK    2  A    between atoms: C_10  and  C_35
REMARK    3  A    between atoms: C_17  and  C_20
REMARK    4  A    between atoms: N_22  and  C_23
REMARK    5  A    between atoms: C_23  and  C_24
REMARK                            x       y       z     vdW  Elec       q    Type
REMARK                         _______ _______ _______ _____ _____    ______ ____
ROOT
ATOM      1  C   UNL     1      -1.293  -0.775   0.011  0.00  0.00    +0.087 C 
ATOM      2  C   UNL     1      -1.617  -1.247  -1.412  0.00  0.00    +0.052 C 
ATOM      3  C   UNL     1      -2.953  -2.006  -1.412  0.00  0.00    +0.180 C 
ATOM      4  N   UNL     1      -2.910  -2.997  -0.343  0.00  0.00    -0.213 NA
ATOM      5  C   UNL     1      -1.510  -3.149   0.137  0.00  0.00    +0.142 C 
ATOM      6  N   UNL     1      -1.161  -1.950   0.897  0.00  0.00    -0.293 NA
ATOM      7  C   UNL     1      -1.582  -4.422   0.993  0.00  0.00    +0.065 C 
ATOM      8  C   UNL     1      -2.772  -5.206   0.388  0.00  0.00    +0.158 C 
ATOM      9  N   UNL     1      -3.302  -4.350  -0.709  0.00  0.00    -0.240 NA
ATOM     10  H   UNL     1      -0.227  -2.018   1.272  0.00  0.00    +0.124 HD
ATOM     11  H   UNL     1      -4.305  -4.429  -0.778  0.00  0.00    +0.142 HD
ENDROOT
BRANCH   1  17
ATOM     12  C   UNL     1      -0.017   1.378   0.010  0.00  0.00    +0.006 A 
ATOM     13  C   UNL     1       1.171   2.086   0.002  0.00  0.00    +0.020 A 
ATOM     14  C   UNL     1       2.378   1.410  -0.013  0.00  0.00    +0.041 A 
ATOM     15  C   UNL     1       2.396   0.027  -0.021  0.00  0.00    +0.020 A 
ATOM     16  C   UNL     1       1.208  -0.679  -0.013  0.00  0.00    +0.006 A 
ATOM     17  C   UNL     1       0.002  -0.004   0.002  0.00  0.00    -0.030 A 
ATOM     18 CL   UNL     1       3.870   2.298  -0.023  0.00  0.00    -0.084 Cl
ENDBRANCH   1  17
BRANCH   8  19
ATOM     19  C   UNL     1      -2.300  -6.527  -0.163  0.00  0.00    +0.232 C 
ATOM     20  O   UNL     1      -2.107  -6.654  -1.353  0.00  0.00    -0.274 OA
ATOM     21  N   UNL     1      -2.092  -7.567   0.668  0.00  0.00    -0.312 N 
ATOM     22  H   UNL     1      -2.247  -7.466   1.620  0.00  0.00    +0.149 HD
BRANCH  21  23
ATOM     23  C   UNL     1      -1.633  -8.852   0.133  0.00  0.00    +0.133 C 
BRANCH  23  24
ATOM     24  C   UNL     1      -1.477  -9.855   1.278  0.00  0.00    +0.120 C 
ATOM     25  C   UNL     1      -1.181 -11.232   0.727  0.00  0.00    +0.009 C 
ATOM     26  C   UNL     1      -2.197 -12.025   1.136  0.00  0.00    -0.003 A 
ATOM     27  C   UNL     1      -2.489 -13.449   0.933  0.00  0.00    +0.029 A 
ATOM     28  C   UNL     1      -3.611 -13.973   1.479  0.00  0.00    +0.042 A 
ATOM     29  C   UNL     1      -4.500 -13.190   2.232  0.00  0.00    +0.022 A 
ATOM     30  C   UNL     1      -4.298 -11.876   2.461  0.00  0.00    +0.027 A 
ATOM     31  C   UNL     1      -3.150 -11.222   1.934  0.00  0.00    +0.043 A 
ATOM     32  N   UNL     1      -2.739  -9.978   2.017  0.00  0.00    -0.376 N 
ATOM     33 CL   UNL     1      -3.961 -15.657   1.241  0.00  0.00    -0.084 Cl
ATOM     34  H   UNL     1      -3.192  -9.261   2.487  0.00  0.00    +0.160 HD
ENDBRANCH  23  24
ENDBRANCH  21  23
ENDBRANCH   8  19
BRANCH   3  35
ATOM     35  C   UNL     1      -3.150  -2.705  -2.759  0.00  0.00    +0.406 C 
ATOM     36  F   UNL     1      -2.103  -3.609  -2.972  0.00  0.00    -0.169 F 
ATOM     37  F   UNL     1      -4.367  -3.395  -2.752  0.00  0.00    -0.169 F 
ATOM     38  F   UNL     1      -3.159  -1.752  -3.782  0.00  0.00    -0.169 F 
ENDBRANCH   3  35
TORSDOF 5
