REMARK  Name = ZINC20082438
REMARK  14 active torsions:
REMARK  status: ('A' for Active; 'I' for Inactive)
REMARK    1  A    between atoms: C_1  and  C_2
REMARK    2  A    between atoms: C_2  and  C_3
REMARK    3  A    between atoms: C_10  and  C_15
REMARK    4  A    between atoms: C_15  and  C_17
REMARK    5  A    between atoms: C_15  and  N_27
REMARK    6  A    between atoms: N_21  and  C_22
REMARK    7  A    between atoms: C_22  and  C_23
REMARK    8  A    between atoms: C_22  and  C_24
REMARK    9  A    between atoms: C_22  and  C_25
REMARK   10  A    between atoms: C_25  and  C_26
REMARK   11  A    between atoms: N_27  and  C_28
REMARK   12  A    between atoms: N_27  and  C_35
REMARK   13  A    between atoms: C_28  and  C_29
REMARK   14  A    between atoms: C_35  and  C_36
REMARK                            x       y       z     vdW  Elec       q    Type
REMARK                         _______ _______ _______ _____ _____    ______ ____
ROOT
ATOM      1  C   UNL     1      -0.172   1.204  -0.213  0.00  0.00    +0.163 C 
ENDROOT
BRANCH   1   9
ATOM      2  C   UNL     1      -3.582  -0.747  -4.994  0.00  0.00    -0.047 A 
ATOM      3  C   UNL     1      -3.362   0.360  -5.803  0.00  0.00    +0.005 A 
ATOM      4  C   UNL     1      -2.575   1.404  -5.369  0.00  0.00    +0.026 A 
ATOM      5  C   UNL     1      -1.990   1.349  -4.108  0.00  0.00    +0.049 A 
ATOM      6  C   UNL     1      -2.215   0.226  -3.290  0.00  0.00    -0.001 A 
ATOM      7  C   UNL     1      -3.019  -0.822  -3.752  0.00  0.00    +0.013 A 
ATOM      8  C   UNL     1      -1.591   0.175  -1.967  0.00  0.00    +0.021 A 
ATOM      9  C   UNL     1      -0.825   1.222  -1.571  0.00  0.00    +0.042 A 
ATOM     10  C   UNL     1      -0.631   2.325  -2.430  0.00  0.00    +0.254 A 
ATOM     11  O   UNL     1       0.065   3.254  -2.056  0.00  0.00    -0.268 OA
ATOM     12  N   UNL     1      -1.196   2.379  -3.649  0.00  0.00    -0.322 N 
ATOM     13  H   UNL     1      -1.017   3.260  -4.282  0.00  0.00    +0.169 HD
BRANCH   2  15
ATOM     14  C   UNL     1      -5.902  -1.615  -5.094  0.00  0.00    +0.009 C 
ATOM     15  C   UNL     1      -4.448  -1.875  -5.491  0.00  0.00    +0.032 C 
ENDBRANCH   2  15
ENDBRANCH   1   9
BRANCH   1  16
ATOM     16  C   UNL     1      -0.666   2.373   0.598  0.00  0.00    +0.174 A 
ATOM     17  N   UNL     1      -0.252   3.614   0.514  0.00  0.00    -0.111 NA
ATOM     18  N   UNL     1      -0.917   4.313   1.369  0.00  0.00    -0.023 NA
ATOM     19  N   UNL     1      -1.744   3.551   1.994  0.00  0.00    -0.043 NA
ATOM     20  N   UNL     1      -1.624   2.348   1.544  0.00  0.00    -0.222 N 
BRANCH  20  21
ATOM     21  C   UNL     1      -2.384   1.175   1.981  0.00  0.00    +0.062 C 
ATOM     22  C   UNL     1      -3.087   0.544   0.778  0.00  0.00    +0.036 C 
ATOM     23  C   UNL     1      -1.430   0.154   2.607  0.00  0.00    +0.036 C 
BRANCH  21  24
ATOM     24  C   UNL     1      -3.426   1.600   3.017  0.00  0.00    +0.026 C 
ATOM     25  C   UNL     1      -4.220   0.374   3.474  0.00  0.00    +0.006 C 
ENDBRANCH  21  24
ENDBRANCH  20  21
ENDBRANCH   1  16
BRANCH   1  26
ATOM     26  N   UNL     1       1.286   1.297  -0.369  0.00  0.00    -0.280 NA
BRANCH  26  27
ATOM     27  C   UNL     1       1.765   0.373  -1.405  0.00  0.00    +0.121 C 
BRANCH  27  28
ATOM     28  C   UNL     1       3.200   0.690  -1.738  0.00  0.00    -0.033 A 
ATOM     29  C   UNL     1       3.494   1.693  -2.642  0.00  0.00    +0.005 A 
ATOM     30  C   UNL     1       4.811   1.988  -2.943  0.00  0.00    +0.000 A 
ATOM     31  C   UNL     1       5.833   1.273  -2.347  0.00  0.00    +0.000 A 
ATOM     32  C   UNL     1       5.539   0.267  -1.447  0.00  0.00    +0.000 A 
ATOM     33  C   UNL     1       4.222  -0.025  -1.142  0.00  0.00    +0.005 A 
ENDBRANCH  27  28
ENDBRANCH  26  27
BRANCH  26  34
ATOM     34  C   UNL     1       1.969   1.056   0.909  0.00  0.00    +0.122 C 
BRANCH  34  35
ATOM     35  C   UNL     1       1.916   2.305   1.750  0.00  0.00    -0.015 A 
ATOM     36  C   UNL     1       2.852   3.312   1.572  0.00  0.00    +0.008 A 
ATOM     37  C   UNL     1       2.761   4.445   2.366  0.00  0.00    +0.020 A 
ATOM     38  C   UNL     1       1.754   4.528   3.309  0.00  0.00    +0.111 A 
ATOM     39  N   UNL     1       0.884   3.548   3.454  0.00  0.00    -0.263 NA
ATOM     40  C   UNL     1       0.937   2.458   2.713  0.00  0.00    +0.115 A 
ENDBRANCH  34  35
ENDBRANCH  26  34
ENDBRANCH   1  26
TORSDOF 10
