REMARK  Name = ZINC49369429
REMARK  12 active torsions:
REMARK  status: ('A' for Active; 'I' for Inactive)
REMARK    1  A    between atoms: C_1  and  C_2
REMARK    2  A    between atoms: C_2  and  N_3
REMARK    3  A    between atoms: N_3  and  C_4
REMARK    4  A    between atoms: N_3  and  C_6
REMARK    5  A    between atoms: C_4  and  C_5
REMARK    6  A    between atoms: C_6  and  C_7
REMARK    7  A    between atoms: C_12  and  C_13
REMARK    8  A    between atoms: C_13  and  N_14
REMARK    9  A    between atoms: C_15  and  C_17
REMARK   10  A    between atoms: N_19  and  C_20
REMARK   11  A    between atoms: C_24  and  C_27
REMARK   12  A    between atoms: C_25  and  C_26
REMARK                            x       y       z     vdW  Elec       q    Type
REMARK                         _______ _______ _______ _____ _____    ______ ____
ROOT
ATOM      1  N   UNL     1      -3.779  -2.327   2.913  0.00  0.00    -0.303 N 
ATOM      2  C   UNL     1      -5.105  -2.160   2.738  0.00  0.00    +0.300 C 
ATOM      3  O   UNL     1      -5.590  -1.050   2.804  0.00  0.00    -0.265 OA
ATOM      4  H   UNL     1      -3.390  -3.215   2.860  0.00  0.00    +0.149 HD
ENDROOT
BRANCH   2   5
ATOM      5  C   UNL     1      -5.976  -3.341   2.462  0.00  0.00    +0.303 C 
ATOM      6  O   UNL     1      -5.490  -4.452   2.396  0.00  0.00    -0.265 OA
ATOM      7  N   UNL     1      -7.302  -3.174   2.287  0.00  0.00    -0.277 N 
ATOM      8  H   UNL     1      -7.681  -2.282   2.276  0.00  0.00    +0.155 HD
BRANCH   7   9
ATOM      9  C   UNL     1      -8.131  -4.287   2.121  0.00  0.00    +0.037 A 
ATOM     10  C   UNL     1      -7.614  -5.467   1.597  0.00  0.00    +0.023 A 
ATOM     11  C   UNL     1      -8.429  -6.570   1.431  0.00  0.00    +0.003 A 
ATOM     12  C   UNL     1      -9.762  -6.509   1.784  0.00  0.00    +0.013 A 
ATOM     13  C   UNL     1     -10.291  -5.329   2.311  0.00  0.00    +0.041 A 
ATOM     14  C   UNL     1      -9.467  -4.217   2.484  0.00  0.00    -0.017 A 
ATOM     15  C   UNL     1     -10.028  -2.942   3.059  0.00  0.00    +0.046 C 
BRANCH  13  16
ATOM     16  C   UNL     1     -11.719  -5.260   2.689  0.00  0.00    +0.242 C 
ATOM     17  O   UNL     1     -12.204  -4.203   3.041  0.00  0.00    -0.270 OA
ATOM     18  N   UNL     1     -12.482  -6.370   2.643  0.00  0.00    -0.325 N 
ATOM     19  H   UNL     1     -12.095  -7.214   2.363  0.00  0.00    +0.145 HD
ATOM     20  H   UNL     1     -13.419  -6.325   2.892  0.00  0.00    +0.145 HD
ENDBRANCH  13  16
ENDBRANCH   7   9
ENDBRANCH   2   5
BRANCH   1  21
ATOM     21  C   UNL     1      -2.924  -1.169   3.183  0.00  0.00    +0.140 C 
BRANCH  21  27
ATOM     22  C   UNL     1      -0.728  -1.885   2.219  0.00  0.00    -0.059 A 
ATOM     23  C   UNL     1       0.584  -2.297   2.360  0.00  0.00    +0.002 A 
ATOM     24  C   UNL     1       1.127  -2.452   3.622  0.00  0.00    +0.000 A 
ATOM     25  C   UNL     1       0.358  -2.196   4.742  0.00  0.00    +0.000 A 
ATOM     26  C   UNL     1      -0.954  -1.783   4.600  0.00  0.00    +0.005 A 
ATOM     27  C   UNL     1      -1.496  -1.624   3.338  0.00  0.00    -0.029 A 
BRANCH  22  28
ATOM     28  C   UNL     1      -1.320  -1.715   0.843  0.00  0.00    -0.043 C 
BRANCH  28  29
ATOM     29  N   UNL     1      -1.306  -0.293   0.476  0.00  0.00    +0.382 N 
ATOM     30  H   UNL     1      -1.780   0.243   1.187  0.00  0.00    -0.081 HD
BRANCH  29  32
ATOM     31  C   UNL     1       0.101   1.679   0.119  0.00  0.00    -0.017 C 
ATOM     32  C   UNL     1       0.084   0.169   0.360  0.00  0.00    -0.082 C 
ENDBRANCH  29  32
BRANCH  29  33
ATOM     33  C   UNL     1      -1.990  -0.113  -0.811  0.00  0.00    -0.082 C 
ATOM     34  C   UNL     1      -3.472  -0.460  -0.654  0.00  0.00    -0.017 C 
ENDBRANCH  29  33
ENDBRANCH  28  29
ENDBRANCH  22  28
ENDBRANCH  21  27
ENDBRANCH   1  21
TORSDOF 9
