REMARK  Name = ZINC43736976
REMARK  8 active torsions:
REMARK  status: ('A' for Active; 'I' for Inactive)
REMARK    1  A    between atoms: C_1  and  C_2
REMARK    2  A    between atoms: C_2  and  C_8
REMARK    3  A    between atoms: N_3  and  N_4
REMARK    4  A    between atoms: N_4  and  C_5
REMARK    5  A    between atoms: C_5  and  N_7
REMARK    6  A    between atoms: C_13  and  C_32
REMARK    7  A    between atoms: C_24  and  C_31
REMARK    8  A    between atoms: C_27  and  O_30
REMARK                            x       y       z     vdW  Elec       q    Type
REMARK                         _______ _______ _______ _____ _____    ______ ____
ROOT
ATOM      1  C   UNL     1       0.000  -0.729  -1.294  0.00  0.00    -0.023 C 
ATOM      2  C   UNL     1      -0.006  -0.186  -2.526  0.00  0.00    -0.021 C 
ATOM      3  C   UNL     1       0.032  -1.295  -3.578  0.00  0.00    +0.032 C 
ATOM      4  C   UNL     1       0.707  -2.437  -2.805  0.00  0.00    +0.006 C 
ATOM      5  C   UNL     1       0.019  -2.214  -1.429  0.00  0.00    -0.002 C 
ATOM      6  C   UNL     1       0.767  -3.040  -0.411  0.00  0.00    +0.012 C 
ATOM      7  C   UNL     1       0.561  -4.518  -0.793  0.00  0.00    +0.005 C 
ATOM      8  C   UNL     1       1.014  -4.799  -2.221  0.00  0.00    -0.001 C 
ATOM      9  C   UNL     1       0.366  -3.847  -3.246  0.00  0.00    -0.003 C 
ATOM     10  C   UNL     1       0.941  -4.128  -4.635  0.00  0.00    +0.004 C 
ATOM     11  C   UNL     1       0.620  -5.569  -5.036  0.00  0.00    +0.004 C 
ATOM     12  C   UNL     1       1.242  -6.533  -4.024  0.00  0.00    -0.002 C 
ATOM     13  C   UNL     1       0.674  -6.241  -2.601  0.00  0.00    -0.026 C 
ATOM     14  C   UNL     1       1.312  -7.200  -1.595  0.00  0.00    +0.010 C 
ATOM     15  C   UNL     1       0.966  -8.641  -1.974  0.00  0.00    +0.032 C 
ATOM     16  C   UNL     1       1.500  -8.942  -3.375  0.00  0.00    +0.115 C 
ATOM     17  C   UNL     1       0.907  -7.973  -4.420  0.00  0.00    +0.035 C 
ATOM     18  C   UNL     1      -0.845  -6.426  -2.587  0.00  0.00    +0.012 C 
ATOM     19  C   UNL     1      -1.421  -2.727  -1.508  0.00  0.00    +0.016 C 
ENDROOT
BRANCH   1  21
ATOM     20  C   UNL     1      -0.023   1.523  -0.043  0.00  0.00    +0.067 C 
ATOM     21  C   UNL     1      -0.003   0.016  -0.030  0.00  0.00    +0.060 C 
ATOM     22  N   UNL     1       0.010  -0.624   1.102  0.00  0.00    -0.186 NA
BRANCH  22  23
ATOM     23  N   UNL     1       0.006   0.087   2.309  0.00  0.00    -0.218 N 
ATOM     24  H   UNL     1      -0.006   1.057   2.300  0.00  0.00    +0.176 HD
BRANCH  23  25
ATOM     25  C   UNL     1       0.020  -0.576   3.482  0.00  0.00    +0.147 C 
ATOM     26  S   UNL     1       0.016   0.293   4.957  0.00  0.00    -0.017 S 
BRANCH  25  27
ATOM     27  N   UNL     1       0.037  -1.924   3.494  0.00  0.00    -0.339 N 
ATOM     28  H   UNL     1       0.040  -2.416   2.658  0.00  0.00    +0.144 HD
ATOM     29  H   UNL     1       0.047  -2.401   4.338  0.00  0.00    +0.144 HD
ENDBRANCH  25  27
ENDBRANCH  23  25
ENDBRANCH  22  23
ENDBRANCH   1  21
BRANCH  16  30
ATOM     30  O   UNL     1       2.920  -8.775  -3.390  0.00  0.00    -0.392 OA
ATOM     31  H   UNL     1       3.390  -9.354  -2.775  0.00  0.00    +0.210 HD
ENDBRANCH  16  30
TORSDOF 5
