REMARK  Name = ZINC12151085
REMARK  11 active torsions:
REMARK  status: ('A' for Active; 'I' for Inactive)
REMARK    1  A    between atoms: C_1  and  C_2
REMARK    2  A    between atoms: C_2  and  C_4
REMARK    3  A    between atoms: C_2  and  N_66
REMARK    4  A    between atoms: C_6  and  C_10
REMARK    5  A    between atoms: C_16  and  N_66
REMARK    6  A    between atoms: C_17  and  C_18
REMARK    7  A    between atoms: C_17  and  N_66
REMARK    8  A    between atoms: N_26  and  C_29
REMARK    9  A    between atoms: C_29  and  C_30
REMARK   10  A    between atoms: C_34  and  O_36
REMARK   11  A    between atoms: O_36  and  C_37
REMARK                            x       y       z     vdW  Elec       q    Type
REMARK                         _______ _______ _______ _____ _____    ______ ____
ROOT
ATOM      1  C   UNL     1       0.261  -0.417   0.266  0.00  0.00    +0.001 A 
ATOM      2  C   UNL     1       1.318  -1.251   0.431  0.00  0.00    +0.017 A 
ATOM      3  C   UNL     1       2.658  -0.671   0.522  0.00  0.00    -0.001 A 
ATOM      4  C   UNL     1       3.787  -1.480   0.692  0.00  0.00    +0.013 A 
ATOM      5  C   UNL     1       5.024  -0.909   0.773  0.00  0.00    +0.039 A 
ATOM      6  C   UNL     1       5.173   0.471   0.688  0.00  0.00    +0.125 A 
ATOM      7  C   UNL     1       4.073   1.288   0.519  0.00  0.00    +0.064 A 
ATOM      8  C   UNL     1       2.804   0.727   0.435  0.00  0.00    +0.055 A 
ATOM      9  N   UNL     1       1.688   1.519   0.266  0.00  0.00    -0.304 N 
ATOM     10  C   UNL     1       0.461   0.977   0.183  0.00  0.00    +0.253 A 
ATOM     11  O   UNL     1      -0.503   1.707   0.029  0.00  0.00    -0.267 OA
ATOM     12  F   UNL     1       6.406   1.018   0.770  0.00  0.00    -0.205 F 
ENDROOT
BRANCH   1  13
ATOM     13  C   UNL     1      -1.133  -0.983   0.168  0.00  0.00    -0.037 C 
BRANCH  13  15
ATOM     14  C   UNL     1      -1.980   0.427   1.946  0.00  0.00    -0.095 C 
ATOM     15  N   UNL     1      -1.748  -0.967   1.512  0.00  0.00    +0.386 N 
ATOM     16  H   UNL     1      -1.110  -1.421   2.176  0.00  0.00    -0.081 HD
BRANCH  15  18
ATOM     17  C   UNL     1      -3.670  -1.632   2.877  0.00  0.00    -0.007 C 
ATOM     18  C   UNL     1      -3.027  -1.709   1.491  0.00  0.00    -0.020 C 
BRANCH  18  19
ATOM     19  C   UNL     1      -2.750  -3.149   1.144  0.00  0.00    +0.050 A 
ATOM     20  C   UNL     1      -3.656  -4.035   0.563  0.00  0.00    +0.051 A 
ATOM     21  C   UNL     1      -3.026  -5.237   0.407  0.00  0.00    +0.066 A 
ATOM     22  N   UNL     1      -1.759  -5.097   0.891  0.00  0.00    -0.277 N 
ATOM     23  H   UNL     1      -1.056  -5.807   0.917  0.00  0.00    +0.189 HD
ATOM     24  N   UNL     1      -1.620  -3.779   1.344  0.00  0.00    -0.180 NA
BRANCH  21  25
ATOM     25  C   UNL     1      -3.611  -6.466  -0.174  0.00  0.00    -0.000 A 
ATOM     26  C   UNL     1      -4.931  -6.467  -0.626  0.00  0.00    +0.010 A 
ATOM     27  C   UNL     1      -5.469  -7.614  -1.172  0.00  0.00    +0.001 A 
ATOM     28  C   UNL     1      -4.707  -8.765  -1.260  0.00  0.00    +0.000 A 
ATOM     29  C   UNL     1      -3.399  -8.772  -0.808  0.00  0.00    +0.001 A 
ATOM     30  C   UNL     1      -2.848  -7.630  -0.266  0.00  0.00    +0.010 A 
ENDBRANCH  21  25
ENDBRANCH  18  19
ENDBRANCH  15  18
ENDBRANCH  13  15
ENDBRANCH   1  13
BRANCH   9  31
ATOM     31  C   UNL     1       1.842   2.973   0.174  0.00  0.00    +0.160 C 
BRANCH  31  32
ATOM     32  C   UNL     1       1.754   3.575   1.553  0.00  0.00    -0.024 A 
ATOM     33  C   UNL     1       0.530   3.974   2.056  0.00  0.00    +0.005 A 
ATOM     34  C   UNL     1       0.445   4.522   3.323  0.00  0.00    +0.004 A 
ATOM     35  C   UNL     1       1.586   4.682   4.085  0.00  0.00    +0.045 A 
ATOM     36  C   UNL     1       2.817   4.288   3.580  0.00  0.00    +0.120 A 
ATOM     37  C   UNL     1       2.898   3.734   2.311  0.00  0.00    +0.051 A 
BRANCH  36  38
ATOM     38  O   UNL     1       3.941   4.446   4.327  0.00  0.00    -0.495 OA
ATOM     39  C   UNL     1       3.782   5.023   5.625  0.00  0.00    +0.277 C 
ENDBRANCH  36  38
ENDBRANCH  31  32
ENDBRANCH   9  31
TORSDOF 8
