REMARK  Name = ZINC05760034
REMARK  4 active torsions:
REMARK  status: ('A' for Active; 'I' for Inactive)
REMARK    1  A    between atoms: N_9  and  C_10
REMARK    2  A    between atoms: C_14  and  O_21
REMARK    3  A    between atoms: C_16  and  C_19
REMARK    4  A    between atoms: C_19  and  O_20
REMARK                            x       y       z     vdW  Elec       q    Type
REMARK                         _______ _______ _______ _____ _____    ______ ____
ROOT
ATOM      1  C   UNL     1      -0.016   1.359   0.009  0.00  0.00    +0.203 A 
ATOM      2  N   UNL     1       1.200   1.820   0.000  0.00  0.00    -0.231 NA
ATOM      3  C   UNL     1       2.075   0.785  -0.013  0.00  0.00    +0.147 A 
ATOM      4  C   UNL     1       3.476   0.675  -0.028  0.00  0.00    +0.149 A 
ATOM      5  N   UNL     1       4.016  -0.538  -0.040  0.00  0.00    -0.201 NA
ATOM      6  C   UNL     1       3.261  -1.624  -0.039  0.00  0.00    +0.226 A 
ATOM      7  N   UNL     1       1.945  -1.569  -0.026  0.00  0.00    -0.198 NA
ATOM      8  C   UNL     1       1.316  -0.397  -0.013  0.00  0.00    +0.169 A 
ATOM      9  N   UNL     1       0.002  -0.004   0.002  0.00  0.00    -0.285 N 
ATOM     10 CL   UNL     1       4.033  -3.179  -0.055  0.00  0.00    -0.041 Cl
ATOM     11  N   UNL     1       4.274   1.806  -0.030  0.00  0.00    -0.341 N 
ATOM     12  H   UNL     1       3.868   2.686  -0.021  0.00  0.00    +0.144 HD
ATOM     13  H   UNL     1       5.240   1.717  -0.040  0.00  0.00    +0.144 HD
ENDROOT
BRANCH   9  14
ATOM     14  C   UNL     1      -1.167  -0.887   0.008  0.00  0.00    +0.259 C 
ATOM     15  C   UNL     1      -1.528  -1.291   1.460  0.00  0.00    +0.246 C 
ATOM     16  C   UNL     1      -3.038  -1.619   1.308  0.00  0.00    +0.184 C 
ATOM     17  C   UNL     1      -3.488  -0.602   0.238  0.00  0.00    +0.178 C 
ATOM     18  O   UNL     1      -2.321  -0.190  -0.486  0.00  0.00    -0.345 OA
ATOM     19  F   UNL     1      -0.804  -2.419   1.864  0.00  0.00    -0.238 F 
BRANCH  16  20
ATOM     20  O   UNL     1      -3.224  -2.960   0.852  0.00  0.00    -0.386 OA
ATOM     21  H   UNL     1      -2.877  -3.632   1.454  0.00  0.00    +0.210 HD
ENDBRANCH  16  20
BRANCH  17  22
ATOM     22  C   UNL     1      -4.486  -1.260  -0.717  0.00  0.00    +0.190 C 
BRANCH  22  23
ATOM     23  O   UNL     1      -4.985  -0.283  -1.633  0.00  0.00    -0.392 OA
ATOM     24  H   UNL     1      -5.624  -0.631  -2.269  0.00  0.00    +0.210 HD
ENDBRANCH  22  23
ENDBRANCH  17  22
ENDBRANCH   9  14
TORSDOF 4
