REMARK  Name = ZINC33033611
REMARK  8 active torsions:
REMARK  status: ('A' for Active; 'I' for Inactive)
REMARK    1  A    between atoms: C_1  and  C_2
REMARK    2  A    between atoms: C_2  and  C_3
REMARK    3  A    between atoms: C_3  and  C_4
REMARK    4  A    between atoms: C_7  and  S_10
REMARK    5  A    between atoms: S_10  and  N_13
REMARK    6  A    between atoms: N_13  and  C_14
REMARK    7  A    between atoms: C_16  and  C_26
REMARK    8  A    between atoms: C_19  and  N_20
REMARK                            x       y       z     vdW  Elec       q    Type
REMARK                         _______ _______ _______ _____ _____    ______ ____
ROOT
ATOM      1  C   UNL     1       3.126   7.257   1.513  0.00  0.00    +0.070 A 
ATOM      2  C   UNL     1       2.628   6.456   0.503  0.00  0.00    +0.039 A 
ATOM      3  C   UNL     1       1.465   5.710   0.716  0.00  0.00    +0.039 A 
ATOM      4  C   UNL     1       0.807   5.780   1.947  0.00  0.00    +0.015 A 
ATOM      5  C   UNL     1       1.310   6.576   2.953  0.00  0.00    +0.026 A 
ATOM      6  C   UNL     1       2.466   7.318   2.744  0.00  0.00    +0.052 A 
ENDROOT
BRANCH   3   7
ATOM      7  C   UNL     1       0.929   4.854  -0.359  0.00  0.00    +0.247 C 
ATOM      8  O   UNL     1       1.681   4.154  -1.011  0.00  0.00    -0.270 OA
ATOM      9  N   UNL     1      -0.393   4.847  -0.620  0.00  0.00    -0.298 N 
ATOM     10  C   UNL     1      -0.873   4.141  -1.824  0.00  0.00    +0.108 C 
ATOM     11  C   UNL     1      -2.153   3.330  -1.550  0.00  0.00    +0.019 C 
ATOM     12  C   UNL     1      -2.057   2.650  -0.207  0.00  0.00    +0.002 C 
ATOM     13  C   UNL     1      -2.663   3.553   0.863  0.00  0.00    +0.002 C 
ATOM     14  C   UNL     1      -1.735   4.557   1.406  0.00  0.00    +0.019 C 
ATOM     15  C   UNL     1      -1.282   5.532   0.291  0.00  0.00    +0.108 C 
ENDBRANCH   3   7
BRANCH   6  16
ATOM     16  N   UNL     1       2.969   8.126   3.763  0.00  0.00    -0.332 N 
ATOM     17  C   UNL     1       2.009   8.234   4.870  0.00  0.00    +0.086 C 
ATOM     18  C   UNL     1       2.562   9.190   5.930  0.00  0.00    -0.063 C 
ATOM     19  N   UNL     1       3.859   8.690   6.407  0.00  0.00    +0.381 N 
ATOM     20  C   UNL     1       4.819   8.581   5.300  0.00  0.00    -0.063 C 
ATOM     21  C   UNL     1       4.265   7.625   4.240  0.00  0.00    +0.086 C 
ATOM     22  H   UNL     1       4.264   9.382   7.160  0.00  0.00    -0.086 HD
ATOM     23  H   UNL     1       3.724   7.695   6.858  0.00  0.00    -0.086 HD
ENDBRANCH   6  16
BRANCH   1  24
ATOM     24  N   UNL     1       4.290   8.006   1.304  0.00  0.00    -0.214 N 
ATOM     25  H   UNL     1       5.265   7.606   1.620  0.00  0.00    +0.174 HD
BRANCH  24  26
ATOM     26  S   UNL     1       4.200   9.493   0.581  0.00  0.00    +0.072 S 
ATOM     27  O   UNL     1       5.519  10.020   0.570  0.00  0.00    -0.150 OA
ATOM     28  O   UNL     1       3.438   9.322  -0.606  0.00  0.00    -0.150 OA
BRANCH  26  32
ATOM     29  C   UNL     1       1.765  12.161   3.310  0.00  0.00    -0.047 A 
ATOM     30  C   UNL     1       3.137  12.089   3.458  0.00  0.00    +0.005 A 
ATOM     31  C   UNL     1       3.881  11.274   2.625  0.00  0.00    +0.029 A 
ATOM     32  C   UNL     1       3.252  10.531   1.643  0.00  0.00    +0.109 A 
ATOM     33  C   UNL     1       1.880  10.608   1.491  0.00  0.00    +0.029 A 
ATOM     34  C   UNL     1       1.136  11.419   2.327  0.00  0.00    +0.005 A 
BRANCH  29  35
ATOM     35  C   UNL     1       0.954  13.048   4.219  0.00  0.00    +0.035 C 
BRANCH  35  37
ATOM     36  C   UNL     1       0.015  15.344   4.522  0.00  0.00    +0.004 C 
ATOM     37  C   UNL     1       0.838  14.443   3.599  0.00  0.00    +0.001 C 
ENDBRANCH  35  37
ENDBRANCH  29  35
ENDBRANCH  26  32
ENDBRANCH  24  26
ENDBRANCH   1  24
TORSDOF 7
