REMARK  Name = ZINC36604629
REMARK  14 active torsions:
REMARK  status: ('A' for Active; 'I' for Inactive)
REMARK    1  A    between atoms: C_1  and  C_2
REMARK    2  A    between atoms: C_2  and  C_3
REMARK    3  A    between atoms: C_2  and  C_4
REMARK    4  A    between atoms: C_2  and  C_5
REMARK    5  A    between atoms: C_5  and  C_6
REMARK    6  A    between atoms: C_6  and  C_7
REMARK    7  A    between atoms: C_6  and  C_8
REMARK    8  A    between atoms: C_6  and  N_9
REMARK    9  A    between atoms: C_10  and  C_12
REMARK   10  A    between atoms: C_12  and  C_14
REMARK   11  A    between atoms: C_12  and  N_21
REMARK   12  A    between atoms: C_17  and  O_20
REMARK   13  A    between atoms: N_21  and  C_22
REMARK   14  A    between atoms: C_28  and  C_30
REMARK                            x       y       z     vdW  Elec       q    Type
REMARK                         _______ _______ _______ _____ _____    ______ ____
ROOT
ATOM      1  C   UNL     1       5.388  -0.535  -4.110  0.00  0.00    +0.197 C 
ENDROOT
BRANCH   1   2
ATOM      2  C   UNL     1       5.350  -2.029  -4.305  0.00  0.00    -0.018 A 
ATOM      3  C   UNL     1       6.125  -2.849  -3.505  0.00  0.00    +0.009 A 
ATOM      4  C   UNL     1       6.092  -4.219  -3.682  0.00  0.00    +0.046 A 
ATOM      5  C   UNL     1       5.281  -4.771  -4.662  0.00  0.00    +0.117 A 
ATOM      6  C   UNL     1       4.504  -3.946  -5.463  0.00  0.00    +0.046 A 
ATOM      7  C   UNL     1       4.536  -2.578  -5.279  0.00  0.00    +0.009 A 
BRANCH   5   8
ATOM      8  O   UNL     1       5.247  -6.118  -4.839  0.00  0.00    -0.507 OA
ATOM      9  H   UNL     1       4.575  -6.568  -4.308  0.00  0.00    +0.292 HD
ENDBRANCH   5   8
ENDBRANCH   1   2
BRANCH   1  11
ATOM     10  N   UNL     1       3.527  -0.522  -2.481  0.00  0.00    -0.308 N 
ATOM     11  C   UNL     1       4.801  -0.189  -2.766  0.00  0.00    +0.239 C 
ATOM     12  O   UNL     1       5.476   0.390  -1.941  0.00  0.00    -0.273 OA
ATOM     13  H   UNL     1       2.987  -0.985  -3.141  0.00  0.00    +0.149 HD
BRANCH  10  14
ATOM     14  C   UNL     1       2.956  -0.185  -1.174  0.00  0.00    +0.030 C 
ATOM     15  C   UNL     1       3.129   1.313  -0.913  0.00  0.00    +0.031 C 
ATOM     16  C   UNL     1       3.677  -0.979  -0.083  0.00  0.00    +0.031 C 
BRANCH  14  17
ATOM     17  C   UNL     1       1.467  -0.537  -1.162  0.00  0.00    +0.031 C 
BRANCH  17  19
ATOM     18  C   UNL     1       1.096  -1.118  -3.563  0.00  0.00    +0.010 C 
ATOM     19  C   UNL     1       0.824  -0.080  -2.473  0.00  0.00    -0.036 C 
ATOM     20  C   UNL     1       1.420   1.266  -2.891  0.00  0.00    +0.010 C 
ATOM     21  C   UNL     1      -0.685   0.069  -2.275  0.00  0.00    +0.010 C 
ENDBRANCH  17  19
ENDBRANCH  14  17
ENDBRANCH  10  14
ENDBRANCH   1  11
BRANCH   1  22
ATOM     22  N   UNL     1       6.776  -0.070  -4.172  0.00  0.00    -0.255 N 
ATOM     23  C   UNL     1       7.049   1.248  -4.094  0.00  0.00    +0.224 C 
ATOM     24  O   UNL     1       6.155   2.041  -3.888  0.00  0.00    -0.275 OA
BRANCH  22  25
ATOM     25  C   UNL     1       7.818  -0.993  -4.311  0.00  0.00    +0.037 A 
ATOM     26  C   UNL     1       7.930  -1.746  -5.473  0.00  0.00    +0.023 A 
ATOM     27  C   UNL     1       8.960  -2.656  -5.607  0.00  0.00    +0.002 A 
ATOM     28  C   UNL     1       9.879  -2.818  -4.587  0.00  0.00    +0.000 A 
ATOM     29  C   UNL     1       9.770  -2.071  -3.429  0.00  0.00    +0.002 A 
ATOM     30  C   UNL     1       8.745  -1.155  -3.290  0.00  0.00    +0.023 A 
ENDBRANCH  22  25
BRANCH  23  31
ATOM     31  C   UNL     1       8.465   1.735  -4.263  0.00  0.00    +0.076 C 
ATOM     32  C   UNL     1       8.967   1.369  -5.661  0.00  0.00    +0.013 C 
ATOM     33  C   UNL     1      10.404   1.863  -5.833  0.00  0.00    +0.001 C 
ATOM     34  C   UNL     1      10.445   3.383  -5.659  0.00  0.00    +0.000 C 
ATOM     35  C   UNL     1       9.943   3.749  -4.261  0.00  0.00    +0.001 C 
ATOM     36  C   UNL     1       8.505   3.255  -4.089  0.00  0.00    +0.013 C 
ENDBRANCH  23  31
ENDBRANCH   1  22
TORSDOF 9
