REMARK  Name = ZINC33537969
REMARK  12 active torsions:
REMARK  status: ('A' for Active; 'I' for Inactive)
REMARK    1  A    between atoms: C_1  and  C_2
REMARK    2  A    between atoms: C_2  and  C_4
REMARK    3  A    between atoms: C_2  and  N_17
REMARK    4  A    between atoms: N_14  and  C_15
REMARK    5  A    between atoms: N_17  and  C_18
REMARK    6  A    between atoms: C_18  and  C_19
REMARK    7  A    between atoms: C_19  and  C_20
REMARK    8  A    between atoms: C_20  and  C_21
REMARK    9  A    between atoms: C_21  and  C_22
REMARK   10  A    between atoms: C_22  and  C_23
REMARK   11  A    between atoms: C_23  and  N_24
REMARK   12  A    between atoms: C_25  and  C_27
REMARK                            x       y       z     vdW  Elec       q    Type
REMARK                         _______ _______ _______ _____ _____    ______ ____
ROOT
ATOM      1  N   UNL     1      -2.835   0.566  -0.031  0.00  0.00    -0.288 N 
ATOM      2  C   UNL     1      -3.119   1.456  -1.003  0.00  0.00    +0.247 C 
ATOM      3  O   UNL     1      -2.273   1.750  -1.825  0.00  0.00    -0.270 OA
ENDROOT
BRANCH   2   4
ATOM      4  C   UNL     1      -4.460   2.075  -1.069  0.00  0.00    +0.038 A 
ATOM      5  C   UNL     1      -5.065   2.561   0.091  0.00  0.00    +0.014 A 
ATOM      6  C   UNL     1      -6.314   3.142   0.022  0.00  0.00    +0.022 A 
ATOM      7  C   UNL     1      -6.973   3.233  -1.192  0.00  0.00    +0.059 A 
ATOM      8  C   UNL     1      -6.379   2.748  -2.347  0.00  0.00    +0.060 A 
ATOM      9  C   UNL     1      -5.127   2.170  -2.292  0.00  0.00    +0.034 A 
ATOM     10 CL   UNL     1      -7.212   2.868  -3.866  0.00  0.00    -0.082 Cl
ATOM     11 CL   UNL     1      -8.548   3.960  -1.269  0.00  0.00    -0.082 Cl
ENDBRANCH   2   4
BRANCH   1  13
ATOM     12  C   UNL     1      -1.061  -0.667  -1.177  0.00  0.00    +0.036 C 
ATOM     13  C   UNL     1      -1.472   0.048   0.112  0.00  0.00    +0.139 C 
BRANCH  13  14
ATOM     14  C   UNL     1      -0.526   1.190   0.376  0.00  0.00    +0.133 A 
ATOM     15  N   UNL     1      -0.942   2.400   0.153  0.00  0.00    -0.232 NA
ATOM     16  C   UNL     1      -0.146   3.477   0.368  0.00  0.00    +0.080 A 
ATOM     17  C   UNL     1      -0.592   4.778   0.131  0.00  0.00    +0.048 A 
ATOM     18  C   UNL     1       0.254   5.840   0.366  0.00  0.00    +0.043 A 
ATOM     19  C   UNL     1       1.546   5.630   0.836  0.00  0.00    +0.021 A 
ATOM     20  C   UNL     1       2.004   4.365   1.077  0.00  0.00    +0.017 A 
ATOM     21  C   UNL     1       1.168   3.274   0.847  0.00  0.00    +0.065 A 
ATOM     22  C   UNL     1       1.608   1.892   1.089  0.00  0.00    +0.262 A 
ATOM     23  O   UNL     1       2.727   1.648   1.501  0.00  0.00    -0.267 OA
ATOM     24  N   UNL     1       0.720   0.902   0.835  0.00  0.00    -0.298 N 
ATOM     25  C   UNL     1       1.106  -0.493   1.059  0.00  0.00    +0.154 C 
ATOM     26 CL   UNL     1      -0.298   7.459   0.070  0.00  0.00    -0.083 Cl
ENDBRANCH  13  14
ENDBRANCH   1  13
BRANCH   1  27
ATOM     27  C   UNL     1      -3.889   0.117   0.882  0.00  0.00    +0.109 C 
BRANCH  27  28
ATOM     28  C   UNL     1      -3.705   0.790   2.244  0.00  0.00    +0.019 C 
BRANCH  28  29
ATOM     29  C   UNL     1      -4.899   0.460   3.141  0.00  0.00    +0.001 C 
BRANCH  29  30
ATOM     30  C   UNL     1      -4.715   1.133   4.503  0.00  0.00    -0.002 C 
BRANCH  30  31
ATOM     31  C   UNL     1      -5.910   0.803   5.400  0.00  0.00    -0.020 C 
BRANCH  31  32
ATOM     32  C   UNL     1      -5.725   1.476   6.762  0.00  0.00    -0.086 C 
BRANCH  32  33
ATOM     33  N   UNL     1      -6.872   1.159   7.624  0.00  0.00    +0.378 N 
ATOM     34  H   UNL     1      -6.740   1.643   8.603  0.00  0.00    -0.090 HD
ATOM     35  H   UNL     1      -6.939   0.070   7.759  0.00  0.00    -0.090 HD
ATOM     36  H   UNL     1      -7.796   1.528   7.155  0.00  0.00    -0.090 HD
ENDBRANCH  32  33
ENDBRANCH  31  32
ENDBRANCH  30  31
ENDBRANCH  29  30
ENDBRANCH  28  29
ENDBRANCH  27  28
ENDBRANCH   1  27
TORSDOF 10
