REMARK  Name = ZINC19931123
REMARK  5 active torsions:
REMARK  status: ('A' for Active; 'I' for Inactive)
REMARK    1  A    between atoms: C_1  and  C_2
REMARK    2  A    between atoms: C_4  and  C_12
REMARK    3  A    between atoms: C_12  and  C_14
REMARK    4  A    between atoms: C_12  and  N_24
REMARK    5  A    between atoms: N_22  and  C_23
REMARK                            x       y       z     vdW  Elec       q    Type
REMARK                         _______ _______ _______ _____ _____    ______ ____
ROOT
ATOM      1  C   UNL     1       2.193   6.682   0.010  0.00  0.00    +0.149 C 
ENDROOT
BRANCH   1   5
ATOM      2  C   UNL     1       0.006   6.899   4.501  0.00  0.00    +0.065 C 
ATOM      3  C   UNL     1       0.974   7.474   3.499  0.00  0.00    +0.039 A 
ATOM      4  C   UNL     1       1.132   6.841   2.268  0.00  0.00    +0.029 A 
ATOM      5  C   UNL     1       2.005   7.348   1.348  0.00  0.00    -0.012 A 
ATOM      6  C   UNL     1       2.727   8.508   1.687  0.00  0.00    +0.005 A 
ATOM      7  C   UNL     1       3.638   9.090   0.790  0.00  0.00    +0.010 A 
ATOM      8  C   UNL     1       4.313  10.215   1.153  0.00  0.00    +0.001 A 
ATOM      9  C   UNL     1       4.110  10.800   2.401  0.00  0.00    +0.002 A 
ATOM     10  C   UNL     1       3.232  10.265   3.293  0.00  0.00    +0.028 A 
ATOM     11  C   UNL     1       2.515   9.104   2.955  0.00  0.00    +0.072 A 
ATOM     12  N   UNL     1       1.645   8.556   3.810  0.00  0.00    -0.252 NA
ENDBRANCH   1   5
BRANCH   1  13
ATOM     13  C   UNL     1       1.631   5.285   0.061  0.00  0.00    +0.132 A 
ATOM     14  N   UNL     1       0.371   4.983  -0.059  0.00  0.00    -0.230 NA
ATOM     15  C   UNL     1       0.213   3.638   0.034  0.00  0.00    +0.089 A 
ATOM     16  C   UNL     1      -0.897   2.791  -0.025  0.00  0.00    +0.030 A 
ATOM     17  C   UNL     1      -0.732   1.441   0.099  0.00  0.00    +0.002 A 
ATOM     18  C   UNL     1       0.530   0.898   0.295  0.00  0.00    +0.002 A 
ATOM     19  C   UNL     1       1.640   1.713   0.356  0.00  0.00    +0.028 A 
ATOM     20  C   UNL     1       1.492   3.087   0.226  0.00  0.00    +0.069 A 
ATOM     21  N   UNL     1       2.367   4.155   0.239  0.00  0.00    -0.329 N 
ATOM     22  C   UNL     1       3.820   4.083   0.413  0.00  0.00    +0.150 C 
ENDBRANCH   1  13
BRANCH   1  23
ATOM     23  N   UNL     1       1.492   7.454  -1.025  0.00  0.00    -0.318 NA
ATOM     24  H   UNL     1       1.629   6.967  -2.002  0.00  0.00    +0.119 HD
ATOM     25  H   UNL     1       0.419   7.499  -0.785  0.00  0.00    +0.119 HD
ENDBRANCH   1  23
TORSDOF 3
