REMARK  Name = ZINC58167373
REMARK  4 active torsions:
REMARK  status: ('A' for Active; 'I' for Inactive)
REMARK    1  A    between atoms: C_4  and  C_7
REMARK    2  A    between atoms: C_12  and  N_22
REMARK    3  A    between atoms: C_14  and  C_16
REMARK    4  A    between atoms: C_32  and  C_34
REMARK                            x       y       z     vdW  Elec       q    Type
REMARK                         _______ _______ _______ _____ _____    ______ ____
ROOT
ATOM      1  C   UNL     1       1.721  -0.175  -0.648  0.00  0.00    +0.002 A 
ATOM      2  C   UNL     1       2.099   0.145  -1.909  0.00  0.00    +0.056 A 
ATOM      3  S   UNL     1       2.952  -1.315  -2.472  0.00  0.00    -0.076 S 
ATOM      4  C   UNL     1       2.787  -2.315  -1.017  0.00  0.00    +0.115 A 
ATOM      5  C   UNL     1       2.075  -1.488  -0.122  0.00  0.00    +0.055 A 
ATOM      6  C   UNL     1       1.804  -2.055   1.153  0.00  0.00    +0.135 A 
ATOM      7  N   UNL     1       2.223  -3.280   1.420  0.00  0.00    -0.210 NA
ATOM      8  C   UNL     1       2.894  -4.004   0.531  0.00  0.00    +0.181 A 
ATOM      9  N   UNL     1       3.167  -3.529  -0.678  0.00  0.00    -0.219 NA
ENDROOT
BRANCH   6  10
ATOM     10  N   UNL     1       1.107  -1.332   2.106  0.00  0.00    -0.300 N 
ATOM     11  C   UNL     1      -0.321  -1.400   2.368  0.00  0.00    +0.079 C 
ATOM     12  C   UNL     1      -1.020  -2.722   2.129  0.00  0.00    +0.023 C 
ATOM     13  C   UNL     1      -2.511  -2.516   2.441  0.00  0.00    +0.002 C 
ATOM     14  C   UNL     1      -2.717  -2.015   3.867  0.00  0.00    +0.000 C 
ATOM     15  C   UNL     1      -1.905  -0.739   4.139  0.00  0.00    +0.005 C 
ATOM     16  C   UNL     1      -0.443  -1.089   3.885  0.00  0.00    +0.012 C 
ATOM     17  C   UNL     1       0.528   0.097   3.998  0.00  0.00    +0.037 C 
ATOM     18  C   UNL     1       1.679  -0.348   3.055  0.00  0.00    +0.161 C 
BRANCH  18  19
ATOM     19  C   UNL     1       2.210   0.844   2.301  0.00  0.00    +0.231 C 
ATOM     20  O   UNL     1       2.708   0.695   1.205  0.00  0.00    -0.274 OA
ATOM     21  N   UNL     1       2.133   2.075   2.845  0.00  0.00    -0.328 N 
ATOM     22  H   UNL     1       1.657   2.207   3.680  0.00  0.00    +0.145 HD
ATOM     23  H   UNL     1       2.553   2.828   2.401  0.00  0.00    +0.145 HD
ENDBRANCH  18  19
ENDBRANCH   6  10
BRANCH   1  27
ATOM     24  C   UNL     1      -0.438   2.604   1.736  0.00  0.00    +0.000 A 
ATOM     25  C   UNL     1       0.835   2.917   1.296  0.00  0.00    +0.001 A 
ATOM     26  C   UNL     1       1.541   2.019   0.522  0.00  0.00    +0.008 A 
ATOM     27  C   UNL     1       0.968   0.794   0.183  0.00  0.00    -0.017 A 
ATOM     28  C   UNL     1      -0.316   0.484   0.629  0.00  0.00    +0.008 A 
ATOM     29  C   UNL     1      -1.012   1.390   1.403  0.00  0.00    +0.001 A 
ENDBRANCH   1  27
BRANCH   8  30
ATOM     30  C   UNL     1       3.338  -5.373   0.892  0.00  0.00    +0.108 A 
ATOM     31  C   UNL     1       4.047  -6.136  -0.033  0.00  0.00    +0.031 A 
ATOM     32  C   UNL     1       4.454  -7.412   0.319  0.00  0.00    +0.004 A 
ATOM     33  C   UNL     1       4.138  -7.882   1.585  0.00  0.00    +0.020 A 
ATOM     34  C   UNL     1       3.431  -7.069   2.454  0.00  0.00    +0.111 A 
ATOM     35  N   UNL     1       3.060  -5.858   2.095  0.00  0.00    -0.252 NA
ENDBRANCH   8  30
TORSDOF 4
