REMARK  Name = ZINC45302463
REMARK  11 active torsions:
REMARK  status: ('A' for Active; 'I' for Inactive)
REMARK    1  A    between atoms: C_1  and  C_2
REMARK    2  A    between atoms: C_4  and  N_17
REMARK    3  A    between atoms: N_8  and  C_9
REMARK    4  A    between atoms: C_9  and  C_10
REMARK    5  A    between atoms: C_10  and  C_11
REMARK    6  A    between atoms: N_17  and  C_18
REMARK    7  A    between atoms: C_18  and  C_20
REMARK    8  A    between atoms: C_18  and  C_27
REMARK    9  A    between atoms: C_20  and  C_21
REMARK   10  A    between atoms: N_29  and  C_30
REMARK   11  A    between atoms: C_30  and  C_31
REMARK                            x       y       z     vdW  Elec       q    Type
REMARK                         _______ _______ _______ _____ _____    ______ ____
ROOT
ATOM      1  N   UNL     1       0.030  -2.826  -2.330  0.00  0.00    -0.317 N 
ATOM      2  H   UNL     1       0.043  -3.795  -2.296  0.00  0.00    +0.148 HD
ENDROOT
BRANCH   1   6
ATOM      3  C   UNL     1      -0.018   1.503   0.010  0.00  0.00    +0.063 C 
ATOM      4  C   UNL     1       0.002  -0.004   0.002  0.00  0.00    +0.019 A 
ATOM      5  C   UNL     1       0.006  -0.696  -1.194  0.00  0.00    +0.064 A 
ATOM      6  C   UNL     1       0.026  -2.091  -1.156  0.00  0.00    +0.124 A 
ATOM      7  N   UNL     1       0.040  -2.705   0.023  0.00  0.00    -0.201 NA
ATOM      8  C   UNL     1       0.035  -2.005   1.148  0.00  0.00    +0.195 A 
ATOM      9  N   UNL     1       0.022  -0.680   1.141  0.00  0.00    -0.332 N 
ATOM     10  N   UNL     1       0.051  -2.674   2.359  0.00  0.00    -0.315 N 
ATOM     11  H   UNL     1       0.064  -3.643   2.377  0.00  0.00    +0.149 HD
ATOM     12  H   UNL     1       0.023  -0.198   1.983  0.00  0.00    +0.168 HD
BRANCH  10  13
ATOM     13  C   UNL     1       0.046  -1.917   3.614  0.00  0.00    +0.109 C 
BRANCH  13  14
ATOM     14  C   UNL     1       0.065  -2.889   4.795  0.00  0.00    +0.055 C 
BRANCH  14  15
ATOM     15  C   UNL     1       0.061  -2.111   6.086  0.00  0.00    -0.028 A 
ATOM     16  C   UNL     1       1.254  -1.727   6.678  0.00  0.00    +0.006 A 
ATOM     17  C   UNL     1       1.202  -1.013   7.865  0.00  0.00    +0.020 A 
ATOM     18  C   UNL     1      -0.030  -0.709   8.415  0.00  0.00    +0.111 A 
ATOM     19  N   UNL     1      -1.145  -1.091   7.823  0.00  0.00    -0.263 NA
ATOM     20  C   UNL     1      -1.133  -1.766   6.691  0.00  0.00    +0.114 A 
ENDBRANCH  14  15
ENDBRANCH  13  14
ENDBRANCH  10  13
ENDBRANCH   1   6
BRANCH   1  21
ATOM     21  C   UNL     1       0.013  -2.139  -3.624  0.00  0.00    +0.162 C 
BRANCH  21  22
ATOM     22  C   UNL     1      -0.580  -3.049  -4.669  0.00  0.00    +0.234 C 
ATOM     23  O   UNL     1      -0.952  -4.162  -4.362  0.00  0.00    -0.274 OA
ATOM     24  N   UNL     1      -0.697  -2.627  -5.943  0.00  0.00    -0.310 N 
ATOM     25  H   UNL     1      -0.399  -1.737  -6.188  0.00  0.00    +0.149 HD
BRANCH  24  26
ATOM     26  C   UNL     1      -1.273  -3.511  -6.958  0.00  0.00    +0.139 C 
BRANCH  26  27
ATOM     27  C   UNL     1      -1.290  -2.805  -8.289  0.00  0.00    -0.028 A 
ATOM     28  C   UNL     1      -2.385  -2.045  -8.654  0.00  0.00    +0.005 A 
ATOM     29  C   UNL     1      -2.402  -1.396  -9.875  0.00  0.00    +0.003 A 
ATOM     30  C   UNL     1      -1.324  -1.507 -10.732  0.00  0.00    +0.038 A 
ATOM     31  C   UNL     1      -0.226  -2.268 -10.368  0.00  0.00    +0.124 A 
ATOM     32  C   UNL     1      -0.208  -2.913  -9.142  0.00  0.00    +0.043 A 
ATOM     33  F   UNL     1       0.828  -2.378 -11.205  0.00  0.00    -0.205 F 
ENDBRANCH  26  27
ENDBRANCH  24  26
ENDBRANCH  21  22
BRANCH  21  34
ATOM     34  C   UNL     1       1.443  -1.769  -4.023  0.00  0.00    +0.066 C 
BRANCH  34  35
ATOM     35  C   UNL     1       1.994  -0.763  -3.045  0.00  0.00    -0.045 A 
ATOM     36  C   UNL     1       1.821   0.589  -3.273  0.00  0.00    +0.004 A 
ATOM     37  C   UNL     1       2.325   1.511  -2.376  0.00  0.00    +0.000 A 
ATOM     38  C   UNL     1       3.002   1.081  -1.250  0.00  0.00    +0.000 A 
ATOM     39  C   UNL     1       3.175  -0.271  -1.021  0.00  0.00    +0.000 A 
ATOM     40  C   UNL     1       2.666  -1.194  -1.916  0.00  0.00    +0.004 A 
ENDBRANCH  34  35
ENDBRANCH  21  34
ENDBRANCH   1  21
TORSDOF 10
