REMARK  Name = ZINC61824672
REMARK  6 active torsions:
REMARK  status: ('A' for Active; 'I' for Inactive)
REMARK    1  A    between atoms: C_1  and  C_2
REMARK    2  A    between atoms: C_2  and  C_3
REMARK    3  A    between atoms: C_2  and  C_4
REMARK    4  A    between atoms: C_2  and  C_16
REMARK    5  A    between atoms: C_4  and  C_5
REMARK    6  A    between atoms: C_16  and  C_17
REMARK                            x       y       z     vdW  Elec       q    Type
REMARK                         _______ _______ _______ _____ _____    ______ ____
ROOT
ATOM      1  C   UNL     1      -2.139  -0.048   1.253  0.00  0.00    +0.110 A 
ATOM      2  N   UNL     1      -1.713  -0.225   2.470  0.00  0.00    -0.213 NA
ATOM      3  H   UNL     1      -3.827   0.908   0.486  0.00  0.00    +0.167 HD
ATOM      4  C   UNL     1      -2.584   0.337   3.346  0.00  0.00    +0.178 A 
ATOM      5  C   UNL     1      -3.622   0.900   2.582  0.00  0.00    +0.086 A 
ATOM      6  N   UNL     1      -3.308   0.644   1.262  0.00  0.00    -0.340 N 
ATOM      7  C   UNL     1      -4.667   1.550   3.223  0.00  0.00    +0.046 A 
ATOM      8  C   UNL     1      -4.645   1.619   4.606  0.00  0.00    +0.038 A 
ATOM      9  C   UNL     1      -3.592   1.043   5.301  0.00  0.00    +0.128 A 
ATOM     10  N   UNL     1      -2.610   0.432   4.674  0.00  0.00    -0.233 NA
ATOM     11 BR   UNL     1      -6.039   2.491   5.540  0.00  0.00    -0.049 Br
ENDROOT
BRANCH   1  12
ATOM     12  C   UNL     1      -1.433  -0.534   0.013  0.00  0.00    +0.081 C 
BRANCH  12  14
ATOM     13  C   UNL     1      -0.019   1.526   0.010  0.00  0.00    +0.012 C 
ATOM     14  C   UNL     1       0.002  -0.004   0.002  0.00  0.00    -0.018 C 
ATOM     15  C   UNL     1       0.742  -0.511   1.242  0.00  0.00    +0.012 C 
BRANCH  14  16
ATOM     16  C   UNL     1       0.718  -0.497  -1.257  0.00  0.00    +0.132 C 
BRANCH  16  17
ATOM     17  C   UNL     1       2.132   0.024  -1.268  0.00  0.00    +0.357 C 
ATOM     18  O   UNL     1       2.530   0.726  -0.353  0.00  0.00    -0.246 OA
ATOM     19  O   UNL     1       2.878  -0.255  -2.191  0.00  0.00    -0.246 OA
ENDBRANCH  16  17
ENDBRANCH  14  16
ENDBRANCH  12  14
ENDBRANCH   1  12
TORSDOF 4
