REMARK  Name = ZINC01374636
REMARK  17 active torsions:
REMARK  status: ('A' for Active; 'I' for Inactive)
REMARK    1  A    between atoms: C_1  and  C_2
REMARK    2  A    between atoms: C_2  and  C_3
REMARK    3  A    between atoms: C_3  and  C_5
REMARK    4  A    between atoms: C_3  and  N_15
REMARK    5  A    between atoms: N_9  and  C_10
REMARK    6  A    between atoms: C_10  and  C_11
REMARK    7  A    between atoms: C_10  and  C_12
REMARK    8  A    between atoms: C_10  and  C_13
REMARK    9  A    between atoms: C_13  and  C_14
REMARK   10  A    between atoms: N_15  and  C_16
REMARK   11  A    between atoms: N_15  and  C_25
REMARK   12  A    between atoms: C_16  and  C_17
REMARK   13  A    between atoms: C_20  and  O_23
REMARK   14  A    between atoms: O_23  and  C_24
REMARK   15  A    between atoms: C_25  and  C_26
REMARK   16  A    between atoms: C_31  and  O_38
REMARK   17  A    between atoms: O_38  and  C_39
REMARK                            x       y       z     vdW  Elec       q    Type
REMARK                         _______ _______ _______ _____ _____    ______ ____
ROOT
ATOM      1  N   UNL     1       0.300   0.388   2.735  0.00  0.00    -0.284 NA
ENDROOT
BRANCH   1   2
ATOM      2  C   UNL     1       0.471   0.116   1.301  0.00  0.00    +0.127 C 
BRANCH   2   3
ATOM      3  C   UNL     1       1.472   1.083   0.723  0.00  0.00    +0.169 A 
ATOM      4  N   UNL     1       2.569   1.512   1.299  0.00  0.00    -0.112 NA
ATOM      5  N   UNL     1       3.154   2.323   0.487  0.00  0.00    -0.023 NA
ATOM      6  N   UNL     1       2.459   2.423  -0.592  0.00  0.00    -0.043 NA
ATOM      7  N   UNL     1       1.417   1.669  -0.487  0.00  0.00    -0.222 N 
BRANCH   7   8
ATOM      8  C   UNL     1       0.369   1.488  -1.495  0.00  0.00    +0.061 C 
ATOM      9  C   UNL     1       0.174  -0.005  -1.765  0.00  0.00    +0.036 C 
ATOM     10  C   UNL     1      -0.941   2.090  -0.982  0.00  0.00    +0.036 C 
BRANCH   8  11
ATOM     11  C   UNL     1       0.780   2.191  -2.790  0.00  0.00    +0.026 C 
ATOM     12  C   UNL     1      -0.314   2.002  -3.842  0.00  0.00    +0.006 C 
ENDBRANCH   8  11
ENDBRANCH   7   8
ENDBRANCH   2   3
BRANCH   2  14
ATOM     13  C   UNL     1      -0.075  -2.300   1.626  0.00  0.00    +0.006 C 
ATOM     14  C   UNL     1       0.976  -1.316   1.110  0.00  0.00    +0.023 C 
ENDBRANCH   2  14
ENDBRANCH   1   2
BRANCH   1  15
ATOM     15  C   UNL     1       1.290  -0.348   3.532  0.00  0.00    +0.120 C 
BRANCH  15  16
ATOM     16  C   UNL     1       2.634   0.321   3.405  0.00  0.00    -0.033 A 
ATOM     17  C   UNL     1       3.673  -0.334   2.768  0.00  0.00    +0.008 A 
ATOM     18  C   UNL     1       4.907   0.277   2.651  0.00  0.00    +0.046 A 
ATOM     19  C   UNL     1       5.103   1.548   3.171  0.00  0.00    +0.120 A 
ATOM     20  C   UNL     1       4.059   2.203   3.809  0.00  0.00    +0.046 A 
ATOM     21  C   UNL     1       2.825   1.590   3.919  0.00  0.00    +0.008 A 
BRANCH  19  22
ATOM     22  O   UNL     1       6.315   2.151   3.057  0.00  0.00    -0.495 OA
ATOM     23  C   UNL     1       6.444   3.459   3.616  0.00  0.00    +0.277 C 
ENDBRANCH  19  22
ENDBRANCH  15  16
ENDBRANCH   1  15
BRANCH   1  24
ATOM     24  C   UNL     1      -1.067   0.071   3.170  0.00  0.00    +0.126 C 
BRANCH  24  25
ATOM     25  C   UNL     1      -2.015   1.122   2.652  0.00  0.00    +0.031 A 
ATOM     26  C   UNL     1      -2.727   0.891   1.520  0.00  0.00    +0.020 A 
ATOM     27  C   UNL     1      -3.639   1.930   1.043  0.00  0.00    -0.001 A 
ATOM     28  C   UNL     1      -4.399   1.748  -0.118  0.00  0.00    +0.013 A 
ATOM     29  C   UNL     1      -5.242   2.734  -0.539  0.00  0.00    +0.046 A 
ATOM     30  C   UNL     1      -5.353   3.925   0.179  0.00  0.00    +0.122 A 
ATOM     31  C   UNL     1      -4.610   4.124   1.330  0.00  0.00    +0.072 A 
ATOM     32  C   UNL     1      -3.747   3.130   1.773  0.00  0.00    +0.053 A 
ATOM     33  N   UNL     1      -2.996   3.302   2.917  0.00  0.00    -0.322 N 
ATOM     34  H   UNL     1      -3.072   4.129   3.419  0.00  0.00    +0.169 HD
ATOM     35  C   UNL     1      -2.164   2.338   3.349  0.00  0.00    +0.254 A 
ATOM     36  O   UNL     1      -1.519   2.523   4.367  0.00  0.00    -0.268 OA
BRANCH  30  37
ATOM     37  O   UNL     1      -6.196   4.896  -0.254  0.00  0.00    -0.495 OA
ATOM     38  C   UNL     1      -6.934   4.629  -1.448  0.00  0.00    +0.277 C 
ENDBRANCH  30  37
ENDBRANCH  24  25
ENDBRANCH   1  24
TORSDOF 11
