REMARK  Name = ZINC20780499
REMARK  8 active torsions:
REMARK  status: ('A' for Active; 'I' for Inactive)
REMARK    1  A    between atoms: C_5  and  N_7
REMARK    2  A    between atoms: N_10  and  C_13
REMARK    3  A    between atoms: N_17  and  C_33
REMARK    4  A    between atoms: C_19  and  C_21
REMARK    5  A    between atoms: C_21  and  C_22
REMARK    6  A    between atoms: C_22  and  C_23
REMARK    7  A    between atoms: N_25  and  C_26
REMARK    8  A    between atoms: C_33  and  C_34
REMARK                            x       y       z     vdW  Elec       q    Type
REMARK                         _______ _______ _______ _____ _____    ______ ____
ROOT
ATOM      1  C   UNL     1      -0.731   1.598   1.414  0.00  0.00    +0.056 C 
ATOM      2  C   UNL     1       0.087   1.085   0.226  0.00  0.00    +0.000 C 
ATOM      3  C   UNL     1      -0.619   1.468  -1.077  0.00  0.00    -0.077 C 
ATOM      4  N   UNL     1      -0.758   2.928  -1.149  0.00  0.00    +0.383 N 
ATOM      5  C   UNL     1      -1.581   3.438  -0.045  0.00  0.00    -0.073 C 
ATOM      6  C   UNL     1      -0.903   3.114   1.289  0.00  0.00    -0.010 C 
ATOM      7  H   UNL     1       0.246   3.366  -1.050  0.00  0.00    -0.081 HD
ENDROOT
BRANCH   1  11
ATOM      8  N   UNL     1       0.289   0.041   5.207  0.00  0.00    -0.325 N 
ATOM      9  C   UNL     1       0.010   1.480   5.106  0.00  0.00    +0.120 C 
ATOM     10  C   UNL     1      -0.791   1.753   3.830  0.00  0.00    +0.103 C 
ATOM     11  N   UNL     1      -0.028   1.285   2.666  0.00  0.00    -0.296 NA
ATOM     12  C   UNL     1       0.252  -0.155   2.767  0.00  0.00    +0.103 C 
ATOM     13  C   UNL     1       1.053  -0.428   4.042  0.00  0.00    +0.120 C 
BRANCH   8  18
ATOM     14  C   UNL     1       2.852   0.022   7.843  0.00  0.00    +0.002 A 
ATOM     15  C   UNL     1       2.284  -0.847   8.755  0.00  0.00    +0.003 A 
ATOM     16  C   UNL     1       1.054  -1.423   8.494  0.00  0.00    +0.040 A 
ATOM     17  C   UNL     1       0.386  -1.127   7.320  0.00  0.00    +0.144 A 
ATOM     18  C   UNL     1       0.958  -0.257   6.398  0.00  0.00    +0.065 A 
ATOM     19  C   UNL     1       2.193   0.319   6.665  0.00  0.00    +0.026 A 
ATOM     20  F   UNL     1      -0.818  -1.686   7.067  0.00  0.00    -0.204 F 
ENDBRANCH   8  18
ENDBRANCH   1  11
BRANCH   6  21
ATOM     21  C   UNL     1       0.469   3.789   1.342  0.00  0.00    +0.012 C 
BRANCH  21  22
ATOM     22  C   UNL     1       0.289   5.309   1.360  0.00  0.00    +0.096 C 
BRANCH  22  23
ATOM     23  C   UNL     1       1.640   5.974   1.412  0.00  0.00    +0.213 C 
ATOM     24  O   UNL     1       2.648   5.299   1.434  0.00  0.00    -0.276 OA
ATOM     25  N   UNL     1       1.729   7.319   1.436  0.00  0.00    -0.312 N 
ATOM     26  H   UNL     1       0.815   7.931   1.416  0.00  0.00    +0.149 HD
BRANCH  25  27
ATOM     27  C   UNL     1       3.042   7.965   1.487  0.00  0.00    +0.073 C 
ATOM     28  C   UNL     1       3.533   7.984   2.949  0.00  0.00    +0.022 C 
ATOM     29  C   UNL     1       5.028   8.159   2.949  0.00  0.00    +0.002 C 
ATOM     30  C   UNL     1       5.449   9.635   3.089  0.00  0.00    +0.000 C 
ATOM     31  C   UNL     1       4.582  10.586   2.243  0.00  0.00    +0.000 C 
ATOM     32  C   UNL     1       4.288  10.034   0.874  0.00  0.00    +0.002 C 
ATOM     33  C   UNL     1       2.932   9.302   0.921  0.00  0.00    +0.022 C 
ENDBRANCH  25  27
ENDBRANCH  22  23
ENDBRANCH  21  22
ENDBRANCH   6  21
BRANCH   4  34
ATOM     34  C   UNL     1      -1.307   3.341  -2.448  0.00  0.00    -0.043 C 
BRANCH  34  35
ATOM     35  C   UNL     1      -2.722   2.839  -2.578  0.00  0.00    -0.061 A 
ATOM     36  C   UNL     1      -2.986   1.597  -3.135  0.00  0.00    +0.021 A 
ATOM     37  C   UNL     1      -4.296   1.167  -3.234  0.00  0.00    +0.111 A 
ATOM     38  N   UNL     1      -5.288   1.928  -2.815  0.00  0.00    -0.263 NA
ATOM     39  C   UNL     1      -5.075   3.117  -2.285  0.00  0.00    +0.111 A 
ATOM     40  C   UNL     1      -3.791   3.610  -2.149  0.00  0.00    +0.021 A 
ENDBRANCH  34  35
ENDBRANCH   4  34
TORSDOF 8
