REMARK  Name = ZINC30976254
REMARK  13 active torsions:
REMARK  status: ('A' for Active; 'I' for Inactive)
REMARK    1  A    between atoms: C_1  and  C_2
REMARK    2  A    between atoms: C_5  and  C_8
REMARK    3  A    between atoms: C_10  and  C_13
REMARK    4  A    between atoms: C_13  and  N_14
REMARK    5  A    between atoms: C_17  and  C_20
REMARK    6  A    between atoms: N_22  and  C_23
REMARK    7  A    between atoms: C_23  and  C_24
REMARK    8  A    between atoms: C_24  and  C_25
REMARK    9  A    between atoms: C_25  and  C_26
REMARK   10  A    between atoms: C_29  and  O_32
REMARK   11  A    between atoms: O_32  and  C_33
REMARK   12  A    between atoms: C_33  and  C_34
REMARK   13  A    between atoms: C_33  and  C_35
REMARK                            x       y       z     vdW  Elec       q    Type
REMARK                         _______ _______ _______ _____ _____    ______ ____
ROOT
ATOM      1  N   UNL     1      -0.679  -8.928  -4.583  0.00  0.00    +0.386 N 
ATOM      2  C   UNL     1       0.597  -9.343  -3.987  0.00  0.00    -0.077 C 
ATOM      3  C   UNL     1       0.794  -8.625  -2.650  0.00  0.00    -0.006 C 
ATOM      4  C   UNL     1       0.785  -7.112  -2.882  0.00  0.00    +0.071 C 
ATOM      5  C   UNL     1      -0.534  -6.713  -3.548  0.00  0.00    -0.006 C 
ATOM      6  C   UNL     1      -0.693  -7.486  -4.859  0.00  0.00    -0.077 C 
ATOM      7  H   UNL     1      -1.474  -9.137  -3.852  0.00  0.00    -0.081 HD
ENDROOT
BRANCH   4   8
ATOM      8  C   UNL     1       0.919  -6.398  -1.562  0.00  0.00    +0.216 C 
ATOM      9  O   UNL     1       1.011  -7.036  -0.534  0.00  0.00    -0.276 OA
ATOM     10  N   UNL     1       0.935  -5.051  -1.522  0.00  0.00    -0.315 N 
ATOM     11  H   UNL     1       0.851  -4.472  -2.454  0.00  0.00    +0.149 HD
BRANCH  10  12
ATOM     12  C   UNL     1       1.065  -4.358  -0.238  0.00  0.00    +0.104 C 
BRANCH  12  13
ATOM     13  C   UNL     1       1.056  -2.846  -0.472  0.00  0.00    +0.023 C 
BRANCH  13  14
ATOM     14  C   UNL     1       1.191  -2.121   0.869  0.00  0.00    +0.036 C 
BRANCH  14  15
ATOM     15  C   UNL     1       1.183  -0.632   0.639  0.00  0.00    -0.047 A 
ATOM     16  C   UNL     1      -0.013   0.061   0.648  0.00  0.00    +0.007 A 
ATOM     17  C   UNL     1      -0.024   1.426   0.437  0.00  0.00    +0.046 A 
ATOM     18  C   UNL     1       1.168   2.102   0.217  0.00  0.00    +0.121 A 
ATOM     19  C   UNL     1       2.367   1.404   0.209  0.00  0.00    +0.046 A 
ATOM     20  C   UNL     1       2.372   0.039   0.419  0.00  0.00    +0.007 A 
BRANCH  18  21
ATOM     21  O   UNL     1       1.160   3.445   0.009  0.00  0.00    -0.489 OA
BRANCH  21  22
ATOM     22  C   UNL     1      -0.117   4.079  -0.087  0.00  0.00    +0.167 C 
ATOM     23  C   UNL     1      -0.629   4.410   1.317  0.00  0.00    +0.051 C 
ATOM     24  C   UNL     1       0.015   5.370  -0.899  0.00  0.00    +0.051 C 
ENDBRANCH  21  22
ENDBRANCH  18  21
ENDBRANCH  14  15
ENDBRANCH  13  14
ENDBRANCH  12  13
ENDBRANCH  10  12
ENDBRANCH   4   8
BRANCH   1  25
ATOM     25  C   UNL     1      -0.967  -9.700  -5.800  0.00  0.00    +0.022 C 
BRANCH  25  28
ATOM     26  C   UNL     1      -4.112  -8.623  -7.167  0.00  0.00    +0.202 A 
ATOM     27  N   UNL     1      -2.771  -8.484  -7.064  0.00  0.00    -0.193 NA
ATOM     28  C   UNL     1      -2.381  -9.428  -6.244  0.00  0.00    +0.211 A 
ATOM     29  O   UNL     1      -3.473 -10.108  -5.880  0.00  0.00    -0.340 OA
ATOM     30  N   UNL     1      -4.454  -9.633  -6.411  0.00  0.00    -0.056 NA
BRANCH  26  35
ATOM     31  C   UNL     1      -7.652  -5.369 -10.338  0.00  0.00    +0.044 C 
ATOM     32  C   UNL     1      -6.726  -6.221  -9.508  0.00  0.00    -0.050 A 
ATOM     33  C   UNL     1      -7.237  -7.263  -8.756  0.00  0.00    +0.004 A 
ATOM     34  C   UNL     1      -6.393  -8.046  -7.994  0.00  0.00    +0.012 A 
ATOM     35  C   UNL     1      -5.024  -7.785  -7.985  0.00  0.00    +0.022 A 
ATOM     36  C   UNL     1      -4.516  -6.731  -8.741  0.00  0.00    +0.012 A 
ATOM     37  C   UNL     1      -5.368  -5.957  -9.502  0.00  0.00    +0.004 A 
ENDBRANCH  26  35
ENDBRANCH  25  28
ENDBRANCH   1  25
TORSDOF 10
