REMARK  Name = ZINC17274777
REMARK  8 active torsions:
REMARK  status: ('A' for Active; 'I' for Inactive)
REMARK    1  A    between atoms: C_1  and  C_2
REMARK    2  A    between atoms: C_2  and  C_4
REMARK    3  A    between atoms: C_2  and  S_17
REMARK    4  A    between atoms: N_6  and  C_7
REMARK    5  A    between atoms: C_10  and  N_14
REMARK    6  A    between atoms: S_17  and  C_18
REMARK    7  A    between atoms: C_20  and  C_28
REMARK    8  A    between atoms: N_30  and  C_31
REMARK                            x       y       z     vdW  Elec       q    Type
REMARK                         _______ _______ _______ _____ _____    ______ ____
ROOT
ATOM      1  S   UNL     1       1.205   4.147   0.137  0.00  0.00    -0.093 S 
ENDROOT
BRANCH   1   2
ATOM      2  C   UNL     1       1.135   2.387   0.169  0.00  0.00    +0.099 A 
ATOM      3  C   UNL     1      -0.118   1.760   0.228  0.00  0.00    +0.048 A 
ATOM      4  C   UNL     1      -0.187   0.376   0.253  0.00  0.00    +0.048 A 
ATOM      5  C   UNL     1       1.077  -0.360   0.217  0.00  0.00    +0.013 A 
ATOM      6  C   UNL     1       1.109  -1.759   0.239  0.00  0.00    +0.011 A 
ATOM      7  C   UNL     1       2.309  -2.406   0.203  0.00  0.00    +0.001 A 
ATOM      8  C   UNL     1       3.503  -1.691   0.145  0.00  0.00    +0.002 A 
ATOM      9  C   UNL     1       3.506  -0.330   0.123  0.00  0.00    +0.028 A 
ATOM     10  C   UNL     1       2.288   0.371   0.158  0.00  0.00    +0.073 A 
ATOM     11  N   UNL     1       2.260   1.707   0.137  0.00  0.00    -0.240 NA
BRANCH   4  12
ATOM     12  C   UNL     1      -1.486  -0.328   0.316  0.00  0.00    +0.245 C 
ATOM     13  O   UNL     1      -1.525  -1.540   0.238  0.00  0.00    -0.270 OA
ATOM     14  N   UNL     1      -2.628   0.374   0.459  0.00  0.00    -0.308 N 
ATOM     15  H   UNL     1      -2.597   1.342   0.522  0.00  0.00    +0.149 HD
BRANCH  14  16
ATOM     16  C   UNL     1      -3.914  -0.324   0.521  0.00  0.00    +0.073 C 
ATOM     17  C   UNL     1      -5.075   0.262  -0.285  0.00  0.00    +0.024 C 
ATOM     18  C   UNL     1      -5.066   0.381   1.241  0.00  0.00    +0.024 C 
ENDBRANCH  14  16
ENDBRANCH   4  12
ENDBRANCH   1   2
BRANCH   1  20
ATOM     19  C   UNL     1       3.634   3.876   1.356  0.00  0.00    +0.029 C 
ATOM     20  C   UNL     1       2.997   4.390   0.063  0.00  0.00    +0.136 C 
BRANCH  20  21
ATOM     21  C   UNL     1       3.299   5.858  -0.097  0.00  0.00    +0.230 C 
ATOM     22  O   UNL     1       2.500   6.687   0.285  0.00  0.00    -0.274 OA
ATOM     23  N   UNL     1       4.457   6.249  -0.664  0.00  0.00    -0.283 N 
ATOM     24  H   UNL     1       5.059   5.590  -1.044  0.00  0.00    +0.155 HD
BRANCH  23  25
ATOM     25  C   UNL     1       4.792   7.608  -0.706  0.00  0.00    +0.052 A 
ATOM     26  C   UNL     1       4.418   8.449   0.333  0.00  0.00    +0.027 A 
ATOM     27  C   UNL     1       4.750   9.789   0.289  0.00  0.00    +0.034 A 
ATOM     28  C   UNL     1       5.454  10.294  -0.789  0.00  0.00    +0.128 A 
ATOM     29  C   UNL     1       5.828   9.460  -1.826  0.00  0.00    +0.054 A 
ATOM     30  C   UNL     1       5.504   8.117  -1.786  0.00  0.00    +0.064 A 
ATOM     31 CL   UNL     1       5.981   7.068  -3.084  0.00  0.00    -0.082 Cl
BRANCH  28  32
ATOM     32  N   UNL     1       5.807  11.731  -0.832  0.00  0.00    +0.056 N 
ATOM     33  O   UNL     1       5.478  12.467   0.081  0.00  0.00    -0.126 OA
ATOM     34  O   UNL     1       6.427  12.177  -1.781  0.00  0.00    -0.126 OA
ENDBRANCH  28  32
ENDBRANCH  23  25
ENDBRANCH  20  21
ENDBRANCH   1  20
TORSDOF 7
