REMARK  Name = ZINC08636857
REMARK  5 active torsions:
REMARK  status: ('A' for Active; 'I' for Inactive)
REMARK    1  A    between atoms: C_1  and  O_2
REMARK    2  A    between atoms: O_2  and  C_3
REMARK    3  A    between atoms: C_8  and  N_9
REMARK    4  A    between atoms: N_12  and  C_13
REMARK    5  A    between atoms: C_14  and  C_18
REMARK                            x       y       z     vdW  Elec       q    Type
REMARK                         _______ _______ _______ _____ _____    ______ ____
ROOT
ATOM      1  N   UNL     1       2.368   5.633   0.009  0.00  0.00    -0.266 N 
ATOM      2  C   UNL     1       1.715   4.454   0.005  0.00  0.00    +0.309 C 
ATOM      3  O   UNL     1       0.500   4.432   0.024  0.00  0.00    -0.252 OA
ATOM      4  N   UNL     1       2.410   3.299  -0.021  0.00  0.00    -0.263 N 
ATOM      5  H   UNL     1       3.336   5.651   0.076  0.00  0.00    +0.156 HD
ATOM      6  H   UNL     1       3.379   3.316  -0.037  0.00  0.00    +0.157 HD
ENDROOT
BRANCH   1  12
ATOM      7  C   UNL     1       2.195   8.013   0.414  0.00  0.00    +0.141 A 
ATOM      8  C   UNL     1       1.481   9.197   0.320  0.00  0.00    +0.049 A 
ATOM      9  C   UNL     1       0.230   9.204  -0.267  0.00  0.00    +0.024 A 
ATOM     10  C   UNL     1      -0.314   8.032  -0.762  0.00  0.00    +0.043 A 
ATOM     11  C   UNL     1       0.396   6.848  -0.676  0.00  0.00    +0.047 A 
ATOM     12  C   UNL     1       1.650   6.832  -0.084  0.00  0.00    +0.078 A 
ATOM     13 CL   UNL     1      -1.886   8.049  -1.498  0.00  0.00    -0.083 Cl
BRANCH   7  15
ATOM     14  C   UNL     1       3.923   9.252   1.481  0.00  0.00    +0.277 C 
ATOM     15  O   UNL     1       3.426   8.005   0.992  0.00  0.00    -0.493 OA
ENDBRANCH   7  15
ENDBRANCH   1  12
BRANCH   4  16
ATOM     16  C   UNL     1       1.736   2.083  -0.025  0.00  0.00    +0.083 A 
ATOM     17  C   UNL     1       2.260   0.797  -0.050  0.00  0.00    +0.036 A 
ATOM     18  C   UNL     1       1.319  -0.293  -0.049  0.00  0.00    +0.020 A 
ATOM     19  C   UNL     1       0.004  -0.005  -0.025  0.00  0.00    +0.048 A 
ATOM     20  S   UNL     1      -0.021   1.778  -0.002  0.00  0.00    -0.081 S 
BRANCH  17  21
ATOM     21  C   UNL     1       3.713   0.559  -0.076  0.00  0.00    +0.112 A 
ATOM     22  N   UNL     1       4.694   1.438  -0.086  0.00  0.00    -0.239 NA
ATOM     23  C   UNL     1       5.992   1.073  -0.106  0.00  0.00    +0.079 A 
ATOM     24  C   UNL     1       7.135   1.908  -0.114  0.00  0.00    +0.029 A 
ATOM     25  C   UNL     1       8.395   1.370  -0.141  0.00  0.00    +0.002 A 
ATOM     26  C   UNL     1       8.597  -0.003  -0.161  0.00  0.00    +0.001 A 
ATOM     27  C   UNL     1       7.504  -0.849  -0.154  0.00  0.00    +0.017 A 
ATOM     28  C   UNL     1       6.237  -0.320  -0.128  0.00  0.00    +0.040 A 
ATOM     29  S   UNL     1       4.594  -0.995  -0.110  0.00  0.00    -0.067 S 
ENDBRANCH  17  21
ENDBRANCH   4  16
TORSDOF 4
