REMARK  Name = ZINC35926256
REMARK  12 active torsions:
REMARK  status: ('A' for Active; 'I' for Inactive)
REMARK    1  A    between atoms: C_1  and  C_2
REMARK    2  A    between atoms: C_2  and  C_3
REMARK    3  A    between atoms: C_3  and  C_4
REMARK    4  A    between atoms: C_4  and  C_5
REMARK    5  A    between atoms: C_5  and  C_7
REMARK    6  A    between atoms: C_5  and  C_9
REMARK    7  A    between atoms: C_7  and  C_8
REMARK    8  A    between atoms: C_23  and  C_25
REMARK    9  A    between atoms: C_25  and  N_26
REMARK   10  A    between atoms: N_29  and  C_32
REMARK   11  A    between atoms: C_37  and  O_38
REMARK   12  A    between atoms: O_38  and  C_39
REMARK                            x       y       z     vdW  Elec       q    Type
REMARK                         _______ _______ _______ _____ _____    ______ ____
ROOT
ATOM      1  C   UNL     1      -3.030  -3.801  -2.722  0.00  0.00    +0.219 C 
ATOM      2  O   UNL     1      -2.961  -2.598  -2.583  0.00  0.00    -0.275 OA
ATOM      3  N   UNL     1      -4.226  -4.388  -2.925  0.00  0.00    -0.298 N 
ATOM      4  C   UNL     1      -4.336  -5.851  -3.011  0.00  0.00    +0.127 C 
ATOM      5  C   UNL     1      -5.363  -6.327  -1.976  0.00  0.00    +0.127 C 
ATOM      6  N   UNL     1      -6.580  -5.516  -2.116  0.00  0.00    -0.298 N 
ATOM      7  C   UNL     1      -6.471  -4.053  -2.030  0.00  0.00    +0.127 C 
ATOM      8  C   UNL     1      -5.444  -3.578  -3.059  0.00  0.00    +0.127 C 
ATOM      9  C   UNL     1      -7.795  -6.113  -2.322  0.00  0.00    +0.198 A 
ATOM     10  N   UNL     1      -7.889  -7.470  -2.284  0.00  0.00    -0.295 N 
ATOM     11  H   UNL     1      -7.100  -8.007  -2.111  0.00  0.00    +0.172 HD
ATOM     12  C   UNL     1      -9.083  -8.065  -2.486  0.00  0.00    +0.253 A 
ATOM     13  O   UNL     1      -9.185  -9.281  -2.455  0.00  0.00    -0.268 OA
ATOM     14  C   UNL     1     -10.208  -7.258  -2.734  0.00  0.00    +0.091 A 
ATOM     15  C   UNL     1     -10.053  -5.902  -2.761  0.00  0.00    +0.034 A 
ATOM     16  N   UNL     1      -8.855  -5.363  -2.550  0.00  0.00    -0.223 NA
ENDROOT
BRANCH   1  17
ATOM     17  C   UNL     1      -1.779  -4.639  -2.668  0.00  0.00    +0.075 C 
BRANCH  17  18
ATOM     18  C   UNL     1      -1.514  -5.251  -4.045  0.00  0.00    +0.009 C 
ATOM     19  C   UNL     1      -1.213  -4.137  -5.049  0.00  0.00    +0.004 C 
ENDBRANCH  17  18
BRANCH  17  20
ATOM     20  C   UNL     1      -0.593  -3.760  -2.265  0.00  0.00    +0.013 C 
BRANCH  20  21
ATOM     21  C   UNL     1       0.649  -4.633  -2.075  0.00  0.00    +0.000 C 
BRANCH  21  23
ATOM     22  C   UNL     1       3.100  -4.616  -1.595  0.00  0.00    +0.004 C 
ATOM     23  C   UNL     1       1.858  -3.743  -1.784  0.00  0.00    -0.003 C 
ENDBRANCH  21  23
ENDBRANCH  20  21
ENDBRANCH  17  20
ENDBRANCH   1  17
BRANCH  15  24
ATOM     24  C   UNL     1     -11.242  -5.015  -3.024  0.00  0.00    -0.022 C 
BRANCH  24  25
ATOM     25  N   UNL     1     -11.520  -4.203  -1.831  0.00  0.00    +0.385 N 
ATOM     26  C   UNL     1     -11.916  -5.082  -0.724  0.00  0.00    -0.059 C 
ATOM     27  C   UNL     1     -12.095  -4.249   0.549  0.00  0.00    +0.086 C 
ATOM     28  N   UNL     1     -13.047  -3.163   0.266  0.00  0.00    -0.331 N 
ATOM     29  C   UNL     1     -12.815  -2.331  -0.925  0.00  0.00    +0.086 C 
ATOM     30  C   UNL     1     -12.602  -3.255  -2.128  0.00  0.00    -0.059 C 
ATOM     31  H   UNL     1     -10.689  -3.693  -1.572  0.00  0.00    -0.081 HD
BRANCH  28  32
ATOM     32  C   UNL     1     -14.141  -2.928   1.106  0.00  0.00    +0.072 A 
ATOM     33  C   UNL     1     -14.021  -2.052   2.176  0.00  0.00    +0.027 A 
ATOM     34  C   UNL     1     -15.104  -1.821   3.004  0.00  0.00    +0.002 A 
ATOM     35  C   UNL     1     -16.307  -2.461   2.769  0.00  0.00    +0.004 A 
ATOM     36  C   UNL     1     -16.434  -3.334   1.704  0.00  0.00    +0.047 A 
ATOM     37  C   UNL     1     -15.355  -3.567   0.867  0.00  0.00    +0.141 A 
BRANCH  37  38
ATOM     38  O   UNL     1     -15.480  -4.422  -0.183  0.00  0.00    -0.493 OA
ATOM     39  C   UNL     1     -16.755  -5.042  -0.368  0.00  0.00    +0.277 C 
ENDBRANCH  37  38
ENDBRANCH  28  32
ENDBRANCH  24  25
ENDBRANCH  15  24
TORSDOF 9
