REMARK  Name = ZINC23297323
REMARK  9 active torsions:
REMARK  status: ('A' for Active; 'I' for Inactive)
REMARK    1  A    between atoms: C_1  and  C_2
REMARK    2  A    between atoms: C_2  and  C_3
REMARK    3  A    between atoms: C_8  and  N_9
REMARK    4  A    between atoms: C_10  and  C_12
REMARK    5  A    between atoms: C_12  and  N_13
REMARK    6  A    between atoms: C_19  and  C_21
REMARK    7  A    between atoms: C_21  and  N_22
REMARK    8  A    between atoms: N_25  and  C_28
REMARK    9  A    between atoms: C_28  and  C_29
REMARK                            x       y       z     vdW  Elec       q    Type
REMARK                         _______ _______ _______ _____ _____    ______ ____
ROOT
ATOM      1  N   UNL     1      -3.980  -0.679   5.034  0.00  0.00    -0.291 NA
ATOM      2  C   UNL     1      -3.833  -2.114   5.311  0.00  0.00    +0.104 C 
ATOM      3  C   UNL     1      -4.196  -2.388   6.774  0.00  0.00    +0.123 C 
ATOM      4  N   UNL     1      -5.535  -1.839   7.034  0.00  0.00    -0.301 N 
ATOM      5  C   UNL     1      -5.800  -0.443   6.655  0.00  0.00    +0.123 C 
ATOM      6  C   UNL     1      -5.374  -0.245   5.197  0.00  0.00    +0.104 C 
ATOM      7  C   UNL     1      -6.494  -2.595   7.605  0.00  0.00    +0.199 C 
ATOM      8  O   UNL     1      -6.258  -3.744   7.912  0.00  0.00    -0.278 OA
ENDROOT
BRANCH   1   9
ATOM      9  C   UNL     1      -3.478  -0.347   3.694  0.00  0.00    +0.180 C 
BRANCH   9  11
ATOM     10  N   UNL     1      -1.309  -0.339   2.505  0.00  0.00    -0.284 N 
ATOM     11  C   UNL     1      -1.990  -0.578   3.643  0.00  0.00    +0.231 C 
ATOM     12  O   UNL     1      -1.405  -0.980   4.627  0.00  0.00    -0.274 OA
ATOM     13  H   UNL     1      -1.764   0.044   1.739  0.00  0.00    +0.155 HD
BRANCH  10  19
ATOM     14  C   UNL     1       0.600  -1.100   1.236  0.00  0.00    -0.026 A 
ATOM     15  C   UNL     1       1.948  -1.393   1.163  0.00  0.00    +0.005 A 
ATOM     16  C   UNL     1       2.753  -1.237   2.276  0.00  0.00    +0.000 A 
ATOM     17  C   UNL     1       2.212  -0.786   3.466  0.00  0.00    +0.002 A 
ATOM     18  C   UNL     1       0.865  -0.491   3.546  0.00  0.00    +0.023 A 
ATOM     19  C   UNL     1       0.055  -0.642   2.429  0.00  0.00    +0.037 A 
BRANCH  14  21
ATOM     20  C   UNL     1      -0.393   0.066  -0.714  0.00  0.00    +0.009 C 
ATOM     21  C   UNL     1      -0.277  -1.270   0.022  0.00  0.00    +0.033 C 
ENDBRANCH  14  21
ENDBRANCH  10  19
ENDBRANCH   9  11
ENDBRANCH   1   9
BRANCH   7  22
ATOM     22  C   UNL     1      -7.860  -2.012   7.862  0.00  0.00    +0.019 C 
BRANCH  22  23
ATOM     23  N   UNL     1      -8.716  -3.029   8.486  0.00  0.00    +0.387 N 
ATOM     24  C   UNL     1      -8.935  -4.132   7.542  0.00  0.00    -0.063 C 
ATOM     25  C   UNL     1      -9.812  -5.200   8.198  0.00  0.00    +0.066 C 
ATOM     26  N   UNL     1     -11.098  -4.604   8.587  0.00  0.00    -0.302 NA
ATOM     27  C   UNL     1     -10.893  -3.481   9.514  0.00  0.00    +0.066 C 
ATOM     28  C   UNL     1     -10.007  -2.427   8.846  0.00  0.00    -0.063 C 
ATOM     29  H   UNL     1      -8.267  -3.382   9.318  0.00  0.00    -0.081 HD
BRANCH  26  30
ATOM     30  C   UNL     1     -11.991  -5.613   9.171  0.00  0.00    +0.119 C 
BRANCH  30  31
ATOM     31  C   UNL     1     -13.372  -5.030   9.329  0.00  0.00    -0.033 A 
ATOM     32  C   UNL     1     -13.716  -4.376  10.497  0.00  0.00    +0.006 A 
ATOM     33  C   UNL     1     -14.982  -3.841  10.643  0.00  0.00    +0.020 A 
ATOM     34  C   UNL     1     -15.905  -3.960   9.619  0.00  0.00    +0.041 A 
ATOM     35  C   UNL     1     -15.560  -4.614   8.450  0.00  0.00    +0.020 A 
ATOM     36  C   UNL     1     -14.292  -5.144   8.303  0.00  0.00    +0.006 A 
ATOM     37 CL   UNL     1     -17.496  -3.289   9.802  0.00  0.00    -0.084 Cl
ENDBRANCH  30  31
ENDBRANCH  26  30
ENDBRANCH  22  23
ENDBRANCH   7  22
TORSDOF 8
