REMARK  Name = ZINC63514301
REMARK  9 active torsions:
REMARK  status: ('A' for Active; 'I' for Inactive)
REMARK    1  A    between atoms: C_1  and  C_2
REMARK    2  A    between atoms: C_2  and  O_3
REMARK    3  A    between atoms: O_3  and  C_4
REMARK    4  A    between atoms: C_7  and  S_14
REMARK    5  A    between atoms: S_14  and  N_17
REMARK    6  A    between atoms: N_17  and  C_18
REMARK    7  A    between atoms: C_18  and  C_19
REMARK    8  A    between atoms: C_19  and  C_20
REMARK    9  A    between atoms: C_28  and  C_30
REMARK                            x       y       z     vdW  Elec       q    Type
REMARK                         _______ _______ _______ _____ _____    ______ ____
ROOT
ATOM      1  S   UNL     1      -1.987  -6.519  -0.055  0.00  0.00    +0.059 S 
ATOM      2  O   UNL     1      -0.682  -7.065   0.074  0.00  0.00    -0.153 OA
ATOM      3  O   UNL     1      -2.214  -5.176  -0.463  0.00  0.00    -0.153 OA
ENDROOT
BRANCH   1   7
ATOM      4  C   UNL     1      -4.237  -9.142  -3.028  0.00  0.00    +0.128 A 
ATOM      5  C   UNL     1      -4.207  -7.782  -3.160  0.00  0.00    +0.048 A 
ATOM      6  C   UNL     1      -3.517  -6.989  -2.246  0.00  0.00    +0.033 A 
ATOM      7  C   UNL     1      -2.853  -7.545  -1.196  0.00  0.00    +0.113 A 
ATOM      8  C   UNL     1      -2.859  -8.940  -1.025  0.00  0.00    +0.012 A 
ATOM      9  C   UNL     1      -3.564  -9.750  -1.949  0.00  0.00    +0.026 A 
ATOM     10  C   UNL     1      -3.574 -11.144  -1.776  0.00  0.00    +0.012 A 
ATOM     11  C   UNL     1      -2.913 -11.696  -0.722  0.00  0.00    +0.001 A 
ATOM     12  C   UNL     1      -2.224 -10.899   0.191  0.00  0.00    +0.001 A 
ATOM     13  C   UNL     1      -2.183  -9.546   0.048  0.00  0.00    +0.010 A 
BRANCH   4  14
ATOM     14  O   UNL     1      -4.914  -9.901  -3.927  0.00  0.00    -0.492 OA
BRANCH  14  16
ATOM     15  C   UNL     1      -6.275 -10.227  -5.898  0.00  0.00    +0.048 C 
ATOM     16  C   UNL     1      -5.571  -9.213  -4.994  0.00  0.00    +0.226 C 
ENDBRANCH  14  16
ENDBRANCH   4  14
ENDBRANCH   1   7
BRANCH   1  17
ATOM     17  N   UNL     1      -2.722  -6.696   1.419  0.00  0.00    -0.190 NA
ATOM     18  H   UNL     1      -2.229  -7.076   2.163  0.00  0.00    +0.148 HD
BRANCH  17  19
ATOM     19  C   UNL     1      -4.115  -6.280   1.597  0.00  0.00    +0.110 C 
BRANCH  19  20
ATOM     20  C   UNL     1      -4.677  -6.915   2.871  0.00  0.00    +0.050 C 
BRANCH  20  21
ATOM     21  C   UNL     1      -6.065  -6.385   3.126  0.00  0.00    -0.037 C 
ATOM     22  C   UNL     1      -6.785  -5.571   2.321  0.00  0.00    +0.000 A 
ATOM     23  C   UNL     1      -6.502  -4.958   1.018  0.00  0.00    +0.025 A 
ATOM     24  C   UNL     1      -7.442  -4.170   0.446  0.00  0.00    +0.019 A 
ATOM     25  C   UNL     1      -8.676  -3.925   1.066  0.00  0.00    +0.017 A 
ATOM     26  C   UNL     1      -9.007  -4.453   2.264  0.00  0.00    +0.027 A 
ATOM     27  C   UNL     1      -8.095  -5.297   2.955  0.00  0.00    +0.043 A 
ATOM     28  N   UNL     1      -8.181  -5.918   4.106  0.00  0.00    -0.378 N 
ATOM     29  C   UNL     1      -6.936  -6.661   4.331  0.00  0.00    +0.103 C 
ATOM     30  C   UNL     1      -6.250  -6.162   5.604  0.00  0.00    +0.035 C 
ATOM     31 BR   UNL     1      -7.082  -3.379  -1.233  0.00  0.00    -0.050 Br
ATOM     32  H   UNL     1      -8.942  -5.893   4.707  0.00  0.00    +0.160 HD
ENDBRANCH  20  21
ENDBRANCH  19  20
ENDBRANCH  17  19
ENDBRANCH   1  17
TORSDOF 7
