REMARK  Name = ZINC49181783
REMARK  5 active torsions:
REMARK  status: ('A' for Active; 'I' for Inactive)
REMARK    1  A    between atoms: C_1  and  C_2
REMARK    2  A    between atoms: C_2  and  O_17
REMARK    3  A    between atoms: C_12  and  C_13
REMARK    4  A    between atoms: C_12  and  C_14
REMARK    5  A    between atoms: C_14  and  O_15
REMARK                            x       y       z     vdW  Elec       q    Type
REMARK                         _______ _______ _______ _____ _____    ______ ____
ROOT
ATOM      1  C   UNL     1      -0.019   1.526   0.010  0.00  0.00    +0.041 C 
ATOM      2  C   UNL     1       0.002  -0.004   0.002  0.00  0.00    +0.067 C 
ATOM      3  C   UNL     1      -1.433  -0.535   0.021  0.00  0.00    +0.035 C 
ATOM      4  C   UNL     1      -1.413  -2.059  -0.099  0.00  0.00    +0.011 C 
ATOM      5  C   UNL     1      -0.702  -2.664   1.116  0.00  0.00    +0.024 C 
ATOM      6  C   UNL     1       0.651  -2.039   1.273  0.00  0.00    -0.060 C 
ATOM      7  C   UNL     1       1.767  -2.738   1.474  0.00  0.00    +0.046 C 
ATOM      8  C   UNL     1       1.711  -4.201   1.566  0.00  0.00    +0.157 C 
ATOM      9  O   UNL     1       2.691  -4.891   1.377  0.00  0.00    -0.293 OA
ATOM     10  C   UNL     1       0.364  -4.806   1.910  0.00  0.00    +0.088 C 
ATOM     11  C   UNL     1      -0.656  -4.175   0.972  0.00  0.00    +0.005 C 
ATOM     12  C   UNL     1      -0.304  -4.527  -0.475  0.00  0.00    +0.014 C 
ATOM     13  C   UNL     1       0.742  -0.513   1.242  0.00  0.00    +0.065 C 
ENDROOT
BRANCH   2  14
ATOM     14  O   UNL     1       0.668  -0.466  -1.175  0.00  0.00    -0.389 OA
ATOM     15  H   UNL     1       1.585  -0.169  -1.251  0.00  0.00    +0.210 HD
ENDBRANCH   2  14
BRANCH  11  16
ATOM     16  C   UNL     1      -2.036  -4.750   1.302  0.00  0.00    +0.163 C 
BRANCH  16  17
ATOM     17  O   UNL     1      -2.003  -6.172   1.168  0.00  0.00    -0.394 OA
ATOM     18  H   UNL     1      -2.846  -6.604   1.363  0.00  0.00    +0.209 HD
ENDBRANCH  16  17
ENDBRANCH  11  16
TORSDOF 3
