REMARK  Name = ZINC64277689
REMARK  7 active torsions:
REMARK  status: ('A' for Active; 'I' for Inactive)
REMARK    1  A    between atoms: C_1  and  C_2
REMARK    2  A    between atoms: C_6  and  N_8
REMARK    3  A    between atoms: C_9  and  C_11
REMARK    4  A    between atoms: C_11  and  C_13
REMARK    5  A    between atoms: C_11  and  N_23
REMARK    6  A    between atoms: C_13  and  C_14
REMARK    7  A    between atoms: C_24  and  C_26
REMARK                            x       y       z     vdW  Elec       q    Type
REMARK                         _______ _______ _______ _____ _____    ______ ____
ROOT
ATOM      1  C   UNL     1      -0.129  -4.898   3.686  0.00  0.00    +0.163 C 
ENDROOT
BRANCH   1   3
ATOM      2  N   UNL     1       0.052  -2.797   2.393  0.00  0.00    -0.284 N 
ATOM      3  C   UNL     1      -0.031  -4.143   2.385  0.00  0.00    +0.238 C 
ATOM      4  O   UNL     1      -0.028  -4.745   1.333  0.00  0.00    -0.273 OA
ATOM      5  H   UNL     1       0.127  -2.321   3.234  0.00  0.00    +0.155 HD
BRANCH   2  11
ATOM      6  C   UNL     1       1.525   1.061  -0.275  0.00  0.00    +0.044 C 
ATOM      7  C   UNL     1       0.736  -0.215  -0.134  0.00  0.00    -0.049 A 
ATOM      8  C   UNL     1      -0.011  -0.687  -1.199  0.00  0.00    +0.003 A 
ATOM      9  C   UNL     1      -0.736  -1.857  -1.074  0.00  0.00    +0.002 A 
ATOM     10  C   UNL     1      -0.717  -2.559   0.116  0.00  0.00    +0.023 A 
ATOM     11  C   UNL     1       0.031  -2.089   1.186  0.00  0.00    +0.034 A 
ATOM     12  C   UNL     1       0.763  -0.915   1.056  0.00  0.00    +0.026 A 
ENDBRANCH   2  11
ENDBRANCH   1   3
BRANCH   1  13
ATOM     13  N   UNL     1      -0.207  -6.335   3.410  0.00  0.00    -0.302 N 
ATOM     14  C   UNL     1      -0.788  -7.161   4.303  0.00  0.00    +0.231 C 
ATOM     15  O   UNL     1      -1.245  -6.715   5.334  0.00  0.00    -0.274 OA
ATOM     16  H   UNL     1       0.158  -6.692   2.586  0.00  0.00    +0.150 HD
BRANCH  14  17
ATOM     17  C   UNL     1      -0.869  -8.639   4.020  0.00  0.00    +0.145 C 
ATOM     18  C   UNL     1      -2.038  -8.918   3.075  0.00  0.00    +0.063 C 
ATOM     19  C   UNL     1      -2.278 -10.403   2.978  0.00  0.00    -0.041 A 
ATOM     20  C   UNL     1      -3.039 -10.882   1.921  0.00  0.00    +0.004 A 
ATOM     21  C   UNL     1      -3.286 -12.234   1.797  0.00  0.00    +0.000 A 
ATOM     22  C   UNL     1      -2.773 -13.116   2.731  0.00  0.00    +0.000 A 
ATOM     23  C   UNL     1      -2.015 -12.640   3.781  0.00  0.00    +0.005 A 
ATOM     24  C   UNL     1      -1.764 -11.281   3.906  0.00  0.00    -0.030 A 
ATOM     25  C   UNL     1      -0.922 -10.812   5.064  0.00  0.00    +0.117 C 
ATOM     26  N   UNL     1      -1.094  -9.372   5.276  0.00  0.00    -0.301 NA
ATOM     27  H   UNL     1      -0.482  -9.036   6.005  0.00  0.00    +0.123 HD
ENDBRANCH  14  17
ENDBRANCH   1  13
BRANCH   1  28
ATOM     28  C   UNL     1       1.109  -4.609   4.537  0.00  0.00    +0.065 C 
BRANCH  28  29
ATOM     29  C   UNL     1       0.956  -5.266   5.885  0.00  0.00    -0.039 C 
ATOM     30  C   UNL     1       1.432  -6.475   6.260  0.00  0.00    -0.001 A 
ATOM     31  C   UNL     1       2.204  -7.503   5.551  0.00  0.00    +0.010 A 
ATOM     32  C   UNL     1       2.541  -8.637   6.205  0.00  0.00    +0.001 A 
ATOM     33  C   UNL     1       2.172  -8.857   7.539  0.00  0.00    +0.002 A 
ATOM     34  C   UNL     1       1.462  -7.959   8.256  0.00  0.00    +0.026 A 
ATOM     35  C   UNL     1       1.055  -6.730   7.668  0.00  0.00    +0.043 A 
ATOM     36  N   UNL     1       0.372  -5.718   8.146  0.00  0.00    -0.380 N 
ATOM     37  C   UNL     1       0.244  -4.702   7.095  0.00  0.00    +0.144 C 
ATOM     38  H   UNL     1       0.015  -5.650   9.045  0.00  0.00    +0.160 HD
ENDBRANCH  28  29
ENDBRANCH   1  28
TORSDOF 6
