REMARK  Name = ZINC32721420
REMARK  15 active torsions:
REMARK  status: ('A' for Active; 'I' for Inactive)
REMARK    1  A    between atoms: C_1  and  C_2
REMARK    2  A    between atoms: C_4  and  C_24
REMARK    3  A    between atoms: C_6  and  C_23
REMARK    4  A    between atoms: C_7  and  C_8
REMARK    5  A    between atoms: C_8  and  C_9
REMARK    6  A    between atoms: C_9  and  N_10
REMARK    7  A    between atoms: C_11  and  C_13
REMARK    8  A    between atoms: C_13  and  C_15
REMARK    9  A    between atoms: C_13  and  N_19
REMARK   10  A    between atoms: C_15  and  C_16
REMARK   11  A    between atoms: C_16  and  C_17
REMARK   12  A    between atoms: C_16  and  C_18
REMARK   13  A    between atoms: C_24  and  C_25
REMARK   14  A    between atoms: C_24  and  C_26
REMARK   15  A    between atoms: C_24  and  C_27
REMARK                            x       y       z     vdW  Elec       q    Type
REMARK                         _______ _______ _______ _____ _____    ______ ____
ROOT
ATOM      1  N   UNL     1      -4.286   4.053  -1.593  0.00  0.00    -0.313 N 
ATOM      2  C   UNL     1      -3.230   3.311  -1.202  0.00  0.00    +0.233 C 
ATOM      3  O   UNL     1      -2.903   2.336  -1.846  0.00  0.00    -0.274 OA
ATOM      4  H   UNL     1      -4.583   4.936  -1.009  0.00  0.00    +0.149 HD
ENDROOT
BRANCH   1   5
ATOM      5  C   UNL     1      -5.037   3.682  -2.794  0.00  0.00    +0.109 C 
BRANCH   5   6
ATOM      6  C   UNL     1      -6.176   4.681  -3.012  0.00  0.00    +0.054 C 
BRANCH   6  13
ATOM      7  C   UNL     1      -5.408   5.752  -5.583  0.00  0.00    +0.044 C 
ATOM      8  C   UNL     1      -6.581   4.812  -5.478  0.00  0.00    -0.047 A 
ATOM      9  C   UNL     1      -7.287   4.459  -6.613  0.00  0.00    +0.007 A 
ATOM     10  C   UNL     1      -8.367   3.602  -6.516  0.00  0.00    -0.041 A 
ATOM     11  C   UNL     1      -8.738   3.094  -5.285  0.00  0.00    +0.007 A 
ATOM     12  C   UNL     1      -8.029   3.442  -4.151  0.00  0.00    -0.047 A 
ATOM     13  C   UNL     1      -6.949   4.300  -4.248  0.00  0.00    -0.040 A 
ATOM     14  C   UNL     1      -8.433   2.889  -2.809  0.00  0.00    +0.044 C 
BRANCH  10  15
ATOM     15  C   UNL     1      -9.141   3.221  -7.752  0.00  0.00    -0.013 C 
ATOM     16  C   UNL     1     -10.599   3.658  -7.596  0.00  0.00    +0.015 C 
ATOM     17  C   UNL     1      -8.529   3.915  -8.970  0.00  0.00    +0.015 C 
ATOM     18  C   UNL     1      -9.080   1.705  -7.945  0.00  0.00    +0.015 C 
ENDBRANCH  10  15
ENDBRANCH   6  13
ENDBRANCH   5   6
ENDBRANCH   1   5
BRANCH   2  19
ATOM     19  C   UNL     1      -2.457   3.691   0.034  0.00  0.00    +0.161 C 
BRANCH  19  20
ATOM     20  N   UNL     1      -1.131   3.070  -0.008  0.00  0.00    -0.288 N 
ATOM     21  C   UNL     1      -1.018   1.728  -0.063  0.00  0.00    +0.298 C 
ATOM     22  O   UNL     1      -2.015   1.033  -0.077  0.00  0.00    -0.253 OA
ATOM     23  N   UNL     1       0.202   1.156  -0.102  0.00  0.00    -0.313 N 
ATOM     24  H   UNL     1      -0.229   3.698   0.004  0.00  0.00    +0.151 HD
ATOM     25  H   UNL     1       0.295   0.061  -0.146  0.00  0.00    +0.146 HD
ATOM     26  H   UNL     1       1.105   1.784  -0.089  0.00  0.00    +0.146 HD
ENDBRANCH  19  20
BRANCH  19  27
ATOM     27  C   UNL     1      -3.209   3.206   1.275  0.00  0.00    +0.034 C 
BRANCH  27  28
ATOM     28  C   UNL     1      -2.472   3.673   2.532  0.00  0.00    -0.015 C 
ATOM     29  C   UNL     1      -2.528   5.199   2.619  0.00  0.00    +0.007 C 
ATOM     30  C   UNL     1      -3.140   3.067   3.769  0.00  0.00    +0.007 C 
ENDBRANCH  27  28
ENDBRANCH  19  27
ENDBRANCH   2  19
TORSDOF 8
