REMARK  Name = ZINC09211116
REMARK  10 active torsions:
REMARK  status: ('A' for Active; 'I' for Inactive)
REMARK    1  A    between atoms: C_1  and  C_2
REMARK    2  A    between atoms: C_2  and  C_3
REMARK    3  A    between atoms: C_3  and  C_4
REMARK    4  A    between atoms: C_4  and  N_75
REMARK    5  A    between atoms: C_5  and  C_6
REMARK    6  A    between atoms: C_5  and  N_75
REMARK    7  A    between atoms: C_6  and  N_7
REMARK    8  A    between atoms: C_8  and  C_10
REMARK    9  A    between atoms: C_31  and  C_32
REMARK   10  A    between atoms: C_31  and  N_75
REMARK                            x       y       z     vdW  Elec       q    Type
REMARK                         _______ _______ _______ _____ _____    ______ ____
ROOT
ATOM      1  C   UNL     1      -0.022   1.535   0.019  0.00  0.00    +0.092 C 
ATOM      2  C   UNL     1       1.410   2.078   0.029  0.00  0.00    +0.016 C 
ATOM      3  C   UNL     1       2.150   1.520   1.249  0.00  0.00    +0.020 C 
ATOM      4  C   UNL     1       2.126  -0.009   1.198  0.00  0.00    +0.106 C 
ATOM      5  N   UNL     1       0.735  -0.478   1.191  0.00  0.00    -0.313 N 
ATOM      6  C   UNL     1       0.018   0.006   0.004  0.00  0.00    +0.119 C 
ATOM      7  C   UNL     1       0.676  -1.858   1.277  0.00  0.00    +0.152 A 
ATOM      8  C   UNL     1       1.302  -2.540   2.335  0.00  0.00    +0.148 A 
ATOM      9  C   UNL     1       1.206  -3.941   2.371  0.00  0.00    +0.166 A 
ATOM     10  N   UNL     1       0.536  -4.567   1.408  0.00  0.00    -0.216 NA
ATOM     11  C   UNL     1      -0.030  -3.887   0.434  0.00  0.00    +0.225 A 
ATOM     12  N   UNL     1       0.032  -2.570   0.359  0.00  0.00    -0.218 NA
ATOM     13  N   UNL     1       1.898  -4.339   3.486  0.00  0.00    -0.312 N 
ATOM     14  C   UNL     1       2.368  -3.216   4.102  0.00  0.00    +0.112 A 
ATOM     15  N   UNL     1       2.015  -2.161   3.422  0.00  0.00    -0.227 NA
ATOM     16  C   UNL     1       3.169  -3.201   5.382  0.00  0.00    +0.074 C 
ATOM     17  C   UNL     1       4.281  -4.248   5.296  0.00  0.00    +0.008 C 
ATOM     18  C   UNL     1       3.759  -5.591   5.796  0.00  0.00    +0.002 C 
ATOM     19  C   UNL     1       2.280  -5.751   5.449  0.00  0.00    +0.022 C 
ATOM     20  C   UNL     1       2.103  -5.721   3.930  0.00  0.00    +0.125 C 
ENDROOT
BRANCH   1  22
ATOM     21  N   UNL     1      -0.895   3.356  -1.410  0.00  0.00    -0.317 N 
ATOM     22  C   UNL     1      -0.739   2.032  -1.210  0.00  0.00    +0.218 C 
ATOM     23  O   UNL     1      -1.176   1.241  -2.018  0.00  0.00    -0.275 OA
ATOM     24  H   UNL     1      -0.545   3.989  -0.764  0.00  0.00    +0.149 HD
BRANCH  21  25
ATOM     25  C   UNL     1      -1.592   3.839  -2.605  0.00  0.00    +0.085 C 
BRANCH  25  26
ATOM     26  C   UNL     1      -1.631   5.368  -2.589  0.00  0.00    -0.059 C 
BRANCH  26  27
ATOM     27  N   UNL     1      -2.209   5.840  -3.865  0.00  0.00    +0.385 N 
ATOM     28  H   UNL     1      -1.820   5.281  -4.634  0.00  0.00    -0.081 HD
BRANCH  27  29
ATOM     29  C   UNL     1      -1.863   7.261  -4.082  0.00  0.00    -0.078 C 
BRANCH  29  30
ATOM     30  C   UNL     1      -0.410   7.345  -4.555  0.00  0.00    -0.019 C 
BRANCH  30  32
ATOM     31  C   UNL     1       1.375   8.875  -5.399  0.00  0.00    +0.004 C 
ATOM     32  C   UNL     1      -0.077   8.791  -4.925  0.00  0.00    -0.005 C 
ENDBRANCH  30  32
ENDBRANCH  29  30
ENDBRANCH  27  29
BRANCH  27  33
ATOM     33  C   UNL     1      -3.678   5.675  -3.846  0.00  0.00    -0.003 C 
BRANCH  33  34
ATOM     34  C   UNL     1      -4.216   5.953  -5.226  0.00  0.00    +0.089 A 
ATOM     35  C   UNL     1      -4.366   5.047  -6.209  0.00  0.00    +0.042 A 
ATOM     36  C   UNL     1      -4.899   5.736  -7.323  0.00  0.00    +0.041 A 
ATOM     37  C   UNL     1      -5.042   7.022  -6.954  0.00  0.00    +0.195 A 
ATOM     38  O   UNL     1      -4.632   7.146  -5.681  0.00  0.00    -0.470 OA
ENDBRANCH  33  34
ENDBRANCH  27  33
ENDBRANCH  26  27
ENDBRANCH  25  26
ENDBRANCH  21  25
ENDBRANCH   1  22
TORSDOF 9
