REMARK  Name = ZINC55043945
REMARK  3 active torsions:
REMARK  status: ('A' for Active; 'I' for Inactive)
REMARK    1  A    between atoms: C_1  and  C_2
REMARK    2  A    between atoms: C_8  and  C_18
REMARK    3  A    between atoms: C_14  and  C_15
REMARK                            x       y       z     vdW  Elec       q    Type
REMARK                         _______ _______ _______ _____ _____    ______ ____
ROOT
ATOM      1  C   UNL     1      -0.019   1.526   0.010  0.00  0.00    +0.007 C 
ATOM      2  C   UNL     1       0.002  -0.004   0.002  0.00  0.00    -0.014 C 
ATOM      3  C   UNL     1      -1.433  -0.533   0.012  0.00  0.00    +0.004 C 
ATOM      4  C   UNL     1      -1.413  -2.064   0.002  0.00  0.00    +0.010 C 
ATOM      5  C   UNL     1      -0.669  -2.571   1.237  0.00  0.00    +0.016 C 
ATOM      6  C   UNL     1       0.764  -2.041   1.232  0.00  0.00    +0.010 C 
ATOM      7  C   UNL     1       0.742  -0.511   1.242  0.00  0.00    +0.004 C 
ATOM      8  C   UNL     1      -0.651  -4.103   1.235  0.00  0.00    +0.187 C 
ATOM      9  C   UNL     1      -0.041  -4.593   2.521  0.00  0.00    +0.254 C 
ATOM     10  O   UNL     1       0.603  -5.771   2.533  0.00  0.00    -0.272 OA
ATOM     11  N   UNL     1      -0.121  -3.904   3.622  0.00  0.00    -0.175 NA
ATOM     12  C   UNL     1      -0.732  -2.722   3.705  0.00  0.00    +0.095 C 
ATOM     13  C   UNL     1      -1.389  -2.094   2.503  0.00  0.00    +0.153 C 
ATOM     14  S   UNL     1      -0.772  -1.901   5.207  0.00  0.00    -0.037 S 
ENDROOT
BRANCH  13  15
ATOM     15  C   UNL     1      -1.296  -0.628   2.599  0.00  0.00    +0.073 C 
ATOM     16  N   UNL     1      -1.224   0.503   2.674  0.00  0.00    -0.196 NA
ENDBRANCH  13  15
BRANCH   8  17
ATOM     17  C   UNL     1      -2.027  -4.611   1.117  0.00  0.00    +0.076 C 
ATOM     18  N   UNL     1      -3.089  -5.003   1.025  0.00  0.00    -0.196 NA
ENDBRANCH   8  17
TORSDOF 2
