REMARK  Name = ZINC32796279
REMARK  7 active torsions:
REMARK  status: ('A' for Active; 'I' for Inactive)
REMARK    1  A    between atoms: C_1  and  C_2
REMARK    2  A    between atoms: C_7  and  C_8
REMARK    3  A    between atoms: C_8  and  C_10
REMARK    4  A    between atoms: C_8  and  N_21
REMARK    5  A    between atoms: C_10  and  C_11
REMARK    6  A    between atoms: N_13  and  C_14
REMARK    7  A    between atoms: C_17  and  C_20
REMARK                            x       y       z     vdW  Elec       q    Type
REMARK                         _______ _______ _______ _____ _____    ______ ____
ROOT
ATOM      1  C   UNL     1      -1.451   6.736  -4.475  0.00  0.00    +0.114 C 
ENDROOT
BRANCH   1   8
ATOM      2  C   UNL     1      -1.137   9.462  -5.378  0.00  0.00    +0.044 C 
ATOM      3  C   UNL     1      -2.020   8.511  -6.145  0.00  0.00    -0.045 A 
ATOM      4  C   UNL     1      -2.680   8.944  -7.280  0.00  0.00    +0.004 A 
ATOM      5  C   UNL     1      -3.490   8.072  -7.983  0.00  0.00    +0.000 A 
ATOM      6  C   UNL     1      -3.640   6.767  -7.551  0.00  0.00    +0.000 A 
ATOM      7  C   UNL     1      -2.977   6.333  -6.418  0.00  0.00    +0.006 A 
ATOM      8  C   UNL     1      -2.170   7.207  -5.712  0.00  0.00    -0.024 A 
ENDBRANCH   1   8
BRANCH   1   9
ATOM      9  N   UNL     1      -0.029   6.554  -4.777  0.00  0.00    -0.292 N 
ATOM     10  C   UNL     1       0.356   5.627  -5.677  0.00  0.00    +0.298 C 
ATOM     11  O   UNL     1      -0.479   5.005  -6.304  0.00  0.00    -0.253 OA
ATOM     12  N   UNL     1       1.667   5.390  -5.881  0.00  0.00    -0.313 N 
ATOM     13  H   UNL     1       0.725   7.173  -4.269  0.00  0.00    +0.151 HD
ATOM     14  H   UNL     1       1.981   4.634  -6.616  0.00  0.00    +0.146 HD
ATOM     15  H   UNL     1       2.423   5.953  -5.314  0.00  0.00    +0.146 HD
ENDBRANCH   1   9
BRANCH   1  16
ATOM     16  C   UNL     1      -2.048   5.405  -4.013  0.00  0.00    +0.123 C 
BRANCH  16  17
ATOM     17  C   UNL     1      -1.413   4.995  -2.709  0.00  0.00    +0.215 C 
ATOM     18  O   UNL     1      -0.567   5.698  -2.200  0.00  0.00    -0.276 OA
ATOM     19  N   UNL     1      -1.787   3.847  -2.110  0.00  0.00    -0.312 N 
ATOM     20  H   UNL     1      -2.555   3.210  -2.572  0.00  0.00    +0.149 HD
BRANCH  19  21
ATOM     21  C   UNL     1      -1.170   3.449  -0.842  0.00  0.00    +0.073 C 
ATOM     22  C   UNL     1      -1.258   1.929  -0.688  0.00  0.00    +0.022 C 
ATOM     23  C   UNL     1      -0.614   1.512   0.636  0.00  0.00    +0.005 C 
ATOM     24  C   UNL     1      -1.349   2.187   1.796  0.00  0.00    -0.014 C 
ATOM     25  C   UNL     1      -1.261   3.706   1.641  0.00  0.00    +0.005 C 
ATOM     26  C   UNL     1      -1.906   4.123   0.318  0.00  0.00    +0.022 C 
ATOM     27  C   UNL     1      -0.705   1.770   3.119  0.00  0.00    +0.007 C 
ENDBRANCH  19  21
ENDBRANCH  16  17
ENDBRANCH   1  16
TORSDOF 5
