REMARK  Name = ZINC32944986
REMARK  8 active torsions:
REMARK  status: ('A' for Active; 'I' for Inactive)
REMARK    1  A    between atoms: C_1  and  C_2
REMARK    2  A    between atoms: C_7  and  C_8
REMARK    3  A    between atoms: N_9  and  C_18
REMARK    4  A    between atoms: C_12  and  C_14
REMARK    5  A    between atoms: C_18  and  C_20
REMARK    6  A    between atoms: C_18  and  C_21
REMARK    7  A    between atoms: N_23  and  C_24
REMARK    8  A    between atoms: C_24  and  C_25
REMARK                            x       y       z     vdW  Elec       q    Type
REMARK                         _______ _______ _______ _____ _____    ______ ____
ROOT
ATOM      1  C   UNL     1       1.131   3.598   0.185  0.00  0.00    +0.044 C 
ATOM      2  C   UNL     1       1.172   2.092   0.130  0.00  0.00    -0.045 A 
ATOM      3  C   UNL     1       2.376   1.452   0.073  0.00  0.00    +0.033 A 
ATOM      4  C   UNL     1       2.422   0.050   0.021  0.00  0.00    +0.088 A 
ATOM      5  C   UNL     1       1.219  -0.681   0.029  0.00  0.00    +0.071 A 
ATOM      6  C   UNL     1       0.004  -0.006   0.088  0.00  0.00    +0.031 A 
ATOM      7  C   UNL     1      -0.014   1.371   0.138  0.00  0.00    -0.045 A 
ATOM      8  C   UNL     1      -1.332   2.100   0.196  0.00  0.00    +0.044 C 
ATOM      9  N   UNL     1       1.250  -2.060  -0.021  0.00  0.00    -0.293 N 
ATOM     10  C   UNL     1       2.445  -2.686  -0.078  0.00  0.00    +0.283 A 
ATOM     11  O   UNL     1       2.503  -3.902  -0.124  0.00  0.00    -0.265 OA
ATOM     12  C   UNL     1       3.674  -1.884  -0.084  0.00  0.00    +0.209 A 
ATOM     13  N   UNL     1       3.609  -0.584  -0.036  0.00  0.00    -0.236 NA
ENDROOT
BRANCH  12  14
ATOM     14  C   UNL     1       5.016  -2.567  -0.147  0.00  0.00    +0.439 C 
ATOM     15  F   UNL     1       6.030  -1.603  -0.142  0.00  0.00    -0.164 F 
ATOM     16  F   UNL     1       5.165  -3.406   0.962  0.00  0.00    -0.164 F 
ATOM     17  F   UNL     1       5.099  -3.325  -1.321  0.00  0.00    -0.164 F 
ENDBRANCH  12  14
BRANCH   9  18
ATOM     18  C   UNL     1       0.005  -2.832  -0.013  0.00  0.00    +0.173 C 
ATOM     19  C   UNL     1       0.019  -3.811   1.163  0.00  0.00    +0.041 C 
BRANCH  18  20
ATOM     20  C   UNL     1      -0.118  -3.600  -1.304  0.00  0.00    +0.236 C 
ATOM     21  O   UNL     1       0.748  -3.511  -2.148  0.00  0.00    -0.274 OA
ATOM     22  N   UNL     1      -1.192  -4.386  -1.521  0.00  0.00    -0.310 N 
ATOM     23  H   UNL     1      -1.978  -4.467  -0.756  0.00  0.00    +0.149 HD
BRANCH  22  24
ATOM     24  C   UNL     1      -1.312  -5.132  -2.776  0.00  0.00    +0.139 C 
BRANCH  24  25
ATOM     25  C   UNL     1      -2.592  -5.927  -2.768  0.00  0.00    -0.027 A 
ATOM     26  C   UNL     1      -2.599  -7.218  -2.274  0.00  0.00    +0.009 A 
ATOM     27  C   UNL     1      -3.773  -7.949  -2.259  0.00  0.00    +0.050 A 
ATOM     28  C   UNL     1      -4.942  -7.393  -2.750  0.00  0.00    +0.166 A 
ATOM     29  C   UNL     1      -4.934  -6.094  -3.253  0.00  0.00    +0.167 A 
ATOM     30  C   UNL     1      -3.756  -5.365  -3.259  0.00  0.00    +0.054 A 
ATOM     31  O   UNL     1      -6.195  -5.779  -3.671  0.00  0.00    -0.453 OA
ATOM     32  C   UNL     1      -6.883  -7.038  -3.797  0.00  0.00    +0.466 C 
ATOM     33  O   UNL     1      -6.208  -7.892  -2.854  0.00  0.00    -0.453 OA
ENDBRANCH  24  25
ENDBRANCH  22  24
ENDBRANCH  18  20
ENDBRANCH   9  18
TORSDOF 5
