REMARK  Name = ZINC58570362
REMARK  5 active torsions:
REMARK  status: ('A' for Active; 'I' for Inactive)
REMARK    1  A    between atoms: C_3  and  C_11
REMARK    2  A    between atoms: C_5  and  N_7
REMARK    3  A    between atoms: C_11  and  N_12
REMARK    4  A    between atoms: C_13  and  C_15
REMARK    5  A    between atoms: C_15  and  C_19
REMARK                            x       y       z     vdW  Elec       q    Type
REMARK                         _______ _______ _______ _____ _____    ______ ____
ROOT
ATOM      1  N   UNL     1       3.896   2.028   1.857  0.00  0.00    -0.310 N 
ATOM      2  C   UNL     1       4.922   2.902   1.829  0.00  0.00    +0.224 C 
ATOM      3  O   UNL     1       5.292   3.369   0.773  0.00  0.00    -0.275 OA
ATOM      4  H   UNL     1       3.552   1.711   2.706  0.00  0.00    +0.149 HD
ENDROOT
BRANCH   2   5
ATOM      5  C   UNL     1       5.609   3.298   3.110  0.00  0.00    +0.072 C 
ATOM      6  C   UNL     1       7.079   3.708   2.920  0.00  0.00    +0.021 C 
ATOM      7  C   UNL     1       7.436   2.226   3.125  0.00  0.00    +0.003 C 
ATOM      8  C   UNL     1       6.129   2.103   3.926  0.00  0.00    +0.021 C 
BRANCH   5   9
ATOM      9  C   UNL     1       4.807   4.281   3.925  0.00  0.00    -0.030 A 
ATOM     10  C   UNL     1       4.410   3.953   5.208  0.00  0.00    +0.005 A 
ATOM     11  C   UNL     1       3.674   4.853   5.955  0.00  0.00    +0.003 A 
ATOM     12  C   UNL     1       3.335   6.082   5.421  0.00  0.00    +0.038 A 
ATOM     13  C   UNL     1       3.732   6.411   4.136  0.00  0.00    +0.124 A 
ATOM     14  C   UNL     1       4.474   5.511   3.390  0.00  0.00    +0.043 A 
ATOM     15  F   UNL     1       3.401   7.612   3.613  0.00  0.00    -0.205 F 
ENDBRANCH   5   9
ENDBRANCH   2   5
BRANCH   1  16
ATOM     16  C   UNL     1       3.300   1.558   0.604  0.00  0.00    +0.139 C 
BRANCH  16  19
ATOM     17  C   UNL     1      -0.138   0.189   1.356  0.00  0.00    +0.002 A 
ATOM     18  C   UNL     1       0.892   1.068   1.076  0.00  0.00    +0.005 A 
ATOM     19  C   UNL     1       2.181   0.596   0.909  0.00  0.00    -0.029 A 
ATOM     20  C   UNL     1       2.443  -0.755   1.022  0.00  0.00    +0.028 A 
ATOM     21  C   UNL     1       1.411  -1.640   1.303  0.00  0.00    +0.035 A 
ATOM     22  C   UNL     1       0.118  -1.163   1.470  0.00  0.00    +0.023 A 
BRANCH  21  23
ATOM     23  N   UNL     1       1.674  -3.010   1.418  0.00  0.00    -0.270 N 
ATOM     24  C   UNL     1       0.996  -3.753   2.315  0.00  0.00    +0.301 C 
ATOM     25  O   UNL     1       0.091  -3.256   2.957  0.00  0.00    -0.253 OA
ATOM     26  N   UNL     1       1.322  -5.048   2.501  0.00  0.00    -0.313 N 
ATOM     27  H   UNL     1       2.344  -3.425   0.852  0.00  0.00    +0.156 HD
ATOM     28  H   UNL     1       2.044  -5.445   1.989  0.00  0.00    +0.146 HD
ATOM     29  H   UNL     1       0.834  -5.583   3.146  0.00  0.00    +0.146 HD
ENDBRANCH  21  23
ENDBRANCH  16  19
ENDBRANCH   1  16
TORSDOF 5
