REMARK  Name = ZINC23468094
REMARK  13 active torsions:
REMARK  status: ('A' for Active; 'I' for Inactive)
REMARK    1  A    between atoms: C_1  and  C_2
REMARK    2  A    between atoms: C_3  and  C_16
REMARK    3  A    between atoms: N_5  and  C_7
REMARK    4  A    between atoms: C_7  and  C_8
REMARK    5  A    between atoms: C_17  and  C_18
REMARK    6  A    between atoms: C_18  and  O_20
REMARK    7  A    between atoms: O_20  and  C_21
REMARK    8  A    between atoms: C_21  and  C_23
REMARK    9  A    between atoms: C_21  and  C_24
REMARK   10  A    between atoms: N_26  and  C_27
REMARK   11  A    between atoms: N_31  and  C_32
REMARK   12  A    between atoms: C_32  and  C_33
REMARK   13  A    between atoms: C_32  and  C_34
REMARK                            x       y       z     vdW  Elec       q    Type
REMARK                         _______ _______ _______ _____ _____    ______ ____
ROOT
ATOM      1  C   UNL     1      -8.082   6.087   0.785  0.00  0.00    +0.020 C 
ATOM      2  C   UNL     1      -7.377   5.131   0.139  0.00  0.00    +0.092 C 
ENDROOT
BRANCH   1   5
ATOM      3  C   UNL     1      -9.292   6.567   3.679  0.00  0.00    +0.068 C 
ATOM      4  C   UNL     1     -10.025   6.037   2.473  0.00  0.00    +0.069 A 
ATOM      5  C   UNL     1      -9.470   5.829   1.188  0.00  0.00    +0.034 A 
ATOM      6  C   UNL     1     -10.482   5.329   0.385  0.00  0.00    +0.135 A 
ATOM      7  N   UNL     1     -11.590   5.246   1.142  0.00  0.00    -0.248 N 
ATOM      8  N   UNL     1     -11.282   5.694   2.431  0.00  0.00    -0.174 NA
ATOM      9 CL   UNL     1     -10.345   4.891  -1.290  0.00  0.00    -0.062 Cl
BRANCH   7  10
ATOM     10  C   UNL     1     -12.899   4.767   0.692  0.00  0.00    +0.181 C 
BRANCH  10  11
ATOM     11  C   UNL     1     -13.751   5.942   0.284  0.00  0.00    -0.008 A 
ATOM     12  C   UNL     1     -13.794   6.337  -1.040  0.00  0.00    +0.007 A 
ATOM     13  C   UNL     1     -14.575   7.415  -1.415  0.00  0.00    +0.000 A 
ATOM     14  C   UNL     1     -15.313   8.098  -0.465  0.00  0.00    +0.001 A 
ATOM     15  C   UNL     1     -15.270   7.703   0.858  0.00  0.00    +0.020 A 
ATOM     16  C   UNL     1     -14.493   6.622   1.233  0.00  0.00    +0.046 A 
ATOM     17 CL   UNL     1     -14.444   6.121   2.895  0.00  0.00    -0.083 Cl
ENDBRANCH  10  11
ENDBRANCH   7  10
ENDBRANCH   1   5
BRANCH   2  18
ATOM     18  C   UNL     1      -6.039   5.380  -0.250  0.00  0.00    +0.333 C 
ATOM     19  O   UNL     1      -5.524   6.455  -0.003  0.00  0.00    -0.246 OA
BRANCH  18  20
ATOM     20  O   UNL     1      -5.335   4.426  -0.894  0.00  0.00    -0.449 OA
BRANCH  20  21
ATOM     21  C   UNL     1      -3.990   4.746  -1.257  0.00  0.00    +0.259 C 
ATOM     22  C   UNL     1      -3.974   5.373  -2.652  0.00  0.00    +0.062 C 
BRANCH  21  23
ATOM     23  C   UNL     1      -3.159   3.489  -1.261  0.00  0.00    +0.259 C 
ATOM     24  O   UNL     1      -3.685   2.413  -1.069  0.00  0.00    -0.271 OA
ATOM     25  N   UNL     1      -1.830   3.561  -1.476  0.00  0.00    -0.268 N 
ATOM     26  H   UNL     1      -1.353   4.537  -1.650  0.00  0.00    +0.156 HD
BRANCH  25  27
ATOM     27  C   UNL     1      -1.060   2.398  -1.480  0.00  0.00    +0.123 A 
ATOM     28  C   UNL     1      -1.517   1.131  -1.288  0.00  0.00    +0.065 A 
ATOM     29  C   UNL     1      -0.423   0.265  -1.367  0.00  0.00    +0.136 A 
ATOM     30  N   UNL     1       0.648   0.976  -1.606  0.00  0.00    -0.178 NA
ATOM     31  N   UNL     1       0.275   2.324  -1.683  0.00  0.00    -0.248 N 
BRANCH  31  32
ATOM     32  C   UNL     1       1.172   3.454  -1.936  0.00  0.00    +0.103 C 
ATOM     33  C   UNL     1       2.236   3.516  -0.838  0.00  0.00    +0.032 C 
ATOM     34  C   UNL     1       1.851   3.271  -3.295  0.00  0.00    +0.032 C 
ENDBRANCH  31  32
ENDBRANCH  25  27
ENDBRANCH  21  23
ENDBRANCH  20  21
ENDBRANCH  18  20
ENDBRANCH   2  18
TORSDOF 9
