REMARK  Name = ZINC66383873
REMARK  6 active torsions:
REMARK  status: ('A' for Active; 'I' for Inactive)
REMARK    1  A    between atoms: C_3  and  N_10
REMARK    2  A    between atoms: C_6  and  C_7
REMARK    3  A    between atoms: N_13  and  C_14
REMARK    4  A    between atoms: C_14  and  C_15
REMARK    5  A    between atoms: C_15  and  C_16
REMARK    6  A    between atoms: C_16  and  C_17
REMARK                            x       y       z     vdW  Elec       q    Type
REMARK                         _______ _______ _______ _____ _____    ______ ____
ROOT
ATOM      1  N   UNL     1       3.578   2.132  -0.021  0.00  0.00    -0.269 N 
ATOM      2  C   UNL     1       4.754   1.479   0.066  0.00  0.00    +0.304 C 
ATOM      3  O   UNL     1       4.776   0.263   0.060  0.00  0.00    -0.253 OA
ATOM      4  N   UNL     1       5.905   2.173   0.160  0.00  0.00    -0.299 N 
ATOM      5  H   UNL     1       3.564   3.100  -0.083  0.00  0.00    +0.156 HD
ATOM      6  H   UNL     1       5.887   3.143   0.165  0.00  0.00    +0.150 HD
ENDROOT
BRANCH   1   9
ATOM      7  C   UNL     1       1.137  -0.537  -0.644  0.00  0.00    +0.015 A 
ATOM      8  C   UNL     1       2.317   0.172  -0.641  0.00  0.00    +0.024 A 
ATOM      9  C   UNL     1       2.381   1.416  -0.022  0.00  0.00    +0.035 A 
ATOM     10  C   UNL     1       1.254   1.948   0.597  0.00  0.00    +0.024 A 
ATOM     11  C   UNL     1       0.071   1.244   0.599  0.00  0.00    +0.015 A 
ATOM     12  C   UNL     1       0.003  -0.006  -0.023  0.00  0.00    +0.037 A 
BRANCH  12  13
ATOM     13  C   UNL     1      -1.263  -0.764  -0.023  0.00  0.00    +0.242 C 
ATOM     14  O   UNL     1      -1.321  -1.851  -0.564  0.00  0.00    -0.270 OA
ATOM     15  N   UNL     1      -2.356  -0.251   0.576  0.00  0.00    -0.325 N 
ATOM     16  H   UNL     1      -2.310   0.617   1.008  0.00  0.00    +0.145 HD
ATOM     17  H   UNL     1      -3.188  -0.749   0.576  0.00  0.00    +0.145 HD
ENDBRANCH  12  13
ENDBRANCH   1   9
BRANCH   4  18
ATOM     18  C   UNL     1       7.183   1.464   0.254  0.00  0.00    +0.106 C 
BRANCH  18  19
ATOM     19  C   UNL     1       8.324   2.478   0.349  0.00  0.00    +0.023 C 
BRANCH  19  20
ATOM     20  C   UNL     1       9.659   1.737   0.448  0.00  0.00    +0.037 C 
BRANCH  20  21
ATOM     21  C   UNL     1      10.783   2.736   0.542  0.00  0.00    -0.046 A 
ATOM     22  C   UNL     1      11.387   3.206  -0.610  0.00  0.00    +0.005 A 
ATOM     23  C   UNL     1      12.418   4.122  -0.525  0.00  0.00    +0.022 A 
ATOM     24  C   UNL     1      12.846   4.570   0.712  0.00  0.00    +0.059 A 
ATOM     25  C   UNL     1      12.241   4.099   1.865  0.00  0.00    +0.060 A 
ATOM     26  C   UNL     1      11.205   3.186   1.778  0.00  0.00    +0.025 A 
ATOM     27 CL   UNL     1      12.777   4.660   3.418  0.00  0.00    -0.082 Cl
ATOM     28 CL   UNL     1      14.142   5.720   0.819  0.00  0.00    -0.082 Cl
ENDBRANCH  20  21
ENDBRANCH  19  20
ENDBRANCH  18  19
ENDBRANCH   4  18
TORSDOF 6
