REMARK  Name = ZINC20519225
REMARK  7 active torsions:
REMARK  status: ('A' for Active; 'I' for Inactive)
REMARK    1  A    between atoms: C_4  and  C_8
REMARK    2  A    between atoms: C_15  and  O_29
REMARK    3  A    between atoms: C_16  and  C_19
REMARK    4  A    between atoms: C_19  and  N_20
REMARK    5  A    between atoms: N_23  and  C_26
REMARK    6  A    between atoms: C_26  and  C_27
REMARK    7  A    between atoms: C_27  and  O_28
REMARK                            x       y       z     vdW  Elec       q    Type
REMARK                         _______ _______ _______ _____ _____    ______ ____
ROOT
ATOM      1  C   UNL     1       4.319   2.600   6.408  0.00  0.00    +0.062 C 
ATOM      2  C   UNL     1       4.210   3.108   5.154  0.00  0.00    +0.176 C 
ATOM      3  C   UNL     1       4.210   4.532   4.790  0.00  0.00    +0.231 C 
ATOM      4  O   UNL     1       4.305   5.492   5.534  0.00  0.00    -0.283 OA
ATOM      5  C   UNL     1       4.068   4.539   3.322  0.00  0.00    +0.068 A 
ATOM      6  C   UNL     1       4.002   5.561   2.375  0.00  0.00    +0.019 A 
ATOM      7  C   UNL     1       3.867   5.253   1.050  0.00  0.00    +0.046 A 
ATOM      8  C   UNL     1       3.801   3.923   0.644  0.00  0.00    +0.122 A 
ATOM      9  C   UNL     1       3.860   2.898   1.575  0.00  0.00    +0.020 A 
ATOM     10  C   UNL     1       3.997   3.194   2.926  0.00  0.00    +0.144 A 
ATOM     11  O   UNL     1       4.083   2.394   4.011  0.00  0.00    -0.451 OA
ENDROOT
BRANCH   1  15
ATOM     12  C   UNL     1       4.274  -1.598   7.011  0.00  0.00    +0.004 A 
ATOM     13  C   UNL     1       5.274  -0.832   7.585  0.00  0.00    +0.039 A 
ATOM     14  C   UNL     1       5.297   0.536   7.395  0.00  0.00    +0.132 A 
ATOM     15  C   UNL     1       4.304   1.147   6.616  0.00  0.00    +0.032 A 
ATOM     16  C   UNL     1       3.294   0.363   6.043  0.00  0.00    +0.051 A 
ATOM     17  C   UNL     1       3.291  -1.002   6.241  0.00  0.00    +0.021 A 
ATOM     18 CL   UNL     1       2.054   1.107   5.083  0.00  0.00    -0.083 Cl
ATOM     19  F   UNL     1       6.273   1.282   7.958  0.00  0.00    -0.205 F 
ENDBRANCH   1  15
BRANCH   8  20
ATOM     20  O   UNL     1       3.673   3.627  -0.674  0.00  0.00    -0.506 OA
ATOM     21  H   UNL     1       3.620   2.578  -1.000  0.00  0.00    +0.292 HD
ENDBRANCH   8  20
BRANCH   9  22
ATOM     22  C   UNL     1       3.782   1.463   1.122  0.00  0.00    -0.035 C 
BRANCH  22  23
ATOM     23  N   UNL     1       2.379   1.030   1.107  0.00  0.00    +0.384 N 
ATOM     24  C   UNL     1       1.613   1.758   0.085  0.00  0.00    -0.063 C 
ATOM     25  C   UNL     1       0.144   1.336   0.156  0.00  0.00    +0.066 C 
ATOM     26  N   UNL     1       0.043  -0.115  -0.050  0.00  0.00    -0.304 NA
ATOM     27  C   UNL     1       0.808  -0.843   0.972  0.00  0.00    +0.066 C 
ATOM     28  C   UNL     1       2.278  -0.422   0.901  0.00  0.00    -0.063 C 
ATOM     29  H   UNL     1       1.944   1.265   2.090  0.00  0.00    -0.081 HD
BRANCH  26  30
ATOM     30  C   UNL     1      -1.361  -0.549  -0.064  0.00  0.00    +0.112 C 
BRANCH  30  31
ATOM     31  C   UNL     1      -1.999  -0.164  -1.400  0.00  0.00    +0.171 C 
BRANCH  31  32
ATOM     32  O   UNL     1      -1.363  -0.884  -2.458  0.00  0.00    -0.394 OA
ATOM     33  H   UNL     1      -1.690  -0.737  -3.498  0.00  0.00    +0.209 HD
ENDBRANCH  31  32
ENDBRANCH  30  31
ENDBRANCH  26  30
ENDBRANCH  22  23
ENDBRANCH   9  22
TORSDOF 7
