REMARK  Name = ZINC35842593
REMARK  21 active torsions:
REMARK  status: ('A' for Active; 'I' for Inactive)
REMARK    1  A    between atoms: C_1  and  C_2
REMARK    2  A    between atoms: C_2  and  C_3
REMARK    3  A    between atoms: C_2  and  C_4
REMARK    4  A    between atoms: C_4  and  N_5
REMARK    5  A    between atoms: N_5  and  C_6
REMARK    6  A    between atoms: N_5  and  C_13
REMARK    7  A    between atoms: C_6  and  C_7
REMARK    8  A    between atoms: C_7  and  C_9
REMARK    9  A    between atoms: C_7  and  O_12
REMARK   10  A    between atoms: C_9  and  C_10
REMARK   11  A    between atoms: C_9  and  C_11
REMARK   12  A    between atoms: C_13  and  C_14
REMARK   13  A    between atoms: N_16  and  C_17
REMARK   14  A    between atoms: N_16  and  C_29
REMARK   15  A    between atoms: C_17  and  C_18
REMARK   16  A    between atoms: C_18  and  C_19
REMARK   17  A    between atoms: C_29  and  C_30
REMARK   18  A    between atoms: C_33  and  C_36
REMARK   19  A    between atoms: C_36  and  C_37
REMARK   20  A    between atoms: C_36  and  C_38
REMARK   21  A    between atoms: C_36  and  C_39
REMARK                            x       y       z     vdW  Elec       q    Type
REMARK                         _______ _______ _______ _____ _____    ______ ____
ROOT
ATOM      1  C   UNL     1      -0.710  -3.130  -0.921  0.00  0.00    +0.199 C 
ATOM      2  O   UNL     1       0.323  -2.513  -1.078  0.00  0.00    -0.278 OA
ATOM      3  N   UNL     1      -0.671  -4.435  -0.589  0.00  0.00    -0.298 N 
ENDROOT
BRANCH   1   4
ATOM      4  C   UNL     1      -2.036  -2.436  -1.099  0.00  0.00    +0.019 C 
BRANCH   4   5
ATOM      5  N   UNL     1      -1.808  -1.035  -1.478  0.00  0.00    +0.387 N 
ATOM      6  H   UNL     1      -1.237  -1.000  -2.309  0.00  0.00    -0.081 HD
BRANCH   5   7
ATOM      7  C   UNL     1      -1.124  -0.336  -0.383  0.00  0.00    -0.075 C 
BRANCH   7   9
ATOM      8  C   UNL     1      -0.817  -0.252   2.095  0.00  0.00    +0.005 C 
ATOM      9  C   UNL     1      -1.642  -0.858   0.958  0.00  0.00    -0.034 C 
ATOM     10  C   UNL     1      -3.111  -0.462   1.127  0.00  0.00    +0.005 C 
ENDBRANCH   7   9
ENDBRANCH   5   7
BRANCH   5  11
ATOM     11  C   UNL     1      -3.098  -0.385  -1.744  0.00  0.00    -0.046 C 
BRANCH  11  12
ATOM     12  C   UNL     1      -2.856   1.015  -2.313  0.00  0.00    +0.101 C 
BRANCH  12  13
ATOM     13  C   UNL     1      -4.194   1.739  -2.473  0.00  0.00    +0.010 C 
ATOM     14  C   UNL     1      -3.952   3.139  -3.041  0.00  0.00    +0.010 C 
ATOM     15  C   UNL     1      -5.091   0.949  -3.428  0.00  0.00    +0.010 C 
ENDBRANCH  12  13
BRANCH  12  16
ATOM     16  O   UNL     1      -2.217   0.908  -3.587  0.00  0.00    -0.393 OA
ATOM     17  H   UNL     1      -2.730   0.418  -4.244  0.00  0.00    +0.210 HD
ENDBRANCH  12  16
ENDBRANCH  11  12
ENDBRANCH   5  11
ENDBRANCH   4   5
ENDBRANCH   1   4
BRANCH   3  18
ATOM     18  C   UNL     1       0.613  -5.083  -0.311  0.00  0.00    +0.113 C 
BRANCH  18  19
ATOM     19  C   UNL     1       0.881  -5.059   1.195  0.00  0.00    +0.056 C 
BRANCH  19  20
ATOM     20  C   UNL     1       2.254  -5.615   1.470  0.00  0.00    -0.021 A 
ATOM     21  C   UNL     1       2.552  -6.884   1.792  0.00  0.00    +0.087 A 
ATOM     22  N   UNL     1       3.903  -7.016   1.968  0.00  0.00    -0.360 N 
ATOM     23  H   UNL     1       4.356  -7.840   2.205  0.00  0.00    +0.165 HD
ATOM     24  C   UNL     1       4.523  -5.804   1.757  0.00  0.00    +0.047 A 
ATOM     25  C   UNL     1       3.518  -4.875   1.430  0.00  0.00    +0.003 A 
ATOM     26  C   UNL     1       3.858  -3.549   1.156  0.00  0.00    +0.010 A 
ATOM     27  C   UNL     1       5.167  -3.161   1.204  0.00  0.00    +0.001 A 
ATOM     28  C   UNL     1       6.163  -4.074   1.522  0.00  0.00    +0.002 A 
ATOM     29  C   UNL     1       5.848  -5.386   1.805  0.00  0.00    +0.026 A 
ENDBRANCH  19  20
ENDBRANCH  18  19
ENDBRANCH   3  18
BRANCH   3  30
ATOM     30  C   UNL     1      -1.914  -5.207  -0.506  0.00  0.00    +0.142 C 
BRANCH  30  31
ATOM     31  C   UNL     1      -2.134  -5.945  -1.800  0.00  0.00    -0.030 A 
ATOM     32  C   UNL     1      -2.819  -5.336  -2.836  0.00  0.00    +0.005 A 
ATOM     33  C   UNL     1      -3.021  -6.014  -4.024  0.00  0.00    +0.004 A 
ATOM     34  C   UNL     1      -2.539  -7.300  -4.176  0.00  0.00    -0.042 A 
ATOM     35  C   UNL     1      -1.854  -7.909  -3.141  0.00  0.00    +0.004 A 
ATOM     36  C   UNL     1      -1.648  -7.230  -1.955  0.00  0.00    +0.005 A 
BRANCH  34  37
ATOM     37  C   UNL     1      -2.760  -8.039  -5.471  0.00  0.00    -0.013 C 
ATOM     38  C   UNL     1      -2.112  -7.263  -6.619  0.00  0.00    +0.015 C 
ATOM     39  C   UNL     1      -2.132  -9.431  -5.378  0.00  0.00    +0.015 C 
ATOM     40  C   UNL     1      -4.262  -8.174  -5.731  0.00  0.00    +0.015 C 
ENDBRANCH  34  37
ENDBRANCH  30  31
ENDBRANCH   3  30
TORSDOF 14
