REMARK  Name = ZINC35926578
REMARK  12 active torsions:
REMARK  status: ('A' for Active; 'I' for Inactive)
REMARK    1  A    between atoms: C_1  and  C_2
REMARK    2  A    between atoms: C_2  and  C_3
REMARK    3  A    between atoms: C_3  and  C_4
REMARK    4  A    between atoms: C_4  and  C_5
REMARK    5  A    between atoms: C_5  and  C_7
REMARK    6  A    between atoms: C_5  and  C_9
REMARK    7  A    between atoms: C_7  and  C_8
REMARK    8  A    between atoms: C_23  and  C_25
REMARK    9  A    between atoms: C_25  and  N_26
REMARK   10  A    between atoms: N_29  and  C_32
REMARK   11  A    between atoms: C_32  and  C_33
REMARK   12  A    between atoms: C_33  and  C_34
REMARK                            x       y       z     vdW  Elec       q    Type
REMARK                         _______ _______ _______ _____ _____    ______ ____
ROOT
ATOM      1  C   UNL     1       3.372  -4.180  -1.118  0.00  0.00    +0.219 C 
ATOM      2  O   UNL     1       3.466  -2.997  -0.865  0.00  0.00    -0.275 OA
ATOM      3  N   UNL     1       3.938  -4.678  -2.235  0.00  0.00    -0.298 N 
ATOM      4  C   UNL     1       3.920  -6.122  -2.503  0.00  0.00    +0.127 C 
ATOM      5  C   UNL     1       3.286  -6.358  -3.879  0.00  0.00    +0.127 C 
ATOM      6  N   UNL     1       3.932  -5.465  -4.852  0.00  0.00    -0.298 N 
ATOM      7  C   UNL     1       3.949  -4.020  -4.585  0.00  0.00    +0.127 C 
ATOM      8  C   UNL     1       4.578  -3.784  -3.211  0.00  0.00    +0.127 C 
ATOM      9  C   UNL     1       4.506  -5.971  -5.987  0.00  0.00    +0.199 A 
ATOM     10  N   UNL     1       4.410  -7.302  -6.249  0.00  0.00    -0.295 N 
ATOM     11  H   UNL     1       3.938  -7.886  -5.635  0.00  0.00    +0.172 HD
ATOM     12  C   UNL     1       4.974  -7.808  -7.367  0.00  0.00    +0.253 A 
ATOM     13  O   UNL     1       4.897  -9.000  -7.617  0.00  0.00    -0.268 OA
ATOM     14  C   UNL     1       5.651  -6.935  -8.237  0.00  0.00    +0.094 A 
ATOM     15  C   UNL     1       5.715  -5.609  -7.922  0.00  0.00    +0.064 A 
ATOM     16  N   UNL     1       5.138  -5.158  -6.811  0.00  0.00    -0.219 NA
ENDROOT
BRANCH   1  17
ATOM     17  C   UNL     1       2.622  -5.093  -0.182  0.00  0.00    +0.075 C 
BRANCH  17  18
ATOM     18  C   UNL     1       1.534  -4.298   0.544  0.00  0.00    +0.009 C 
ATOM     19  C   UNL     1       0.489  -3.822  -0.468  0.00  0.00    +0.004 C 
ENDBRANCH  17  18
BRANCH  17  20
ATOM     20  C   UNL     1       3.593  -5.682   0.843  0.00  0.00    +0.013 C 
BRANCH  20  21
ATOM     21  C   UNL     1       2.858  -6.703   1.714  0.00  0.00    +0.000 C 
BRANCH  21  23
ATOM     22  C   UNL     1       3.095  -8.312   3.610  0.00  0.00    +0.004 C 
ATOM     23  C   UNL     1       3.829  -7.292   2.739  0.00  0.00    -0.003 C 
ENDBRANCH  21  23
ENDBRANCH  20  21
ENDBRANCH  17  20
ENDBRANCH   1  17
BRANCH  15  24
ATOM     24  C   UNL     1       6.434  -4.652  -8.838  0.00  0.00    +0.140 C 
BRANCH  24  25
ATOM     25  N   UNL     1       5.471  -3.698  -9.404  0.00  0.00    -0.300 NA
ATOM     26  C   UNL     1       4.519  -4.377 -10.294  0.00  0.00    +0.066 C 
ATOM     27  C   UNL     1       3.500  -3.361 -10.815  0.00  0.00    -0.063 C 
ATOM     28  N   UNL     1       4.199  -2.293 -11.541  0.00  0.00    +0.382 N 
ATOM     29  C   UNL     1       5.128  -1.609 -10.632  0.00  0.00    -0.063 C 
ATOM     30  C   UNL     1       6.162  -2.610 -10.110  0.00  0.00    +0.066 C 
ATOM     31  H   UNL     1       4.715  -2.692 -12.311  0.00  0.00    -0.082 HD
BRANCH  28  32
ATOM     32  C   UNL     1       3.219  -1.328 -12.056  0.00  0.00    -0.074 C 
BRANCH  32  33
ATOM     33  C   UNL     1       3.934  -0.284 -12.916  0.00  0.00    +0.016 C 
BRANCH  33  34
ATOM     34  C   UNL     1       2.928   0.706 -13.444  0.00  0.00    -0.049 A 
ATOM     35  C   UNL     1       2.297   0.472 -14.652  0.00  0.00    +0.003 A 
ATOM     36  C   UNL     1       1.374   1.381 -15.136  0.00  0.00    +0.000 A 
ATOM     37  C   UNL     1       1.082   2.522 -14.413  0.00  0.00    +0.000 A 
ATOM     38  C   UNL     1       1.712   2.755 -13.205  0.00  0.00    +0.000 A 
ATOM     39  C   UNL     1       2.632   1.844 -12.718  0.00  0.00    +0.003 A 
ENDBRANCH  33  34
ENDBRANCH  32  33
ENDBRANCH  28  32
ENDBRANCH  24  25
ENDBRANCH  15  24
TORSDOF 10
