REMARK  Name = ZINC18196734
REMARK  1 active torsions:
REMARK  status: ('A' for Active; 'I' for Inactive)
REMARK    1  A    between atoms: C_5  and  C_7
REMARK                            x       y       z     vdW  Elec       q    Type
REMARK                         _______ _______ _______ _____ _____    ______ ____
ROOT
ATOM      1  C   UNL     1       1.216  -2.187  -0.024  0.00  0.00    +0.087 C 
ATOM      2  C   UNL     1       1.207  -0.685  -0.013  0.00  0.00    -0.011 A 
ATOM      3  C   UNL     1       0.002  -0.004   0.002  0.00  0.00    +0.056 A 
ATOM      4  C   UNL     1      -0.017   1.381   0.010  0.00  0.00    +0.167 A 
ATOM      5  C   UNL     1       1.181   2.093   0.002  0.00  0.00    +0.168 A 
ATOM      6  C   UNL     1       2.386   1.413  -0.013  0.00  0.00    +0.073 A 
ATOM      7  C   UNL     1       2.399   0.025  -0.020  0.00  0.00    +0.039 A 
ATOM      8  N   UNL     1       3.613  -0.666  -0.031  0.00  0.00    -0.317 N 
ATOM      9  C   UNL     1       3.668  -1.969   0.372  0.00  0.00    +0.016 C 
ATOM     10  C   UNL     1       2.554  -2.733   0.404  0.00  0.00    +0.024 C 
ATOM     11  C   UNL     1       2.607  -4.066   0.843  0.00  0.00    +0.162 C 
ATOM     12  O   UNL     1       1.587  -4.728   0.858  0.00  0.00    -0.292 OA
ATOM     13  C   UNL     1       3.897  -4.692   1.296  0.00  0.00    +0.080 C 
ATOM     14  C   UNL     1       4.813  -3.599   1.855  0.00  0.00    +0.014 C 
ATOM     15  C   UNL     1       5.009  -2.533   0.776  0.00  0.00    +0.051 C 
ATOM     16  O   UNL     1       0.894   3.428   0.013  0.00  0.00    -0.453 OA
ATOM     17  C   UNL     1      -0.477   3.523   0.440  0.00  0.00    +0.466 C 
ATOM     18  O   UNL     1      -1.053   2.271   0.030  0.00  0.00    -0.453 OA
ATOM     19  H   UNL     1       4.421  -0.218  -0.326  0.00  0.00    +0.152 HD
ENDROOT
BRANCH   1  24
ATOM     20  C   UNL     1       1.450  -2.761  -3.748  0.00  0.00    +0.000 A 
ATOM     21  C   UNL     1       0.344  -3.559  -3.975  0.00  0.00    +0.001 A 
ATOM     22  C   UNL     1      -0.481  -3.912  -2.924  0.00  0.00    +0.020 A 
ATOM     23  C   UNL     1      -0.199  -3.468  -1.644  0.00  0.00    +0.045 A 
ATOM     24  C   UNL     1       0.909  -2.671  -1.417  0.00  0.00    -0.017 A 
ATOM     25  C   UNL     1       1.730  -2.314  -2.470  0.00  0.00    +0.006 A 
ATOM     26 CL   UNL     1      -1.234  -3.912  -0.323  0.00  0.00    -0.083 Cl
ENDBRANCH   1  24
TORSDOF 1
