REMARK  Name = ZINC13075825
REMARK  8 active torsions:
REMARK  status: ('A' for Active; 'I' for Inactive)
REMARK    1  A    between atoms: C_3  and  S_22
REMARK    2  A    between atoms: C_6  and  C_7
REMARK    3  A    between atoms: C_7  and  C_8
REMARK    4  A    between atoms: C_8  and  N_9
REMARK    5  A    between atoms: N_9  and  S_10
REMARK    6  A    between atoms: S_10  and  C_13
REMARK    7  A    between atoms: C_15  and  C_20
REMARK    8  A    between atoms: S_22  and  N_25
REMARK                            x       y       z     vdW  Elec       q    Type
REMARK                         _______ _______ _______ _____ _____    ______ ____
ROOT
ATOM      1  N   UNL     1       0.444   4.341  -1.414  0.00  0.00    -0.190 NA
ATOM      2  H   UNL     1       0.967   4.837  -2.063  0.00  0.00    +0.148 HD
ENDROOT
BRANCH   1   3
ATOM      3  S   UNL     1       1.135   3.857   0.011  0.00  0.00    +0.060 S 
ATOM      4  O   UNL     1       0.241   4.241   1.047  0.00  0.00    -0.153 OA
ATOM      5  O   UNL     1       2.488   4.290  -0.026  0.00  0.00    -0.153 OA
BRANCH   3   6
ATOM      6  C   UNL     1       1.170   2.096   0.002  0.00  0.00    +0.124 A 
ATOM      7  C   UNL     1       2.378   1.431  -0.013  0.00  0.00    +0.045 A 
ATOM      8  C   UNL     1       2.404   0.035  -0.021  0.00  0.00    +0.065 A 
ATOM      9  C   UNL     1       1.204  -0.680  -0.013  0.00  0.00    +0.016 A 
ATOM     10  C   UNL     1       0.002  -0.004   0.002  0.00  0.00    +0.023 A 
ATOM     11  C   UNL     1      -0.017   1.381   0.010  0.00  0.00    +0.067 A 
ATOM     12 CL   UNL     1      -1.534   2.225   0.021  0.00  0.00    -0.082 Cl
BRANCH   8  13
ATOM     13  C   UNL     1       3.694  -0.683  -0.037  0.00  0.00    +0.387 C 
ATOM     14  O   UNL     1       4.736  -0.059  -0.044  0.00  0.00    -0.241 OA
ATOM     15  O   UNL     1       3.715  -2.030  -0.045  0.00  0.00    -0.241 OA
ENDBRANCH   8  13
ENDBRANCH   3   6
ENDBRANCH   1   3
BRANCH   1  16
ATOM     16  C   UNL     1      -0.958   4.019  -1.694  0.00  0.00    +0.110 C 
BRANCH  16  17
ATOM     17  C   UNL     1      -1.453   4.874  -2.862  0.00  0.00    +0.052 C 
BRANCH  17  23
ATOM     18  C   UNL     1      -3.207   3.547  -4.056  0.00  0.00    +0.005 A 
ATOM     19  C   UNL     1      -4.530   3.240  -4.318  0.00  0.00    +0.029 A 
ATOM     20  C   UNL     1      -5.540   3.937  -3.680  0.00  0.00    +0.105 A 
ATOM     21  C   UNL     1      -5.227   4.937  -2.779  0.00  0.00    +0.029 A 
ATOM     22  C   UNL     1      -3.905   5.240  -2.514  0.00  0.00    +0.005 A 
ATOM     23  C   UNL     1      -2.895   4.543  -3.151  0.00  0.00    -0.046 A 
BRANCH  20  24
ATOM     24  S   UNL     1      -7.225   3.549  -4.017  0.00  0.00    +0.056 S 
ATOM     25  O   UNL     1      -7.247   2.208  -4.486  0.00  0.00    -0.153 OA
ATOM     26  O   UNL     1      -7.973   3.972  -2.885  0.00  0.00    -0.153 OA
BRANCH  24  27
ATOM     27  N   UNL     1      -7.703   4.502  -5.284  0.00  0.00    -0.204 NA
ATOM     28  H   UNL     1      -8.385   4.187  -5.898  0.00  0.00    +0.144 HD
ATOM     29  H   UNL     1      -7.302   5.376  -5.411  0.00  0.00    +0.144 HD
ENDBRANCH  24  27
ENDBRANCH  20  24
ENDBRANCH  17  23
ENDBRANCH  16  17
ENDBRANCH   1  16
TORSDOF 8
