REMARK  Name = ZINC49544847
REMARK  8 active torsions:
REMARK  status: ('A' for Active; 'I' for Inactive)
REMARK    1  A    between atoms: C_1  and  N_2
REMARK    2  A    between atoms: C_8  and  C_14
REMARK    3  A    between atoms: C_11  and  O_13
REMARK    4  A    between atoms: C_18  and  O_29
REMARK    5  A    between atoms: C_19  and  O_20
REMARK    6  A    between atoms: O_20  and  C_21
REMARK    7  A    between atoms: C_21  and  C_22
REMARK    8  A    between atoms: O_29  and  C_30
REMARK                            x       y       z     vdW  Elec       q    Type
REMARK                         _______ _______ _______ _____ _____    ______ ____
ROOT
ATOM      1  C   UNL     1      -4.564  -3.911  -1.401  0.00  0.00    +0.006 A 
ATOM      2  C   UNL     1      -5.074  -2.972  -2.279  0.00  0.00    +0.008 A 
ATOM      3  C   UNL     1      -5.374  -3.329  -3.579  0.00  0.00    +0.004 A 
ATOM      4  C   UNL     1      -5.166  -4.627  -4.009  0.00  0.00    +0.049 A 
ATOM      5  C   UNL     1      -4.654  -5.572  -3.135  0.00  0.00    +0.162 A 
ATOM      6  C   UNL     1      -4.346  -5.211  -1.827  0.00  0.00    +0.166 A 
ENDROOT
BRANCH   1  14
ATOM      7  C   UNL     1      -0.018   1.461   0.010  0.00  0.00    +0.127 C 
ATOM      8  N   UNL     1       0.002  -0.004   0.002  0.00  0.00    -0.326 N 
ATOM      9  C   UNL     1      -1.188  -0.713   0.010  0.00  0.00    +0.160 A 
ATOM     10  N   UNL     1      -2.430  -0.261   0.018  0.00  0.00    -0.206 NA
ATOM     11  C   UNL     1      -3.484  -1.084   0.027  0.00  0.00    +0.169 A 
ATOM     12  C   UNL     1      -3.218  -2.433   0.019  0.00  0.00    +0.045 A 
ATOM     13  S   UNL     1      -1.451  -2.484   0.003  0.00  0.00    -0.055 S 
ATOM     14  C   UNL     1      -4.238  -3.518   0.017  0.00  0.00    +0.072 C 
ATOM     15  C   UNL     1      -5.495  -2.971   0.711  0.00  0.00    +0.109 C 
ATOM     16  C   UNL     1      -5.744  -1.547   0.306  0.00  0.00    +0.190 C 
ATOM     17  N   UNL     1      -4.820  -0.693   0.020  0.00  0.00    -0.197 NA
ATOM     18  H   UNL     1       0.849  -0.478  -0.009  0.00  0.00    +0.148 HD
BRANCH  16  19
ATOM     19  O   UNL     1      -7.026  -1.129   0.237  0.00  0.00    -0.495 OA
ATOM     20  H   UNL     1      -7.125  -0.204  -0.029  0.00  0.00    +0.293 HD
ENDBRANCH  16  19
ENDBRANCH   1  14
BRANCH   5  21
ATOM     21  O   UNL     1      -4.449  -6.848  -3.556  0.00  0.00    -0.491 OA
ATOM     22  C   UNL     1      -4.782  -7.146  -4.914  0.00  0.00    +0.277 C 
ENDBRANCH   5  21
BRANCH   6  23
ATOM     23  O   UNL     1      -3.839  -6.134  -0.967  0.00  0.00    -0.483 OA
BRANCH  23  24
ATOM     24  C   UNL     1      -4.778  -6.889  -0.198  0.00  0.00    +0.264 C 
BRANCH  24  25
ATOM     25  C   UNL     1      -4.037  -7.854   0.692  0.00  0.00    -0.010 A 
ATOM     26  C   UNL     1      -3.735  -9.123   0.233  0.00  0.00    +0.010 A 
ATOM     27  C   UNL     1      -3.055 -10.009   1.048  0.00  0.00    +0.039 A 
ATOM     28  C   UNL     1      -2.678  -9.625   2.324  0.00  0.00    +0.123 A 
ATOM     29  C   UNL     1      -2.981  -8.354   2.782  0.00  0.00    +0.039 A 
ATOM     30  C   UNL     1      -3.656  -7.468   1.963  0.00  0.00    +0.010 A 
ATOM     31  F   UNL     1      -2.014 -10.491   3.121  0.00  0.00    -0.205 F 
ENDBRANCH  24  25
ENDBRANCH  23  24
ENDBRANCH   6  23
TORSDOF 6
