REMARK  Name = ZINC04260712
REMARK  6 active torsions:
REMARK  status: ('A' for Active; 'I' for Inactive)
REMARK    1  A    between atoms: C_1  and  C_2
REMARK    2  A    between atoms: C_2  and  C_3
REMARK    3  A    between atoms: C_2  and  C_4
REMARK    4  A    between atoms: C_7  and  N_10
REMARK    5  A    between atoms: N_19  and  S_20
REMARK    6  A    between atoms: S_20  and  C_23
REMARK                            x       y       z     vdW  Elec       q    Type
REMARK                         _______ _______ _______ _____ _____    ______ ____
ROOT
ATOM      1  N   UNL     1       0.475   3.554  -1.286  0.00  0.00    -0.193 N 
ATOM      2  C   UNL     1       0.919   3.268  -0.053  0.00  0.00    +0.248 C 
ATOM      3  O   UNL     1       1.315   4.169   0.655  0.00  0.00    -0.273 OA
ATOM      4  C   UNL     1       0.938   1.860   0.474  0.00  0.00    +0.186 C 
ATOM      5  C   UNL     1      -0.166   1.023  -0.197  0.00  0.00    +0.103 C 
ATOM      6  C   UNL     1      -1.421   1.414   0.620  0.00  0.00    +0.041 C 
ATOM      7  C   UNL     1      -0.857   1.619   2.042  0.00  0.00    +0.112 C 
ATOM      8  N   UNL     1       0.584   1.878   1.907  0.00  0.00    -0.163 NA
ATOM      9  N   UNL     1      -0.325   1.374  -1.598  0.00  0.00    -0.294 N 
ATOM     10  C   UNL     1      -0.067   2.607  -2.067  0.00  0.00    +0.313 C 
ATOM     11  O   UNL     1      -0.323   2.866  -3.227  0.00  0.00    -0.252 OA
ATOM     12  H   UNL     1      -0.623   0.690  -2.217  0.00  0.00    +0.151 HD
ENDROOT
BRANCH   1  16
ATOM     13  C   UNL     1       0.786   7.457  -2.719  0.00  0.00    -0.045 A 
ATOM     14  C   UNL     1      -0.362   7.052  -2.062  0.00  0.00    +0.006 A 
ATOM     15  C   UNL     1      -0.468   5.760  -1.586  0.00  0.00    +0.024 A 
ATOM     16  C   UNL     1       0.580   4.867  -1.768  0.00  0.00    +0.045 A 
ATOM     17  C   UNL     1       1.733   5.278  -2.422  0.00  0.00    +0.024 A 
ATOM     18  C   UNL     1       1.831   6.570  -2.900  0.00  0.00    +0.006 A 
BRANCH  13  20
ATOM     19  C   UNL     1       2.092   9.560  -2.575  0.00  0.00    +0.012 C 
ATOM     20  C   UNL     1       0.898   8.867  -3.236  0.00  0.00    +0.013 C 
ATOM     21  C   UNL     1       1.101   8.839  -4.753  0.00  0.00    +0.012 C 
ENDBRANCH  13  20
ENDBRANCH   1  16
BRANCH   8  22
ATOM     22  S   UNL     1       1.637   2.145   3.158  0.00  0.00    +0.062 S 
ATOM     23  O   UNL     1       1.060   1.545   4.309  0.00  0.00    -0.153 OA
ATOM     24  O   UNL     1       2.929   1.796   2.682  0.00  0.00    -0.153 OA
BRANCH  22  25
ATOM     25  C   UNL     1       1.662   3.882   3.455  0.00  0.00    +0.106 A 
ATOM     26  C   UNL     1       2.575   4.683   2.793  0.00  0.00    +0.030 A 
ATOM     27  C   UNL     1       2.592   6.046   3.022  0.00  0.00    +0.022 A 
ATOM     28  C   UNL     1       1.703   6.607   3.921  0.00  0.00    +0.041 A 
ATOM     29  C   UNL     1       0.794   5.804   4.587  0.00  0.00    +0.022 A 
ATOM     30  C   UNL     1       0.774   4.442   4.354  0.00  0.00    +0.030 A 
ATOM     31 CL   UNL     1       1.728   8.318   4.214  0.00  0.00    -0.084 Cl
ENDBRANCH  22  25
ENDBRANCH   8  22
TORSDOF 4
