REMARK  Name = ZINC40104995
REMARK  5 active torsions:
REMARK  status: ('A' for Active; 'I' for Inactive)
REMARK    1  A    between atoms: C_4  and  S_23
REMARK    2  A    between atoms: C_5  and  N_7
REMARK    3  A    between atoms: N_13  and  C_16
REMARK    4  A    between atoms: C_21  and  O_22
REMARK    5  A    between atoms: S_23  and  C_24
REMARK                            x       y       z     vdW  Elec       q    Type
REMARK                         _______ _______ _______ _____ _____    ______ ____
ROOT
ATOM      1  N   UNL     1       1.234  -2.082  -0.011  0.00  0.00    -0.268 N 
ATOM      2  C   UNL     1       0.082  -2.775   0.088  0.00  0.00    +0.307 C 
ATOM      3  O   UNL     1      -0.983  -2.187   0.092  0.00  0.00    -0.252 OA
ATOM      4  N   UNL     1       0.110  -4.119   0.181  0.00  0.00    -0.282 N 
ATOM      5  C   UNL     1       1.389  -4.835   0.282  0.00  0.00    +0.128 C 
ATOM      6  C   UNL     1       1.361  -5.713   1.539  0.00  0.00    +0.124 C 
ATOM      7  N   UNL     1       0.113  -6.489   1.543  0.00  0.00    -0.324 N 
ATOM      8  C   UNL     1      -1.167  -5.773   1.442  0.00  0.00    +0.124 C 
ATOM      9  C   UNL     1      -1.139  -4.894   0.191  0.00  0.00    +0.128 C 
ATOM     10  H   UNL     1       2.080  -2.553  -0.055  0.00  0.00    +0.156 HD
ENDROOT
BRANCH   1  15
ATOM     11  C   UNL     1       0.044   1.364  -0.516  0.00  0.00    +0.002 A 
ATOM     12  C   UNL     1       1.156   2.089  -0.128  0.00  0.00    +0.001 A 
ATOM     13  C   UNL     1       2.297   1.437   0.300  0.00  0.00    +0.016 A 
ATOM     14  C   UNL     1       2.329   0.051   0.341  0.00  0.00    +0.029 A 
ATOM     15  C   UNL     1       1.208  -0.681  -0.050  0.00  0.00    +0.048 A 
ATOM     16  C   UNL     1       0.068  -0.018  -0.478  0.00  0.00    +0.024 A 
BRANCH  14  17
ATOM     17  S   UNL     1       3.783  -0.784   0.885  0.00  0.00    -0.120 S 
BRANCH  17  18
ATOM     18  C   UNL     1       4.939   0.558   1.276  0.00  0.00    +0.051 C 
ATOM     19  C   UNL     1       5.355   1.290  -0.017  0.00  0.00    +0.014 C 
ATOM     20  C   UNL     1       6.848   1.635   0.205  0.00  0.00    +0.001 C 
ATOM     21  C   UNL     1       7.381   0.384   0.947  0.00  0.00    +0.001 C 
ATOM     22  C   UNL     1       6.228  -0.018   1.889  0.00  0.00    +0.014 C 
ENDBRANCH  17  18
ENDBRANCH  14  17
ENDBRANCH   1  15
BRANCH   7  23
ATOM     23  C   UNL     1       0.142  -7.885   1.640  0.00  0.00    +0.072 A 
ATOM     24  C   UNL     1       0.103  -8.496   2.885  0.00  0.00    +0.027 A 
ATOM     25  C   UNL     1       0.131  -9.875   2.978  0.00  0.00    +0.002 A 
ATOM     26  C   UNL     1       0.198 -10.648   1.833  0.00  0.00    +0.004 A 
ATOM     27  C   UNL     1       0.237 -10.045   0.589  0.00  0.00    +0.047 A 
ATOM     28  C   UNL     1       0.204  -8.664   0.487  0.00  0.00    +0.138 A 
BRANCH  28  29
ATOM     29  O   UNL     1       0.237  -8.070  -0.736  0.00  0.00    -0.505 OA
ATOM     30  H   UNL     1       1.130  -7.878  -1.056  0.00  0.00    +0.292 HD
ENDBRANCH  28  29
ENDBRANCH   7  23
TORSDOF 5
