REMARK  Name = ZINC09341556
REMARK  3 active torsions:
REMARK  status: ('A' for Active; 'I' for Inactive)
REMARK    1  A    between atoms: C_1  and  N_2
REMARK    2  A    between atoms: C_6  and  C_7
REMARK    3  A    between atoms: C_14  and  O_17
REMARK                            x       y       z     vdW  Elec       q    Type
REMARK                         _______ _______ _______ _____ _____    ______ ____
ROOT
ATOM      1  C   UNL     1      -2.104  -4.334  -0.106  0.00  0.00    +0.001 A 
ATOM      2  C   UNL     1      -0.916  -5.049  -0.115  0.00  0.00    +0.091 A 
ATOM      3  N   UNL     1      -1.183  -6.362  -0.226  0.00  0.00    -0.360 N 
ATOM      4  H   UNL     1      -0.511  -7.060  -0.253  0.00  0.00    +0.165 HD
ATOM      5  C   UNL     1      -2.547  -6.582  -0.296  0.00  0.00    +0.047 A 
ATOM      6  C   UNL     1      -3.185  -5.335  -0.218  0.00  0.00    +0.010 A 
ATOM      7  C   UNL     1      -4.573  -5.255  -0.259  0.00  0.00    +0.056 A 
ATOM      8  C   UNL     1      -5.322  -6.412  -0.372  0.00  0.00    +0.118 A 
ATOM      9  C   UNL     1      -4.689  -7.649  -0.446  0.00  0.00    +0.047 A 
ATOM     10  C   UNL     1      -3.314  -7.735  -0.414  0.00  0.00    +0.030 A 
ENDROOT
BRANCH   1  16
ATOM     11  C   UNL     1      -0.733   1.315   1.982  0.00  0.00    +0.143 C 
ATOM     12  N   UNL     1      -0.805  -0.148   1.946  0.00  0.00    -0.223 N 
ATOM     13  C   UNL     1      -1.505  -0.762   0.968  0.00  0.00    +0.259 C 
ATOM     14  O   UNL     1      -2.081  -0.118   0.110  0.00  0.00    -0.269 OA
ATOM     15  C   UNL     1      -1.549  -2.234   0.972  0.00  0.00    +0.102 C 
ATOM     16  C   UNL     1      -2.250  -2.938  -0.004  0.00  0.00    +0.028 C 
ATOM     17  C   UNL     1      -0.848  -2.910   2.010  0.00  0.00    +0.276 C 
ATOM     18  O   UNL     1      -0.848  -4.258   2.070  0.00  0.00    -0.268 OA
ATOM     19  N   UNL     1      -0.196  -2.199   2.914  0.00  0.00    -0.123 NA
ATOM     20  C   UNL     1      -0.169  -0.869   2.884  0.00  0.00    +0.335 C 
ATOM     21  O   UNL     1       0.457  -0.279   3.748  0.00  0.00    -0.250 OA
ENDBRANCH   1  16
BRANCH   8  22
ATOM     22  O   UNL     1      -6.679  -6.341  -0.412  0.00  0.00    -0.507 OA
ATOM     23  H   UNL     1      -7.043  -6.253  -1.304  0.00  0.00    +0.292 HD
ENDBRANCH   8  22
TORSDOF 2
