REMARK  Name = ZINC52949800
REMARK  4 active torsions:
REMARK  status: ('A' for Active; 'I' for Inactive)
REMARK    1  A    between atoms: C_1  and  N_2
REMARK    2  A    between atoms: N_2  and  C_3
REMARK    3  A    between atoms: C_4  and  C_6
REMARK    4  A    between atoms: C_12  and  C_14
REMARK                            x       y       z     vdW  Elec       q    Type
REMARK                         _______ _______ _______ _____ _____    ______ ____
ROOT
ATOM      1  C   UNL     1      -2.136  -1.624   1.178  0.00  0.00    +0.078 C 
ATOM      2  C   UNL     1      -1.423  -2.241   2.383  0.00  0.00    +0.032 C 
ATOM      3  C   UNL     1      -0.858  -3.610   1.990  0.00  0.00    +0.108 C 
ATOM      4  N   UNL     1      -1.946  -4.433   1.446  0.00  0.00    -0.301 N 
ATOM      5  C   UNL     1      -2.755  -3.895   0.344  0.00  0.00    +0.108 C 
ATOM      6  C   UNL     1      -3.300  -2.524   0.755  0.00  0.00    +0.032 C 
ATOM      7  C   UNL     1      -2.197  -5.658   1.948  0.00  0.00    +0.219 C 
ATOM      8  O   UNL     1      -3.148  -6.295   1.546  0.00  0.00    -0.275 OA
ENDROOT
BRANCH   7   9
ATOM      9  C   UNL     1      -1.297  -6.237   3.009  0.00  0.00    +0.079 C 
ATOM     10  C   UNL     1      -2.045  -7.333   3.779  0.00  0.00    +0.017 C 
ATOM     11  C   UNL     1      -1.175  -7.776   4.957  0.00  0.00    +0.027 C 
ATOM     12  C   UNL     1       0.220  -8.070   4.489  0.00  0.00    -0.031 C 
ATOM     13  C   UNL     1       0.704  -7.669   3.357  0.00  0.00    -0.030 C 
ATOM     14  C   UNL     1      -0.062  -6.858   2.352  0.00  0.00    +0.039 C 
ENDBRANCH   7   9
BRANCH   1  18
ATOM     15  C   UNL     1      -2.329   2.025   2.321  0.00  0.00    +0.131 C 
ATOM     16  N   UNL     1      -1.815   0.702   1.958  0.00  0.00    -0.307 N 
ATOM     17  C   UNL     1      -0.379   0.427   2.038  0.00  0.00    +0.131 C 
ATOM     18  C   UNL     1      -2.665  -0.263   1.552  0.00  0.00    +0.218 C 
ATOM     19  O   UNL     1      -3.854  -0.035   1.486  0.00  0.00    -0.275 OA
ENDBRANCH   1  18
TORSDOF 2
