REMARK  Name = ZINC07243206
REMARK  5 active torsions:
REMARK  status: ('A' for Active; 'I' for Inactive)
REMARK    1  A    between atoms: C_6  and  C_7
REMARK    2  A    between atoms: C_10  and  C_12
REMARK    3  A    between atoms: C_12  and  N_13
REMARK    4  A    between atoms: C_14  and  C_16
REMARK    5  A    between atoms: C_19  and  N_23
REMARK                            x       y       z     vdW  Elec       q    Type
REMARK                         _______ _______ _______ _____ _____    ______ ____
ROOT
ATOM      1  N   UNL     1       2.502  -0.272  -0.024  0.00  0.00    -0.304 N 
ATOM      2  C   UNL     1       2.478   1.075  -0.016  0.00  0.00    +0.246 C 
ATOM      3  O   UNL     1       3.520   1.702  -0.023  0.00  0.00    -0.270 OA
ATOM      4  H   UNL     1       1.671  -0.772  -0.019  0.00  0.00    +0.149 HD
ENDROOT
BRANCH   2   5
ATOM      5  C   UNL     1       1.186   1.792   0.000  0.00  0.00    +0.055 A 
ATOM      6  C   UNL     1      -0.013   1.076   0.008  0.00  0.00    +0.017 A 
ATOM      7  C   UNL     1      -1.215   1.750   0.017  0.00  0.00    +0.033 A 
ATOM      8  C   UNL     1      -1.237   3.134   0.030  0.00  0.00    +0.128 A 
ATOM      9  C   UNL     1      -0.054   3.851   0.023  0.00  0.00    +0.053 A 
ATOM     10  C   UNL     1       1.158   3.188   0.008  0.00  0.00    +0.055 A 
ATOM     11 CL   UNL     1       2.642   4.089  -0.002  0.00  0.00    -0.083 Cl
BRANCH   8  12
ATOM     12  N   UNL     1      -2.532   3.851   0.046  0.00  0.00    +0.056 N 
ATOM     13  O   UNL     1      -2.554   5.069   0.052  0.00  0.00    -0.126 OA
ATOM     14  O   UNL     1      -3.575   3.223   0.052  0.00  0.00    -0.126 OA
ENDBRANCH   8  12
ENDBRANCH   2   5
BRANCH   1  15
ATOM     15  C   UNL     1       3.783  -0.982  -0.041  0.00  0.00    +0.179 C 
BRANCH  15  19
ATOM     16  C   UNL     1       3.198  -4.520   0.659  0.00  0.00    +0.135 A 
ATOM     17  C   UNL     1       3.177  -4.557  -0.700  0.00  0.00    +0.050 A 
ATOM     18  C   UNL     1       3.393  -3.237  -1.145  0.00  0.00    +0.047 A 
ATOM     19  C   UNL     1       3.534  -2.469  -0.047  0.00  0.00    +0.123 A 
ATOM     20  O   UNL     1       3.421  -3.248   1.041  0.00  0.00    -0.458 OA
BRANCH  16  26
ATOM     21  C   UNL     1       2.790  -6.949   1.032  0.00  0.00    +0.013 A 
ATOM     22  C   UNL     1       2.624  -8.025   1.878  0.00  0.00    +0.021 A 
ATOM     23  C   UNL     1       2.670  -7.844   3.250  0.00  0.00    +0.041 A 
ATOM     24  C   UNL     1       2.887  -6.584   3.781  0.00  0.00    +0.021 A 
ATOM     25  C   UNL     1       3.059  -5.501   2.945  0.00  0.00    +0.013 A 
ATOM     26  C   UNL     1       3.014  -5.677   1.560  0.00  0.00    +0.017 A 
ATOM     27 CL   UNL     1       2.454  -9.203   4.309  0.00  0.00    -0.084 Cl
ENDBRANCH  16  26
ENDBRANCH  15  19
ENDBRANCH   1  15
TORSDOF 5
