REMARK  Name = ZINC64215641
REMARK  8 active torsions:
REMARK  status: ('A' for Active; 'I' for Inactive)
REMARK    1  A    between atoms: C_1  and  C_2
REMARK    2  A    between atoms: C_2  and  C_4
REMARK    3  A    between atoms: C_2  and  N_26
REMARK    4  A    between atoms: N_6  and  C_7
REMARK    5  A    between atoms: C_7  and  C_8
REMARK    6  A    between atoms: C_8  and  C_10
REMARK    7  A    between atoms: C_8  and  C_17
REMARK    8  A    between atoms: N_29  and  C_30
REMARK                            x       y       z     vdW  Elec       q    Type
REMARK                         _______ _______ _______ _____ _____    ______ ____
ROOT
ATOM      1  C   UNL     1       0.904  -0.656  -3.663  0.00  0.00    +0.116 C 
ENDROOT
BRANCH   1   4
ATOM      2  C   UNL     1       0.701  -0.502  -1.239  0.00  0.00    +0.233 C 
ATOM      3  O   UNL     1       1.693  -1.192  -1.142  0.00  0.00    -0.274 OA
ATOM      4  N   UNL     1       0.224  -0.176  -2.457  0.00  0.00    -0.313 N 
ATOM      5  H   UNL     1      -0.570   0.377  -2.535  0.00  0.00    +0.149 HD
BRANCH   2   7
ATOM      6  C   UNL     1      -0.009   1.522   0.006  0.00  0.00    +0.038 C 
ATOM      7  C   UNL     1       0.002  -0.008   0.001  0.00  0.00    +0.157 C 
BRANCH   7   8
ATOM      8  N   UNL     1       0.710  -0.495   1.187  0.00  0.00    -0.288 N 
ATOM      9  C   UNL     1       0.052  -0.632   2.356  0.00  0.00    +0.304 C 
ATOM     10  O   UNL     1      -1.129  -0.351   2.425  0.00  0.00    -0.252 OA
ATOM     11  N   UNL     1       0.703  -1.080   3.447  0.00  0.00    -0.269 N 
ATOM     12  H   UNL     1       1.652  -0.719   1.132  0.00  0.00    +0.151 HD
ATOM     13  H   UNL     1       1.627  -1.367   3.377  0.00  0.00    +0.156 HD
BRANCH  11  14
ATOM     14  C   UNL     1       0.047  -1.130   4.682  0.00  0.00    +0.035 A 
ATOM     15  C   UNL     1       0.745  -0.864   5.853  0.00  0.00    +0.023 A 
ATOM     16  C   UNL     1       0.094  -0.914   7.070  0.00  0.00    +0.002 A 
ATOM     17  C   UNL     1      -1.251  -1.229   7.124  0.00  0.00    +0.000 A 
ATOM     18  C   UNL     1      -1.949  -1.496   5.960  0.00  0.00    +0.002 A 
ATOM     19  C   UNL     1      -1.306  -1.442   4.739  0.00  0.00    +0.023 A 
ENDBRANCH  11  14
ENDBRANCH   7   8
ENDBRANCH   2   7
ENDBRANCH   1   4
BRANCH   1  20
ATOM     20  C   UNL     1       0.164  -0.147  -4.902  0.00  0.00    +0.066 C 
BRANCH  20  21
ATOM     21  C   UNL     1       0.789  -0.740  -6.138  0.00  0.00    -0.033 C 
ATOM     22  C   UNL     1       0.181  -1.516  -7.064  0.00  0.00    -0.000 A 
ATOM     23  C   UNL     1      -1.190  -2.023  -7.191  0.00  0.00    +0.010 A 
ATOM     24  C   UNL     1      -1.507  -2.798  -8.254  0.00  0.00    +0.001 A 
ATOM     25  C   UNL     1      -0.561  -3.128  -9.234  0.00  0.00    +0.002 A 
ATOM     26  C   UNL     1       0.718  -2.700  -9.186  0.00  0.00    +0.026 A 
ATOM     27  C   UNL     1       1.162  -1.879  -8.112  0.00  0.00    +0.043 A 
ATOM     28  N   UNL     1       2.330  -1.347  -7.845  0.00  0.00    -0.380 N 
ATOM     29  C   UNL     1       2.221  -0.581  -6.599  0.00  0.00    +0.145 C 
ATOM     30  H   UNL     1       3.131  -1.441  -8.384  0.00  0.00    +0.160 HD
ENDBRANCH  20  21
BRANCH  20  31
ATOM     31  C   UNL     1       0.260   1.356  -4.962  0.00  0.00    -0.020 A 
ATOM     32  C   UNL     1       1.497   1.968  -5.043  0.00  0.00    +0.006 A 
ATOM     33  C   UNL     1       1.584   3.346  -5.098  0.00  0.00    +0.000 A 
ATOM     34  C   UNL     1       0.435   4.114  -5.072  0.00  0.00    +0.001 A 
ATOM     35  C   UNL     1      -0.802   3.503  -4.992  0.00  0.00    +0.020 A 
ATOM     36  C   UNL     1      -0.891   2.123  -4.942  0.00  0.00    +0.045 A 
ATOM     37 CL   UNL     1      -2.445   1.356  -4.848  0.00  0.00    -0.083 Cl
ENDBRANCH  20  31
ENDBRANCH   1  20
TORSDOF 7
