REMARK  Name = ZINC16005018
REMARK  6 active torsions:
REMARK  status: ('A' for Active; 'I' for Inactive)
REMARK    1  A    between atoms: C_1  and  N_2
REMARK    2  A    between atoms: N_11  and  C_12
REMARK    3  A    between atoms: C_12  and  C_14
REMARK    4  A    between atoms: C_14  and  C_15
REMARK    5  A    between atoms: C_15  and  C_16
REMARK    6  A    between atoms: C_16  and  C_18
REMARK                            x       y       z     vdW  Elec       q    Type
REMARK                         _______ _______ _______ _____ _____    ______ ____
ROOT
ATOM      1  C   UNL     1      -0.018   1.461   0.010  0.00  0.00    +0.151 C 
ATOM      2  N   UNL     1       0.002  -0.004   0.002  0.00  0.00    -0.324 N 
ATOM      3  C   UNL     1      -1.184  -0.713   0.004  0.00  0.00    +0.057 A 
ATOM      4  C   UNL     1      -2.502  -0.234   0.014  0.00  0.00    +0.027 A 
ATOM      5  C   UNL     1      -3.564  -1.108   0.015  0.00  0.00    +0.002 A 
ATOM      6  C   UNL     1      -3.366  -2.479   0.006  0.00  0.00    +0.001 A 
ATOM      7  C   UNL     1      -2.075  -2.977  -0.004  0.00  0.00    +0.017 A 
ATOM      8  C   UNL     1      -1.012  -2.105  -0.005  0.00  0.00    +0.039 A 
ATOM      9  S   UNL     1       0.752  -2.292  -0.015  0.00  0.00    -0.052 S 
ATOM     10  C   UNL     1       1.185  -0.668  -0.013  0.00  0.00    +0.166 A 
ATOM     11  N   UNL     1       2.412  -0.151  -0.023  0.00  0.00    -0.156 NA
ENDROOT
BRANCH  11  12
ATOM     12  C   UNL     1       3.471  -0.953  -0.038  0.00  0.00    +0.239 C 
ATOM     13  O   UNL     1       3.320  -2.160  -0.043  0.00  0.00    -0.274 OA
BRANCH  12  14
ATOM     14  C   UNL     1       4.860  -0.367  -0.048  0.00  0.00    +0.106 C 
BRANCH  14  15
ATOM     15  C   UNL     1       5.890  -1.498  -0.065  0.00  0.00    +0.089 C 
BRANCH  15  16
ATOM     16  C   UNL     1       7.279  -0.912  -0.075  0.00  0.00    +0.170 C 
ATOM     17  O   UNL     1       7.429   0.293  -0.070  0.00  0.00    -0.291 OA
BRANCH  16  18
ATOM     18  C   UNL     1       8.405  -1.765  -0.091  0.00  0.00    +0.055 A 
ATOM     19  C   UNL     1       9.756  -1.433  -0.097  0.00  0.00    +0.019 A 
ATOM     20  C   UNL     1      10.628  -2.492  -0.113  0.00  0.00    +0.008 A 
ATOM     21  C   UNL     1      10.132  -3.756  -0.122  0.00  0.00    +0.046 A 
ATOM     22  S   UNL     1       8.465  -3.547  -0.101  0.00  0.00    -0.094 S 
ENDBRANCH  16  18
ENDBRANCH  15  16
ENDBRANCH  14  15
ENDBRANCH  12  14
ENDBRANCH  11  12
TORSDOF 5
