REMARK  Name = ZINC43023152
REMARK  8 active torsions:
REMARK  status: ('A' for Active; 'I' for Inactive)
REMARK    1  A    between atoms: C_1  and  C_2
REMARK    2  A    between atoms: C_3  and  C_9
REMARK    3  A    between atoms: C_6  and  N_8
REMARK    4  A    between atoms: C_9  and  N_10
REMARK    5  A    between atoms: C_11  and  C_13
REMARK    6  A    between atoms: C_13  and  N_14
REMARK    7  A    between atoms: C_23  and  N_27
REMARK    8  A    between atoms: C_28  and  C_30
REMARK                            x       y       z     vdW  Elec       q    Type
REMARK                         _______ _______ _______ _____ _____    ______ ____
ROOT
ATOM      1  C   UNL     1       2.959   1.754  -4.246  0.00  0.00    +0.209 C 
ENDROOT
BRANCH   1   2
ATOM      2  N   UNL     1       2.942   2.495  -5.510  0.00  0.00    -0.260 N 
ATOM      3  C   UNL     1       3.152   1.817  -6.720  0.00  0.00    +0.050 A 
ATOM      4  C   UNL     1       2.425   0.678  -7.027  0.00  0.00    +0.024 A 
ATOM      5  C   UNL     1       2.645   0.026  -8.227  0.00  0.00    +0.002 A 
ATOM      6  C   UNL     1       3.585   0.507  -9.121  0.00  0.00    +0.001 A 
ATOM      7  C   UNL     1       4.315   1.643  -8.821  0.00  0.00    +0.016 A 
ATOM      8  C   UNL     1       4.100   2.299  -7.620  0.00  0.00    +0.029 A 
ATOM      9  S   UNL     1       5.021   3.745  -7.207  0.00  0.00    -0.121 S 
ATOM     10  C   UNL     1       3.791   5.083  -7.374  0.00  0.00    +0.106 C 
ATOM     11  C   UNL     1       2.470   4.569  -6.776  0.00  0.00    +0.169 C 
ATOM     12  C   UNL     1       2.722   3.816  -5.505  0.00  0.00    +0.241 C 
ATOM     13  O   UNL     1       2.732   4.416  -4.451  0.00  0.00    -0.273 OA
BRANCH  11  14
ATOM     14  N   UNL     1       1.817   3.678  -7.738  0.00  0.00    -0.303 N 
ATOM     15  C   UNL     1       0.481   3.504  -7.696  0.00  0.00    +0.211 C 
ATOM     16  O   UNL     1      -0.180   4.086  -6.863  0.00  0.00    -0.276 OA
ATOM     17  C   UNL     1      -0.190   2.587  -8.686  0.00  0.00    +0.109 C 
ATOM     18  H   UNL     1       2.346   3.212  -8.404  0.00  0.00    +0.149 HD
ENDBRANCH  11  14
ENDBRANCH   1   2
BRANCH   1  20
ATOM     19  N   UNL     1       1.341   0.557  -2.809  0.00  0.00    -0.310 N 
ATOM     20  C   UNL     1       1.568   1.267  -3.931  0.00  0.00    +0.231 C 
ATOM     21  O   UNL     1       0.653   1.516  -4.687  0.00  0.00    -0.274 OA
ATOM     22  H   UNL     1       2.073   0.358  -2.204  0.00  0.00    +0.149 HD
BRANCH  19  23
ATOM     23  C   UNL     1      -0.011   0.084  -2.502  0.00  0.00    +0.141 C 
BRANCH  23  26
ATOM     24  C   UNL     1      -0.018   1.503   0.010  0.00  0.00    +0.063 C 
ATOM     25  C   UNL     1       0.002  -0.004   0.002  0.00  0.00    +0.019 A 
ATOM     26  C   UNL     1       0.005  -0.679  -1.202  0.00  0.00    -0.011 A 
ATOM     27  C   UNL     1       0.024  -2.067  -1.204  0.00  0.00    +0.010 A 
ATOM     28  C   UNL     1       0.039  -2.729   0.011  0.00  0.00    +0.041 A 
ATOM     29  C   UNL     1       0.035  -1.985   1.186  0.00  0.00    +0.094 A 
ATOM     30  N   UNL     1       0.022  -0.661   1.146  0.00  0.00    -0.347 N 
ATOM     31  H   UNL     1       0.023  -0.163   1.978  0.00  0.00    +0.167 HD
BRANCH  29  32
ATOM     32  N   UNL     1       0.049  -2.637   2.414  0.00  0.00    -0.345 N 
ATOM     33  H   UNL     1       0.062  -3.606   2.448  0.00  0.00    +0.144 HD
ATOM     34  H   UNL     1       0.046  -2.122   3.236  0.00  0.00    +0.144 HD
ENDBRANCH  29  32
ENDBRANCH  23  26
ENDBRANCH  19  23
ENDBRANCH   1  20
TORSDOF 6
