REMARK  Name = ZINC39591901
REMARK  10 active torsions:
REMARK  status: ('A' for Active; 'I' for Inactive)
REMARK    1  A    between atoms: C_1  and  C_2
REMARK    2  A    between atoms: C_5  and  O_34
REMARK    3  A    between atoms: C_6  and  C_8
REMARK    4  A    between atoms: C_8  and  C_10
REMARK    5  A    between atoms: C_10  and  S_11
REMARK    6  A    between atoms: S_11  and  C_12
REMARK    7  A    between atoms: C_15  and  C_24
REMARK    8  A    between atoms: N_16  and  C_17
REMARK    9  A    between atoms: C_17  and  C_18
REMARK   10  A    between atoms: O_34  and  C_35
REMARK                            x       y       z     vdW  Elec       q    Type
REMARK                         _______ _______ _______ _____ _____    ______ ____
ROOT
ATOM      1  C   UNL     1       0.234  -2.339   6.639  0.00  0.00    +0.192 A 
ATOM      2  N   UNL     1       0.196  -1.029   6.574  0.00  0.00    -0.122 NA
ATOM      3  N   UNL     1      -0.023  -0.534   7.740  0.00  0.00    -0.128 NA
ATOM      4  C   UNL     1      -0.138  -1.500   8.622  0.00  0.00    +0.167 A 
ATOM      5  N   UNL     1       0.017  -2.687   7.944  0.00  0.00    -0.300 N 
ENDROOT
BRANCH   4   6
ATOM      6  C   UNL     1      -0.392  -1.342  10.068  0.00  0.00    +0.044 A 
ATOM      7  C   UNL     1      -1.300  -2.026  10.812  0.00  0.00    +0.095 A 
ATOM      8  N   UNL     1      -1.244  -1.605  12.109  0.00  0.00    -0.360 N 
ATOM      9  H   UNL     1      -1.797  -1.947  12.828  0.00  0.00    +0.165 HD
ATOM     10  C   UNL     1      -0.286  -0.623  12.250  0.00  0.00    +0.047 A 
ATOM     11  C   UNL     1       0.293  -0.417  10.986  0.00  0.00    +0.010 A 
ATOM     12  C   UNL     1       1.307   0.526  10.829  0.00  0.00    +0.011 A 
ATOM     13  C   UNL     1       1.738   1.251  11.918  0.00  0.00    +0.001 A 
ATOM     14  C   UNL     1       1.169   1.046  13.167  0.00  0.00    +0.002 A 
ATOM     15  C   UNL     1       0.161   0.123  13.336  0.00  0.00    +0.026 A 
ENDBRANCH   4   6
BRANCH   1  16
ATOM     16  S   UNL     1       0.507  -3.445   5.294  0.00  0.00    -0.078 S 
BRANCH  16  17
ATOM     17  C   UNL     1       0.722  -2.351   3.863  0.00  0.00    +0.157 C 
BRANCH  17  18
ATOM     18  C   UNL     1       0.966  -3.180   2.629  0.00  0.00    +0.177 C 
ATOM     19  O   UNL     1       0.993  -4.390   2.707  0.00  0.00    -0.291 OA
BRANCH  18  25
ATOM     20  C   UNL     1       1.302   0.985  -0.085  0.00  0.00    +0.044 C 
ATOM     21  C   UNL     1       1.334  -0.518   0.017  0.00  0.00    -0.050 A 
ATOM     22  C   UNL     1       1.559  -1.281  -1.118  0.00  0.00    +0.007 A 
ATOM     23  C   UNL     1       1.592  -2.659  -1.040  0.00  0.00    +0.047 A 
ATOM     24  C   UNL     1       1.399  -3.292   0.179  0.00  0.00    +0.137 A 
ATOM     25  C   UNL     1       1.171  -2.523   1.332  0.00  0.00    +0.060 A 
ATOM     26  C   UNL     1       1.147  -1.127   1.238  0.00  0.00    +0.018 A 
BRANCH  24  27
ATOM     27  O   UNL     1       1.431  -4.645   0.257  0.00  0.00    -0.434 OA
BRANCH  27  28
ATOM     28  C   UNL     1       1.667  -5.360  -0.958  0.00  0.00    +0.541 C 
ATOM     29  F   UNL     1       0.658  -5.060  -1.879  0.00  0.00    -0.166 F 
ATOM     30  F   UNL     1       2.907  -4.985  -1.486  0.00  0.00    -0.166 F 
ENDBRANCH  27  28
ENDBRANCH  24  27
ENDBRANCH  18  25
ENDBRANCH  17  18
ENDBRANCH  16  17
ENDBRANCH   1  16
BRANCH   5  31
ATOM     31  C   UNL     1      -0.037  -4.040   8.503  0.00  0.00    +0.157 C 
BRANCH  31  32
ATOM     32  C   UNL     1       1.381  -4.515   8.826  0.00  0.00    +0.138 C 
ATOM     33  C   UNL     1       1.346  -5.983   9.302  0.00  0.00    +0.035 C 
ATOM     34  C   UNL     1       2.401  -5.985  10.442  0.00  0.00    +0.031 C 
ATOM     35  C   UNL     1       2.207  -4.563  11.025  0.00  0.00    +0.160 C 
ATOM     36  O   UNL     1       1.927  -3.726   9.890  0.00  0.00    -0.375 OA
ENDBRANCH  31  32
ENDBRANCH   5  31
TORSDOF 9
