REMARK  Name = ZINC64480863
REMARK  12 active torsions:
REMARK  status: ('A' for Active; 'I' for Inactive)
REMARK    1  A    between atoms: C_1  and  C_2
REMARK    2  A    between atoms: C_5  and  C_8
REMARK    3  A    between atoms: C_8  and  N_9
REMARK    4  A    between atoms: C_10  and  C_12
REMARK    5  A    between atoms: C_12  and  C_40
REMARK    6  A    between atoms: C_17  and  C_36
REMARK    7  A    between atoms: N_23  and  C_24
REMARK    8  A    between atoms: C_24  and  C_25
REMARK    9  A    between atoms: C_25  and  C_26
REMARK   10  A    between atoms: C_29  and  C_35
REMARK   11  A    between atoms: C_36  and  O_38
REMARK   12  A    between atoms: O_38  and  C_39
REMARK                            x       y       z     vdW  Elec       q    Type
REMARK                         _______ _______ _______ _____ _____    ______ ____
ROOT
ATOM      1  C   UNL     1       3.033  -6.342  -0.118  0.00  0.00    +0.123 C 
ATOM      2  C   UNL     1       3.104  -7.781   0.416  0.00  0.00    +0.121 C 
ATOM      3  N   UNL     1       3.204  -7.699   1.862  0.00  0.00    -0.274 NA
ATOM      4  C   UNL     1       3.137  -8.927   2.657  0.00  0.00    +0.169 C 
ATOM      5  N   UNL     1       3.707  -8.529   3.977  0.00  0.00    -0.290 NA
ATOM      6  C   UNL     1       4.596  -7.361   3.724  0.00  0.00    +0.191 C 
ATOM      7  C   UNL     1       4.556  -7.172   2.209  0.00  0.00    +0.172 C 
ATOM      8  C   UNL     1       4.611  -5.765   1.714  0.00  0.00    +0.236 C 
ATOM      9  O   UNL     1       5.255  -4.926   2.308  0.00  0.00    -0.274 OA
ATOM     10  N   UNL     1       3.933  -5.444   0.593  0.00  0.00    -0.285 N 
ATOM     11  C   UNL     1       3.406  -6.346  -1.601  0.00  0.00    +0.043 C 
ATOM     12  H   UNL     1       2.975  -8.292   4.630  0.00  0.00    +0.124 HD
ENDROOT
BRANCH   1  14
ATOM     13  N   UNL     1       1.214  -5.306   1.200  0.00  0.00    -0.309 N 
ATOM     14  C   UNL     1       1.621  -5.835   0.029  0.00  0.00    +0.238 C 
ATOM     15  O   UNL     1       0.852  -5.905  -0.905  0.00  0.00    -0.273 OA
ATOM     16  H   UNL     1       1.847  -5.185   1.924  0.00  0.00    +0.149 HD
BRANCH  13  17
ATOM     17  C   UNL     1      -0.186  -4.912   1.378  0.00  0.00    +0.139 C 
BRANCH  17  22
ATOM     18  C   UNL     1      -0.831  -2.353   6.519  0.00  0.00    +0.044 C 
ATOM     19  C   UNL     1      -0.663  -3.020   5.178  0.00  0.00    -0.050 A 
ATOM     20  C   UNL     1      -0.252  -2.281   4.085  0.00  0.00    +0.003 A 
ATOM     21  C   UNL     1      -0.097  -2.893   2.855  0.00  0.00    +0.005 A 
ATOM     22  C   UNL     1      -0.354  -4.245   2.719  0.00  0.00    -0.030 A 
ATOM     23  C   UNL     1      -0.764  -4.984   3.812  0.00  0.00    +0.005 A 
ATOM     24  C   UNL     1      -0.914  -4.373   5.043  0.00  0.00    +0.003 A 
ENDBRANCH  17  22
ENDBRANCH  13  17
ENDBRANCH   1  14
BRANCH   6  25
ATOM     25  C   UNL     1       4.067  -6.136   4.424  0.00  0.00    +0.326 C 
ATOM     26  O   UNL     1       2.915  -6.097   4.786  0.00  0.00    -0.249 OA
BRANCH  25  27
ATOM     27  O   UNL     1       4.877  -5.088   4.646  0.00  0.00    -0.467 OA
ATOM     28  C   UNL     1       4.309  -3.960   5.314  0.00  0.00    +0.280 C 
ENDBRANCH  25  27
ENDBRANCH   6  25
BRANCH  10  29
ATOM     29  C   UNL     1       4.115  -4.095   0.052  0.00  0.00    +0.113 C 
BRANCH  29  30
ATOM     30  C   UNL     1       3.182  -3.124   0.778  0.00  0.00    +0.052 C 
BRANCH  30  31
ATOM     31  C   UNL     1       3.312  -1.752   0.169  0.00  0.00    -0.040 C 
ATOM     32  C   UNL     1       2.538  -1.216  -0.802  0.00  0.00    -0.001 A 
ATOM     33  C   UNL     1       1.388  -1.732  -1.554  0.00  0.00    +0.013 A 
ATOM     34  C   UNL     1       0.808  -0.944  -2.488  0.00  0.00    -0.050 A 
ATOM     35  C   UNL     1       1.276   0.350  -2.755  0.00  0.00    +0.005 A 
ATOM     36  C   UNL     1       2.328   0.893  -2.105  0.00  0.00    +0.026 A 
ATOM     37  C   UNL     1       3.014   0.153  -1.103  0.00  0.00    +0.043 A 
ATOM     38  N   UNL     1       4.042   0.453  -0.346  0.00  0.00    -0.380 N 
ATOM     39  C   UNL     1       4.331  -0.692   0.524  0.00  0.00    +0.144 C 
ATOM     40  C   UNL     1      -0.373  -1.471  -3.261  0.00  0.00    +0.044 C 
ATOM     41  H   UNL     1       4.527   1.293  -0.358  0.00  0.00    +0.160 HD
ENDBRANCH  30  31
ENDBRANCH  29  30
ENDBRANCH  10  29
TORSDOF 8
