REMARK  Name = ZINC36638043
REMARK  11 active torsions:
REMARK  status: ('A' for Active; 'I' for Inactive)
REMARK    1  A    between atoms: C_1  and  C_2
REMARK    2  A    between atoms: C_2  and  N_3
REMARK    3  A    between atoms: N_3  and  C_4
REMARK    4  A    between atoms: N_3  and  C_6
REMARK    5  A    between atoms: C_4  and  C_5
REMARK    6  A    between atoms: C_6  and  C_7
REMARK    7  A    between atoms: C_7  and  N_8
REMARK    8  A    between atoms: C_19  and  C_21
REMARK    9  A    between atoms: C_24  and  S_27
REMARK   10  A    between atoms: S_27  and  N_30
REMARK   11  A    between atoms: C_33  and  C_36
REMARK                            x       y       z     vdW  Elec       q    Type
REMARK                         _______ _______ _______ _____ _____    ______ ____
ROOT
ATOM      1  N   UNL     1       1.498  -3.874  -2.949  0.00  0.00    -0.248 N 
ATOM      2  C   UNL     1       0.488  -4.445  -3.705  0.00  0.00    +0.168 A 
ATOM      3  N   UNL     1      -0.154  -3.943  -4.734  0.00  0.00    -0.221 NA
ATOM      4  C   UNL     1      -1.127  -4.620  -5.383  0.00  0.00    +0.115 A 
ATOM      5  C   UNL     1      -1.892  -4.197  -6.497  0.00  0.00    +0.150 A 
ATOM      6  C   UNL     1      -2.850  -5.016  -7.040  0.00  0.00    +0.040 A 
ATOM      7  C   UNL     1      -3.103  -6.278  -6.522  0.00  0.00    +0.004 A 
ATOM      8  C   UNL     1      -2.374  -6.722  -5.434  0.00  0.00    +0.017 A 
ATOM      9  C   UNL     1      -1.413  -5.910  -4.884  0.00  0.00    +0.044 A 
ATOM     10  S   UNL     1      -0.267  -6.056  -3.534  0.00  0.00    -0.052 S 
ATOM     11  F   UNL     1      -1.676  -2.975  -7.031  0.00  0.00    -0.203 F 
ATOM     12  C   UNL     1       2.112  -4.595  -1.991  0.00  0.00    +0.252 C 
ATOM     13  O   UNL     1       1.842  -5.772  -1.849  0.00  0.00    -0.270 OA
ENDROOT
BRANCH  12  14
ATOM     14  C   UNL     1       3.114  -3.956  -1.112  0.00  0.00    +0.037 A 
ATOM     15  C   UNL     1       3.061  -2.582  -0.872  0.00  0.00    +0.015 A 
ATOM     16  C   UNL     1       3.999  -1.991  -0.051  0.00  0.00    +0.029 A 
ATOM     17  C   UNL     1       4.992  -2.758   0.533  0.00  0.00    +0.106 A 
ATOM     18  C   UNL     1       5.051  -4.120   0.299  0.00  0.00    +0.029 A 
ATOM     19  C   UNL     1       4.115  -4.724  -0.515  0.00  0.00    +0.015 A 
BRANCH  17  20
ATOM     20  S   UNL     1       6.187  -1.995   1.579  0.00  0.00    +0.061 S 
ATOM     21  O   UNL     1       7.333  -2.835   1.566  0.00  0.00    -0.153 OA
ATOM     22  O   UNL     1       6.242  -0.626   1.202  0.00  0.00    -0.153 OA
BRANCH  20  23
ATOM     23  N   UNL     1       5.587  -2.038   3.121  0.00  0.00    -0.177 NA
ATOM     24  C   UNL     1       4.756  -0.939   3.632  0.00  0.00    +0.110 C 
ATOM     25  C   UNL     1       5.360  -0.434   4.946  0.00  0.00    +0.020 C 
ATOM     26  C   UNL     1       5.515  -1.608   5.916  0.00  0.00    -0.012 C 
ATOM     27  C   UNL     1       6.465  -2.646   5.315  0.00  0.00    +0.020 C 
ATOM     28  C   UNL     1       5.869  -3.179   4.003  0.00  0.00    +0.110 C 
ATOM     29  C   UNL     1       6.086  -1.102   7.242  0.00  0.00    +0.007 C 
ENDBRANCH  20  23
ENDBRANCH  17  20
ENDBRANCH  12  14
BRANCH   1  30
ATOM     30  C   UNL     1       1.898  -2.485  -3.190  0.00  0.00    +0.097 C 
BRANCH  30  31
ATOM     31  C   UNL     1       0.808  -1.543  -2.675  0.00  0.00    -0.059 C 
BRANCH  31  32
ATOM     32  N   UNL     1       1.262  -0.152  -2.804  0.00  0.00    +0.380 N 
ATOM     33  H   UNL     1       2.132  -0.035  -2.307  0.00  0.00    -0.082 HD
BRANCH  32  35
ATOM     34  C   UNL     1       2.052   1.573  -4.352  0.00  0.00    -0.017 C 
ATOM     35  C   UNL     1       1.461   0.168  -4.224  0.00  0.00    -0.082 C 
ENDBRANCH  32  35
BRANCH  32  36
ATOM     36  C   UNL     1       0.249   0.748  -2.236  0.00  0.00    -0.082 C 
ATOM     37  C   UNL     1       0.127   0.495  -0.733  0.00  0.00    -0.017 C 
ENDBRANCH  32  36
ENDBRANCH  31  32
ENDBRANCH  30  31
ENDBRANCH   1  30
TORSDOF 8
