REMARK  Name = ZINC52774101
REMARK  8 active torsions:
REMARK  status: ('A' for Active; 'I' for Inactive)
REMARK    1  A    between atoms: C_1  and  C_2
REMARK    2  A    between atoms: C_2  and  C_4
REMARK    3  A    between atoms: C_2  and  N_16
REMARK    4  A    between atoms: N_6  and  C_7
REMARK    5  A    between atoms: N_6  and  C_8
REMARK    6  A    between atoms: N_16  and  C_17
REMARK    7  A    between atoms: C_20  and  S_23
REMARK    8  A    between atoms: S_23  and  C_24
REMARK                            x       y       z     vdW  Elec       q    Type
REMARK                         _______ _______ _______ _____ _____    ______ ____
ROOT
ATOM      1  C   UNL     1      -0.019   1.526   0.010  0.00  0.00    +0.038 C 
ATOM      2  C   UNL     1       0.002  -0.004   0.002  0.00  0.00    +0.154 C 
ENDROOT
BRANCH   2   3
ATOM      3  C   UNL     1       0.731  -0.503   1.223  0.00  0.00    +0.236 C 
ATOM      4  O   UNL     1       0.159  -1.213   2.023  0.00  0.00    -0.274 OA
ATOM      5  N   UNL     1       2.019  -0.161   1.426  0.00  0.00    -0.298 N 
ATOM      6  C   UNL     1       2.710   0.696   0.459  0.00  0.00    +0.132 C 
BRANCH   5   7
ATOM      7  C   UNL     1       2.727  -0.647   2.613  0.00  0.00    +0.098 C 
ATOM      8  C   UNL     1       3.949  -1.471   2.176  0.00  0.00    +0.046 C 
ATOM      9  C   UNL     1       4.847  -1.705   3.424  0.00  0.00    +0.168 C 
ATOM     10  S   UNL     1       4.742  -0.051   4.229  0.00  0.00    -0.029 S 
ATOM     11  O   UNL     1       4.537  -0.228   5.624  0.00  0.00    -0.174 OA
ATOM     12  O   UNL     1       5.824   0.753   3.778  0.00  0.00    -0.174 OA
ATOM     13  C   UNL     1       3.185   0.560   3.467  0.00  0.00    +0.188 C 
ENDBRANCH   5   7
ENDBRANCH   2   3
BRANCH   2  14
ATOM     14  N   UNL     1      -1.372  -0.511   0.012  0.00  0.00    -0.333 N 
ATOM     15  H   UNL     1      -1.794  -0.752   0.852  0.00  0.00    +0.147 HD
BRANCH  14  16
ATOM     16  C   UNL     1      -2.077  -0.648  -1.190  0.00  0.00    +0.028 A 
ATOM     17  C   UNL     1      -1.471  -0.308  -2.392  0.00  0.00    +0.024 A 
ATOM     18  C   UNL     1      -2.166  -0.443  -3.578  0.00  0.00    +0.017 A 
ATOM     19  C   UNL     1      -3.471  -0.919  -3.567  0.00  0.00    +0.016 A 
ATOM     20  C   UNL     1      -4.077  -1.259  -2.364  0.00  0.00    +0.017 A 
ATOM     21  C   UNL     1      -3.380  -1.129  -1.179  0.00  0.00    +0.024 A 
BRANCH  19  22
ATOM     22  S   UNL     1      -4.358  -1.091  -5.080  0.00  0.00    -0.016 S 
BRANCH  22  23
ATOM     23  C   UNL     1      -5.977  -1.731  -4.569  0.00  0.00    +0.448 C 
ATOM     24  F   UNL     1      -6.587  -0.818  -3.702  0.00  0.00    -0.160 F 
ATOM     25  F   UNL     1      -6.784  -1.912  -5.697  0.00  0.00    -0.160 F 
ATOM     26  F   UNL     1      -5.809  -2.956  -3.915  0.00  0.00    -0.160 F 
ENDBRANCH  22  23
ENDBRANCH  19  22
ENDBRANCH  14  16
ENDBRANCH   2  14
TORSDOF 6
