REMARK  Name = ZINC36534682
REMARK  17 active torsions:
REMARK  status: ('A' for Active; 'I' for Inactive)
REMARK    1  A    between atoms: C_1  and  C_2
REMARK    2  A    between atoms: C_2  and  C_3
REMARK    3  A    between atoms: C_2  and  C_4
REMARK    4  A    between atoms: C_2  and  C_5
REMARK    5  A    between atoms: C_5  and  C_6
REMARK    6  A    between atoms: C_6  and  C_7
REMARK    7  A    between atoms: C_6  and  C_8
REMARK    8  A    between atoms: C_6  and  N_9
REMARK    9  A    between atoms: C_10  and  C_12
REMARK   10  A    between atoms: C_12  and  C_14
REMARK   11  A    between atoms: C_12  and  N_23
REMARK   12  A    between atoms: C_17  and  N_20
REMARK   13  A    between atoms: N_23  and  C_24
REMARK   14  A    between atoms: C_25  and  C_27
REMARK   15  A    between atoms: C_27  and  C_28
REMARK   16  A    between atoms: C_27  and  C_34
REMARK   17  A    between atoms: C_27  and  O_40
REMARK                            x       y       z     vdW  Elec       q    Type
REMARK                         _______ _______ _______ _____ _____    ______ ____
ROOT
ATOM      1  C   UNL     1       5.311  -0.351  -4.157  0.00  0.00    +0.192 C 
ENDROOT
BRANCH   1   2
ATOM      2  C   UNL     1       5.204  -1.840  -4.362  0.00  0.00    -0.018 A 
ATOM      3  C   UNL     1       4.712  -2.339  -5.554  0.00  0.00    +0.008 A 
ATOM      4  C   UNL     1       4.614  -3.705  -5.743  0.00  0.00    +0.033 A 
ATOM      5  C   UNL     1       5.008  -4.572  -4.740  0.00  0.00    +0.126 A 
ATOM      6  C   UNL     1       5.500  -4.072  -3.549  0.00  0.00    +0.033 A 
ATOM      7  C   UNL     1       5.603  -2.706  -3.362  0.00  0.00    +0.008 A 
BRANCH   5   8
ATOM      8  N   UNL     1       4.902  -6.034  -4.942  0.00  0.00    +0.056 N 
ATOM      9  O   UNL     1       4.471  -6.471  -5.983  0.00  0.00    -0.126 OA
ATOM     10  O   UNL     1       5.246  -6.792  -4.065  0.00  0.00    -0.126 OA
ENDBRANCH   5   8
ENDBRANCH   1   2
BRANCH   1  12
ATOM     11  N   UNL     1       3.236  -0.207  -2.819  0.00  0.00    -0.308 N 
ATOM     12  C   UNL     1       4.557   0.040  -2.912  0.00  0.00    +0.238 C 
ATOM     13  O   UNL     1       5.140   0.577  -1.994  0.00  0.00    -0.273 OA
ATOM     14  H   UNL     1       2.770  -0.637  -3.554  0.00  0.00    +0.149 HD
BRANCH  11  15
ATOM     15  C   UNL     1       2.503   0.173  -1.609  0.00  0.00    +0.030 C 
ATOM     16  C   UNL     1       2.741   1.655  -1.312  0.00  0.00    +0.031 C 
ATOM     17  C   UNL     1       2.994  -0.669  -0.430  0.00  0.00    +0.031 C 
BRANCH  15  18
ATOM     18  C   UNL     1       1.007  -0.071  -1.821  0.00  0.00    +0.031 C 
BRANCH  18  20
ATOM     19  C   UNL     1       0.957  -0.626  -4.256  0.00  0.00    +0.010 C 
ATOM     20  C   UNL     1       0.601   0.430  -3.208  0.00  0.00    -0.036 C 
ATOM     21  C   UNL     1       1.346   1.730  -3.520  0.00  0.00    +0.010 C 
ATOM     22  C   UNL     1      -0.907   0.688  -3.236  0.00  0.00    +0.010 C 
ENDBRANCH  18  20
ENDBRANCH  15  18
ENDBRANCH  11  15
ENDBRANCH   1  12
BRANCH   1  23
ATOM     23  N   UNL     1       6.721   0.022  -4.011  0.00  0.00    -0.286 N 
ATOM     24  C   UNL     1       7.535  -0.590  -2.959  0.00  0.00    +0.133 C 
ATOM     25  C   UNL     1       7.267   0.928  -4.846  0.00  0.00    +0.257 C 
ATOM     26  O   UNL     1       6.576   1.490  -5.668  0.00  0.00    -0.272 OA
BRANCH  25  27
ATOM     27  C   UNL     1       8.739   1.243  -4.757  0.00  0.00    +0.192 C 
BRANCH  27  28
ATOM     28  C   UNL     1       9.217   1.785  -6.079  0.00  0.00    -0.003 A 
ATOM     29  C   UNL     1       9.251   3.150  -6.295  0.00  0.00    +0.007 A 
ATOM     30  C   UNL     1       9.690   3.647  -7.508  0.00  0.00    +0.000 A 
ATOM     31  C   UNL     1      10.095   2.780  -8.504  0.00  0.00    +0.000 A 
ATOM     32  C   UNL     1      10.063   1.415  -8.288  0.00  0.00    +0.000 A 
ATOM     33  C   UNL     1       9.628   0.918  -7.074  0.00  0.00    +0.007 A 
ENDBRANCH  27  28
BRANCH  27  34
ATOM     34  C   UNL     1       8.968   2.271  -3.679  0.00  0.00    -0.003 A 
ATOM     35  C   UNL     1       8.031   3.264  -3.461  0.00  0.00    +0.007 A 
ATOM     36  C   UNL     1       8.241   4.207  -2.472  0.00  0.00    +0.000 A 
ATOM     37  C   UNL     1       9.389   4.158  -1.703  0.00  0.00    +0.000 A 
ATOM     38  C   UNL     1      10.325   3.165  -1.921  0.00  0.00    +0.000 A 
ATOM     39  C   UNL     1      10.113   2.219  -2.906  0.00  0.00    +0.007 A 
ENDBRANCH  27  34
BRANCH  27  40
ATOM     40  O   UNL     1       9.462   0.052  -4.440  0.00  0.00    -0.371 OA
ATOM     41  H   UNL     1       9.361  -0.655  -5.092  0.00  0.00    +0.212 HD
ENDBRANCH  27  40
ENDBRANCH  25  27
ENDBRANCH   1  23
TORSDOF 11
