REMARK  Name = ZINC41036086
REMARK  4 active torsions:
REMARK  status: ('A' for Active; 'I' for Inactive)
REMARK    1  A    between atoms: C_1  and  C_2
REMARK    2  A    between atoms: C_7  and  C_9
REMARK    3  A    between atoms: C_7  and  N_12
REMARK    4  A    between atoms: N_15  and  C_16
REMARK                            x       y       z     vdW  Elec       q    Type
REMARK                         _______ _______ _______ _____ _____    ______ ____
ROOT
ATOM      1  N   UNL     1      -0.093   1.445   2.703  0.00  0.00    -0.284 N 
ATOM      2  C   UNL     1      -0.490   2.107   3.807  0.00  0.00    +0.301 C 
ATOM      3  O   UNL     1      -0.833   1.489   4.796  0.00  0.00    -0.253 OA
ATOM      4  N   UNL     1      -0.509   3.455   3.814  0.00  0.00    -0.297 N 
ATOM      5  H   UNL     1       0.180   1.938   1.913  0.00  0.00    +0.151 HD
ATOM      6  H   UNL     1      -0.236   3.948   3.025  0.00  0.00    +0.151 HD
ENDROOT
BRANCH   1  12
ATOM      7  C   UNL     1       2.275   1.538   3.496  0.00  0.00    +0.007 C 
ATOM      8  C   UNL     1       2.296   0.008   3.488  0.00  0.00    -0.012 C 
ATOM      9  C   UNL     1       2.761  -0.488   2.117  0.00  0.00    +0.003 C 
ATOM     10  C   UNL     1       1.798   0.015   1.040  0.00  0.00    +0.003 C 
ATOM     11  C   UNL     1       0.392  -0.516   1.324  0.00  0.00    +0.037 C 
ATOM     12  C   UNL     1      -0.073  -0.020   2.695  0.00  0.00    +0.137 C 
ATOM     13  C   UNL     1       0.890  -0.523   3.772  0.00  0.00    +0.040 C 
BRANCH  12  14
ATOM     14  C   UNL     1      -1.458  -0.543   2.975  0.00  0.00    +0.379 C 
ATOM     15  O   UNL     1      -1.660  -1.744   3.013  0.00  0.00    -0.244 OA
ATOM     16  O   UNL     1      -2.377   0.236   3.164  0.00  0.00    -0.244 OA
ENDBRANCH  12  14
ENDBRANCH   1  12
BRANCH   4  17
ATOM     17  C   UNL     1      -0.941   4.175   5.015  0.00  0.00    +0.074 C 
ATOM     18  C   UNL     1      -2.482   4.230   5.036  0.00  0.00    +0.022 C 
ATOM     19  C   UNL     1      -2.932   4.489   6.448  0.00  0.00    +0.002 C 
ATOM     20  C   UNL     1      -3.160   5.986   6.730  0.00  0.00    +0.000 C 
ATOM     21  C   UNL     1      -2.069   6.883   6.113  0.00  0.00    +0.000 C 
ATOM     22  C   UNL     1      -0.689   6.307   6.279  0.00  0.00    +0.002 C 
ATOM     23  C   UNL     1      -0.339   5.500   5.012  0.00  0.00    +0.022 C 
ENDBRANCH   4  17
TORSDOF 3
