REMARK  Name = ZINC52594423
REMARK  4 active torsions:
REMARK  status: ('A' for Active; 'I' for Inactive)
REMARK    1  A    between atoms: C_6  and  C_7
REMARK    2  A    between atoms: C_8  and  C_22
REMARK    3  A    between atoms: C_10  and  C_12
REMARK    4  A    between atoms: C_14  and  N_20
REMARK                            x       y       z     vdW  Elec       q    Type
REMARK                         _______ _______ _______ _____ _____    ______ ____
ROOT
ATOM      1  C   UNL     1      -1.266  -0.773   0.095  0.00  0.00    +0.075 C 
ATOM      2  C   UNL     1      -1.349  -2.121  -0.089  0.00  0.00    -0.008 C 
ATOM      3  C   UNL     1      -2.836  -2.421  -0.128  0.00  0.00    +0.094 C 
ATOM      4  C   UNL     1      -3.466  -1.055   0.059  0.00  0.00    +0.059 C 
ATOM      5  N   UNL     1      -2.488  -0.205   0.179  0.00  0.00    -0.250 NA
ENDROOT
BRANCH   4   6
ATOM      6  C   UNL     1      -4.904  -0.750   0.102  0.00  0.00    +0.074 A 
ATOM      7  C   UNL     1      -5.607  -0.758   1.317  0.00  0.00    +0.174 A 
ATOM      8  C   UNL     1      -6.965  -0.464   1.312  0.00  0.00    +0.155 A 
ATOM      9  N   UNL     1      -7.594  -0.179   0.182  0.00  0.00    -0.212 NA
ATOM     10  C   UNL     1      -6.969  -0.161  -0.985  0.00  0.00    +0.155 A 
ATOM     11  C   UNL     1      -5.610  -0.438  -1.070  0.00  0.00    +0.174 A 
ATOM     12  F   UNL     1      -4.979  -0.411  -2.264  0.00  0.00    -0.201 F 
ATOM     13  N   UNL     1      -7.682   0.145  -2.142  0.00  0.00    -0.341 N 
ATOM     14  F   UNL     1      -4.973  -1.048   2.474  0.00  0.00    -0.201 F 
ATOM     15  H   UNL     1      -8.630   0.343  -2.090  0.00  0.00    +0.144 HD
ATOM     16  H   UNL     1      -7.230   0.161  -3.000  0.00  0.00    +0.144 HD
BRANCH   8  17
ATOM     17  N   UNL     1      -7.673  -0.470   2.512  0.00  0.00    -0.341 N 
ATOM     18  H   UNL     1      -7.218  -0.678   3.343  0.00  0.00    +0.144 HD
ATOM     19  H   UNL     1      -8.621  -0.265   2.516  0.00  0.00    +0.144 HD
ENDBRANCH   8  17
ENDBRANCH   4   6
BRANCH   1  25
ATOM     20  C   UNL     1       1.033  -0.261  -0.719  0.00  0.00    +0.013 A 
ATOM     21  C   UNL     1       2.217   0.439  -0.620  0.00  0.00    +0.039 A 
ATOM     22  C   UNL     1       2.390   1.375   0.387  0.00  0.00    +0.123 A 
ATOM     23  C   UNL     1       1.374   1.614   1.299  0.00  0.00    +0.039 A 
ATOM     24  C   UNL     1       0.186   0.919   1.209  0.00  0.00    +0.013 A 
ATOM     25  C   UNL     1       0.007  -0.025   0.197  0.00  0.00    +0.001 A 
ATOM     26  F   UNL     1       3.552   2.058   0.480  0.00  0.00    -0.205 F 
ENDBRANCH   1  25
BRANCH   2  27
ATOM     27  C   UNL     1      -0.240  -3.075  -0.221  0.00  0.00    -0.017 A 
ATOM     28  C   UNL     1      -0.021  -3.765  -1.425  0.00  0.00    +0.028 A 
ATOM     29  C   UNL     1       1.032  -4.650  -1.503  0.00  0.00    +0.111 A 
ATOM     30  N   UNL     1       1.827  -4.853  -0.468  0.00  0.00    -0.263 NA
ATOM     31  C   UNL     1       1.658  -4.226   0.681  0.00  0.00    +0.111 A 
ATOM     32  C   UNL     1       0.634  -3.319   0.850  0.00  0.00    +0.028 A 
ENDBRANCH   2  27
TORSDOF 4
