REMARK  Name = ZINC38704756
REMARK  7 active torsions:
REMARK  status: ('A' for Active; 'I' for Inactive)
REMARK    1  A    between atoms: C_1  and  C_2
REMARK    2  A    between atoms: C_4  and  C_35
REMARK    3  A    between atoms: C_5  and  C_9
REMARK    4  A    between atoms: C_6  and  O_8
REMARK    5  A    between atoms: N_17  and  C_27
REMARK    6  A    between atoms: C_18  and  C_20
REMARK    7  A    between atoms: C_27  and  C_28
REMARK                            x       y       z     vdW  Elec       q    Type
REMARK                         _______ _______ _______ _____ _____    ______ ____
ROOT
ATOM      1  C   UNL     1       0.223  -4.532  -0.150  0.00  0.00    +0.102 A 
ATOM      2  C   UNL     1       0.244  -5.255   1.048  0.00  0.00    +0.035 A 
ATOM      3  C   UNL     1       0.188  -6.587   0.684  0.00  0.00    +0.126 A 
ATOM      4  N   UNL     1       0.137  -6.606  -0.680  0.00  0.00    -0.272 N 
ATOM      5  H   UNL     1       0.090  -7.408  -1.225  0.00  0.00    +0.189 HD
ATOM      6  N   UNL     1       0.152  -5.405  -1.136  0.00  0.00    -0.173 NA
ATOM      7  C   UNL     1       0.206  -7.404   1.903  0.00  0.00    +0.266 C 
ATOM      8  O   UNL     1       0.168  -8.620   1.924  0.00  0.00    -0.268 OA
ATOM      9  N   UNL     1       0.272  -6.619   2.993  0.00  0.00    -0.281 N 
ATOM     10  C   UNL     1       0.301  -5.218   2.550  0.00  0.00    +0.142 C 
ENDROOT
BRANCH   1  15
ATOM     11  C   UNL     1       0.391   1.204  -0.680  0.00  0.00    +0.044 C 
ATOM     12  C   UNL     1       0.345  -0.296  -0.539  0.00  0.00    -0.047 A 
ATOM     13  C   UNL     1       1.211  -1.084  -1.276  0.00  0.00    +0.007 A 
ATOM     14  C   UNL     1       1.176  -2.458  -1.154  0.00  0.00    -0.037 A 
ATOM     15  C   UNL     1       0.265  -3.055  -0.285  0.00  0.00    +0.047 A 
ATOM     16  C   UNL     1      -0.609  -2.257   0.458  0.00  0.00    +0.127 A 
ATOM     17  C   UNL     1      -0.559  -0.878   0.330  0.00  0.00    +0.049 A 
ATOM     18  C   UNL     1       2.121  -3.312  -1.959  0.00  0.00    +0.044 C 
BRANCH  16  19
ATOM     19  O   UNL     1      -1.500  -2.830   1.308  0.00  0.00    -0.506 OA
ATOM     20  H   UNL     1      -1.195  -2.879   2.224  0.00  0.00    +0.292 HD
ENDBRANCH  16  19
ENDBRANCH   1  15
BRANCH  10  21
ATOM     21  C   UNL     1       1.577  -4.557   3.005  0.00  0.00    -0.022 A 
ATOM     22  C   UNL     1       2.793  -5.175   2.783  0.00  0.00    +0.008 A 
ATOM     23  C   UNL     1       3.963  -4.569   3.199  0.00  0.00    +0.038 A 
ATOM     24  C   UNL     1       3.917  -3.342   3.838  0.00  0.00    +0.123 A 
ATOM     25  C   UNL     1       2.699  -2.723   4.060  0.00  0.00    +0.038 A 
ATOM     26  C   UNL     1       1.530  -3.329   3.638  0.00  0.00    +0.008 A 
ATOM     27  F   UNL     1       5.061  -2.749   4.245  0.00  0.00    -0.205 F 
ENDBRANCH  10  21
BRANCH   9  28
ATOM     28  C   UNL     1       0.307  -7.080   4.383  0.00  0.00    +0.144 C 
BRANCH  28  29
ATOM     29  C   UNL     1       1.738  -7.285   4.808  0.00  0.00    -0.030 A 
ATOM     30  C   UNL     1       2.345  -8.513   4.622  0.00  0.00    +0.008 A 
ATOM     31  C   UNL     1       3.658  -8.701   5.011  0.00  0.00    +0.038 A 
ATOM     32  C   UNL     1       4.365  -7.660   5.588  0.00  0.00    +0.123 A 
ATOM     33  C   UNL     1       3.756  -6.430   5.774  0.00  0.00    +0.038 A 
ATOM     34  C   UNL     1       2.445  -6.242   5.379  0.00  0.00    +0.008 A 
ATOM     35  F   UNL     1       5.648  -7.843   5.969  0.00  0.00    -0.205 F 
ENDBRANCH  28  29
ENDBRANCH   9  28
TORSDOF 5
