REMARK  Name = ZINC09783427
REMARK  10 active torsions:
REMARK  status: ('A' for Active; 'I' for Inactive)
REMARK    1  A    between atoms: C_1  and  C_2
REMARK    2  A    between atoms: C_2  and  C_3
REMARK    3  A    between atoms: C_3  and  C_4
REMARK    4  A    between atoms: C_4  and  C_5
REMARK    5  A    between atoms: C_5  and  N_6
REMARK    6  A    between atoms: C_15  and  C_17
REMARK    7  A    between atoms: C_17  and  O_19
REMARK    8  A    between atoms: O_19  and  C_20
REMARK    9  A    between atoms: C_20  and  C_21
REMARK   10  A    between atoms: C_26  and  C_29
REMARK                            x       y       z     vdW  Elec       q    Type
REMARK                         _______ _______ _______ _____ _____    ______ ____
ROOT
ATOM      1  C   UNL     1      -0.278  -1.890   4.496  0.00  0.00    +0.360 C 
ATOM      2  O   UNL     1       0.240  -2.389   5.476  0.00  0.00    -0.243 OA
ENDROOT
BRANCH   1  12
ATOM      3  N   UNL     1      -0.020   1.094   2.454  0.00  0.00    -0.228 N 
ATOM      4  C   UNL     1       0.965   1.859   2.966  0.00  0.00    +0.275 A 
ATOM      5  O   UNL     1       1.256   2.925   2.455  0.00  0.00    -0.266 OA
ATOM      6  C   UNL     1       1.676   1.379   4.160  0.00  0.00    +0.050 A 
ATOM      7  C   UNL     1       2.703   2.095   4.766  0.00  0.00    +0.014 A 
ATOM      8  C   UNL     1       3.324   1.573   5.881  0.00  0.00    +0.001 A 
ATOM      9  C   UNL     1       2.935   0.345   6.400  0.00  0.00    +0.001 A 
ATOM     10  C   UNL     1       1.919  -0.380   5.813  0.00  0.00    +0.011 A 
ATOM     11  C   UNL     1       1.280   0.129   4.688  0.00  0.00    +0.021 A 
ATOM     12  C   UNL     1       0.188  -0.581   4.002  0.00  0.00    +0.176 A 
ATOM     13  N   UNL     1      -0.366  -0.036   2.945  0.00  0.00    -0.161 NA
BRANCH   3  14
ATOM     14  C   UNL     1      -0.729   1.579   1.267  0.00  0.00    +0.147 C 
BRANCH  14  15
ATOM     15  C   UNL     1      -0.013   1.086   0.008  0.00  0.00    +0.023 C 
BRANCH  15  16
ATOM     16  C   UNL     1      -0.753   1.593  -1.232  0.00  0.00    +0.002 C 
BRANCH  16  18
ATOM     17  C   UNL     1      -0.777   1.606  -3.730  0.00  0.00    +0.004 C 
ATOM     18  C   UNL     1      -0.037   1.099  -2.490  0.00  0.00    -0.003 C 
ENDBRANCH  16  18
ENDBRANCH  15  16
ENDBRANCH  14  15
ENDBRANCH   3  14
ENDBRANCH   1  12
BRANCH   1  19
ATOM     19  O   UNL     1      -1.278  -2.533   3.862  0.00  0.00    -0.451 OA
BRANCH  19  20
ATOM     20  C   UNL     1      -1.684  -3.817   4.404  0.00  0.00    +0.328 C 
BRANCH  20  21
ATOM     21  C   UNL     1      -2.805  -4.383   3.570  0.00  0.00    +0.256 C 
ATOM     22  O   UNL     1      -3.221  -3.764   2.613  0.00  0.00    -0.272 OA
ATOM     23  N   UNL     1      -3.346  -5.575   3.888  0.00  0.00    -0.262 N 
ATOM     24  C   UNL     1      -4.380  -6.096   3.119  0.00  0.00    +0.165 A 
ATOM     25  N   UNL     1      -5.036  -7.233   3.262  0.00  0.00    -0.225 NA
ATOM     26  C   UNL     1      -6.006  -7.576   2.428  0.00  0.00    +0.080 A 
ATOM     27  C   UNL     1      -6.334  -6.738   1.399  0.00  0.00    +0.076 A 
ATOM     28  S   UNL     1      -5.180  -5.402   1.679  0.00  0.00    -0.060 S 
ATOM     29  H   UNL     1      -3.014  -6.070   4.653  0.00  0.00    +0.157 HD
BRANCH  26  30
ATOM     30  C   UNL     1      -6.730  -8.859   2.609  0.00  0.00    +0.001 A 
ATOM     31  C   UNL     1      -7.754  -9.213   1.732  0.00  0.00    +0.013 A 
ATOM     32  C   UNL     1      -8.421 -10.409   1.901  0.00  0.00    +0.039 A 
ATOM     33  C   UNL     1      -8.081 -11.252   2.947  0.00  0.00    +0.123 A 
ATOM     34  C   UNL     1      -7.067 -10.902   3.824  0.00  0.00    +0.039 A 
ATOM     35  C   UNL     1      -6.391  -9.710   3.659  0.00  0.00    +0.013 A 
ATOM     36  F   UNL     1      -8.740 -12.420   3.112  0.00  0.00    -0.205 F 
ENDBRANCH  26  30
ENDBRANCH  20  21
ENDBRANCH  19  20
ENDBRANCH   1  19
TORSDOF 9
