REMARK  Name = ZINC53363422
REMARK  7 active torsions:
REMARK  status: ('A' for Active; 'I' for Inactive)
REMARK    1  A    between atoms: C_1  and  C_2
REMARK    2  A    between atoms: C_2  and  O_3
REMARK    3  A    between atoms: O_3  and  C_4
REMARK    4  A    between atoms: C_8  and  C_11
REMARK    5  A    between atoms: C_9  and  O_10
REMARK    6  A    between atoms: C_14  and  C_26
REMARK    7  A    between atoms: C_16  and  C_19
REMARK                            x       y       z     vdW  Elec       q    Type
REMARK                         _______ _______ _______ _____ _____    ______ ____
ROOT
ATOM      1  C   UNL     1      -4.316  -4.377   0.007  0.00  0.00    +0.095 C 
ATOM      2  C   UNL     1      -4.878  -4.374   1.432  0.00  0.00    +0.079 C 
ATOM      3  C   UNL     1      -6.101  -5.246   1.491  0.00  0.00    +0.047 C 
ATOM      4  N   UNL     1      -6.399  -6.094   0.581  0.00  0.00    -0.264 NA
ATOM      5  C   UNL     1      -5.607  -6.314  -0.623  0.00  0.00    +0.204 C 
ATOM      6  N   UNL     1      -4.253  -5.772  -0.460  0.00  0.00    -0.284 NA
ATOM      7  H   UNL     1      -3.729  -5.843  -1.319  0.00  0.00    +0.125 HD
ENDROOT
BRANCH   5   8
ATOM      8  C   UNL     1      -5.520  -7.794  -0.896  0.00  0.00    -0.009 A 
ATOM      9  C   UNL     1      -4.405  -8.316  -1.524  0.00  0.00    +0.008 A 
ATOM     10  C   UNL     1      -4.324  -9.673  -1.774  0.00  0.00    +0.020 A 
ATOM     11  C   UNL     1      -5.359 -10.509  -1.396  0.00  0.00    +0.041 A 
ATOM     12  C   UNL     1      -6.475  -9.986  -0.766  0.00  0.00    +0.020 A 
ATOM     13  C   UNL     1      -6.552  -8.629  -0.512  0.00  0.00    +0.008 A 
ATOM     14 CL   UNL     1      -5.258 -12.213  -1.710  0.00  0.00    -0.084 Cl
ENDBRANCH   5   8
BRANCH   3  15
ATOM     15  C   UNL     1      -7.000  -5.118   2.655  0.00  0.00    -0.003 A 
ATOM     16  C   UNL     1      -6.712  -4.200   3.667  0.00  0.00    +0.010 A 
ATOM     17  C   UNL     1      -7.556  -4.085   4.752  0.00  0.00    +0.002 A 
ATOM     18  C   UNL     1      -8.688  -4.877   4.839  0.00  0.00    +0.015 A 
ATOM     19  C   UNL     1      -8.980  -5.790   3.840  0.00  0.00    +0.018 A 
ATOM     20  C   UNL     1      -8.146  -5.911   2.746  0.00  0.00    +0.025 A 
ATOM     21 BR   UNL     1     -10.528  -6.867   3.970  0.00  0.00    -0.050 Br
ENDBRANCH   3  15
BRANCH   1  26
ATOM     22  C   UNL     1      -1.498  -1.849   0.006  0.00  0.00    +0.162 A 
ATOM     23  C   UNL     1      -0.389  -2.680  -0.003  0.00  0.00    +0.049 A 
ATOM     24  C   UNL     1      -0.553  -4.052  -0.008  0.00  0.00    +0.004 A 
ATOM     25  C   UNL     1      -1.823  -4.600  -0.005  0.00  0.00    +0.009 A 
ATOM     26  C   UNL     1      -2.934  -3.777   0.004  0.00  0.00    +0.015 A 
ATOM     27  C   UNL     1      -2.776  -2.400   0.016  0.00  0.00    +0.163 A 
BRANCH  27  28
ATOM     28  O   UNL     1      -3.868  -1.589   0.030  0.00  0.00    -0.503 OA
ATOM     29  H   UNL     1      -4.192  -1.350  -0.849  0.00  0.00    +0.292 HD
ENDBRANCH  27  28
BRANCH  22  30
ATOM     30  O   UNL     1      -1.339  -0.499   0.012  0.00  0.00    -0.489 OA
BRANCH  30  32
ATOM     31  C   UNL     1      -0.019   1.526   0.010  0.00  0.00    +0.048 C 
ATOM     32  C   UNL     1       0.002  -0.004   0.002  0.00  0.00    +0.226 C 
ENDBRANCH  30  32
ENDBRANCH  22  30
ENDBRANCH   1  26
TORSDOF 6
