REMARK  Name = ZINC45446412
REMARK  8 active torsions:
REMARK  status: ('A' for Active; 'I' for Inactive)
REMARK    1  A    between atoms: C_1  and  C_2
REMARK    2  A    between atoms: C_2  and  N_3
REMARK    3  A    between atoms: C_7  and  S_28
REMARK    4  A    between atoms: C_11  and  S_12
REMARK    5  A    between atoms: S_12  and  C_13
REMARK    6  A    between atoms: C_13  and  C_14
REMARK    7  A    between atoms: N_16  and  C_17
REMARK    8  A    between atoms: S_28  and  N_31
REMARK                            x       y       z     vdW  Elec       q    Type
REMARK                         _______ _______ _______ _____ _____    ______ ____
ROOT
ATOM      1  N   UNL     1      -1.372  -0.511   0.012  0.00  0.00    -0.319 N 
ATOM      2  C   UNL     1      -2.135  -0.796   1.134  0.00  0.00    +0.070 A 
ATOM      3  C   UNL     1      -1.904  -0.716   2.498  0.00  0.00    +0.030 A 
ATOM      4  C   UNL     1      -2.895  -1.085   3.385  0.00  0.00    +0.030 A 
ATOM      5  C   UNL     1      -4.121  -1.536   2.921  0.00  0.00    +0.107 A 
ATOM      6  C   UNL     1      -4.367  -1.623   1.569  0.00  0.00    +0.058 A 
ATOM      7  C   UNL     1      -3.375  -1.252   0.657  0.00  0.00    +0.092 A 
ATOM      8  N   UNL     1      -3.317  -1.226  -0.700  0.00  0.00    -0.222 NA
ATOM      9  C   UNL     1      -2.143  -0.785  -1.082  0.00  0.00    +0.170 A 
ENDROOT
BRANCH   5  10
ATOM     10  S   UNL     1      -5.373  -2.003   4.069  0.00  0.00    +0.056 S 
ATOM     11  O   UNL     1      -6.234  -2.905   3.387  0.00  0.00    -0.153 OA
ATOM     12  O   UNL     1      -4.708  -2.349   5.276  0.00  0.00    -0.153 OA
BRANCH  10  13
ATOM     13  N   UNL     1      -6.269  -0.649   4.394  0.00  0.00    -0.204 NA
ATOM     14  H   UNL     1      -6.048   0.194   3.966  0.00  0.00    +0.144 HD
ATOM     15  H   UNL     1      -7.016  -0.698   5.011  0.00  0.00    +0.144 HD
ENDBRANCH  10  13
ENDBRANCH   5  10
BRANCH   1  17
ATOM     16  C   UNL     1      -0.019   1.526   0.010  0.00  0.00    +0.027 C 
ATOM     17  C   UNL     1       0.002  -0.004   0.002  0.00  0.00    +0.121 C 
ENDBRANCH   1  17
BRANCH   9  18
ATOM     18  S   UNL     1      -1.634  -0.582  -2.756  0.00  0.00    -0.078 S 
BRANCH  18  19
ATOM     19  C   UNL     1      -3.078  -1.105  -3.721  0.00  0.00    +0.173 C 
BRANCH  19  20
ATOM     20  C   UNL     1      -2.773  -0.979  -5.191  0.00  0.00    +0.224 C 
ATOM     21  O   UNL     1      -1.688  -0.575  -5.553  0.00  0.00    -0.275 OA
ATOM     22  N   UNL     1      -3.705  -1.315  -6.105  0.00  0.00    -0.308 N 
ATOM     23  H   UNL     1      -4.573  -1.637  -5.816  0.00  0.00    +0.149 HD
BRANCH  22  24
ATOM     24  C   UNL     1      -3.409  -1.192  -7.534  0.00  0.00    +0.110 C 
ATOM     25  C   UNL     1      -4.291  -2.162  -8.323  0.00  0.00    +0.068 C 
ATOM     26  C   UNL     1      -4.181  -1.812  -9.812  0.00  0.00    +0.231 C 
ATOM     27  O   UNL     1      -4.731  -0.508 -10.009  0.00  0.00    -0.492 OA
ATOM     28  C   UNL     1      -4.317   0.487  -9.183  0.00  0.00    +0.125 A 
ATOM     29  C   UNL     1      -3.681   0.221  -7.983  0.00  0.00    +0.014 A 
ATOM     30  C   UNL     1      -3.281   1.268  -7.170  0.00  0.00    +0.009 A 
ATOM     31  C   UNL     1      -3.512   2.576  -7.552  0.00  0.00    +0.001 A 
ATOM     32  C   UNL     1      -4.145   2.843  -8.752  0.00  0.00    +0.004 A 
ATOM     33  C   UNL     1      -4.545   1.805  -9.565  0.00  0.00    +0.046 A 
ENDBRANCH  22  24
ENDBRANCH  19  20
ENDBRANCH  18  19
ENDBRANCH   9  18
TORSDOF 7
