REMARK  Name = ZINC06243855
REMARK  9 active torsions:
REMARK  status: ('A' for Active; 'I' for Inactive)
REMARK    1  A    between atoms: C_1  and  C_2
REMARK    2  A    between atoms: C_2  and  N_3
REMARK    3  A    between atoms: C_14  and  C_16
REMARK    4  A    between atoms: N_17  and  N_18
REMARK    5  A    between atoms: C_19  and  C_21
REMARK    6  A    between atoms: C_21  and  O_22
REMARK    7  A    between atoms: O_22  and  C_23
REMARK    8  A    between atoms: C_25  and  C_30
REMARK    9  A    between atoms: C_27  and  C_29
REMARK                            x       y       z     vdW  Elec       q    Type
REMARK                         _______ _______ _______ _____ _____    ______ ____
ROOT
ATOM      1  C   UNL     1       6.442   7.302  -0.023  0.00  0.00    +0.138 C 
ATOM      2  N   UNL     1       6.288   6.013  -0.028  0.00  0.00    -0.188 NA
ENDROOT
BRANCH   1  14
ATOM      3  N   UNL     1      11.505   9.734  -0.060  0.00  0.00    -0.340 N 
ATOM      4  C   UNL     1      11.167  11.076  -0.050  0.00  0.00    +0.050 A 
ATOM      5  C   UNL     1      11.937  12.236  -0.053  0.00  0.00    +0.026 A 
ATOM      6  C   UNL     1      11.325  13.470  -0.041  0.00  0.00    +0.002 A 
ATOM      7  C   UNL     1       9.942  13.572  -0.027  0.00  0.00    +0.001 A 
ATOM      8  C   UNL     1       9.163  12.435  -0.023  0.00  0.00    +0.010 A 
ATOM      9  C   UNL     1       9.769  11.181  -0.036  0.00  0.00    +0.008 A 
ATOM     10  C   UNL     1       9.246   9.802  -0.037  0.00  0.00    +0.008 A 
ATOM     11  C   UNL     1      10.365   8.952  -0.053  0.00  0.00    +0.050 A 
ATOM     12  C   UNL     1      10.178   7.571  -0.058  0.00  0.00    +0.027 A 
ATOM     13  C   UNL     1       8.919   7.045  -0.049  0.00  0.00    +0.011 A 
ATOM     14  C   UNL     1       7.797   7.883  -0.034  0.00  0.00    -0.005 A 
ATOM     15  C   UNL     1       7.964   9.266  -0.034  0.00  0.00    +0.020 A 
BRANCH   3  17
ATOM     16  C   UNL     1      13.338   9.043  -1.525  0.00  0.00    +0.027 C 
ATOM     17  C   UNL     1      12.875   9.216  -0.077  0.00  0.00    +0.119 C 
ENDBRANCH   3  17
ENDBRANCH   1  14
BRANCH   2  18
ATOM     18  N   UNL     1       5.000   5.461  -0.018  0.00  0.00    -0.204 N 
ATOM     19  C   UNL     1       4.841   4.123  -0.024  0.00  0.00    +0.270 C 
ATOM     20  O   UNL     1       5.812   3.396  -0.037  0.00  0.00    -0.270 OA
ATOM     21  H   UNL     1       4.224   6.043  -0.008  0.00  0.00    +0.177 HD
BRANCH  19  22
ATOM     22  C   UNL     1       3.456   3.530  -0.013  0.00  0.00    +0.326 C 
BRANCH  22  23
ATOM     23  O   UNL     1       3.548   2.104  -0.021  0.00  0.00    -0.483 OA
BRANCH  23  24
ATOM     24  C   UNL     1       2.380   1.409  -0.013  0.00  0.00    +0.122 A 
ATOM     25  C   UNL     1       1.169   2.087   0.002  0.00  0.00    +0.049 A 
ATOM     26  C   UNL     1      -0.017   1.378   0.010  0.00  0.00    -0.047 A 
ATOM     27  C   UNL     1       0.002  -0.004   0.002  0.00  0.00    +0.007 A 
ATOM     28  C   UNL     1       1.207  -0.681  -0.013  0.00  0.00    -0.047 A 
ATOM     29  C   UNL     1       2.396   0.022  -0.020  0.00  0.00    +0.049 A 
ATOM     30  C   UNL     1       1.224  -2.188  -0.020  0.00  0.00    +0.044 C 
ATOM     31  C   UNL     1      -1.332   2.114   0.020  0.00  0.00    +0.044 C 
ENDBRANCH  23  24
ENDBRANCH  22  23
ENDBRANCH  19  22
ENDBRANCH   2  18
TORSDOF 6
