REMARK  Name = ZINC16504526
REMARK  10 active torsions:
REMARK  status: ('A' for Active; 'I' for Inactive)
REMARK    1  A    between atoms: C_1  and  C_2
REMARK    2  A    between atoms: C_2  and  C_3
REMARK    3  A    between atoms: C_2  and  C_4
REMARK    4  A    between atoms: C_4  and  N_5
REMARK    5  A    between atoms: N_5  and  C_6
REMARK    6  A    between atoms: C_6  and  C_7
REMARK    7  A    between atoms: C_17  and  C_19
REMARK    8  A    between atoms: C_26  and  C_28
REMARK    9  A    between atoms: C_29  and  C_30
REMARK   10  A    between atoms: C_33  and  N_36
REMARK                            x       y       z     vdW  Elec       q    Type
REMARK                         _______ _______ _______ _____ _____    ______ ____
ROOT
ATOM      1  C   UNL     1      -1.295   3.158  -0.355  0.00  0.00    +0.204 C 
ENDROOT
BRANCH   1   2
ATOM      2  C   UNL     1      -1.247   3.873  -1.680  0.00  0.00    +0.234 C 
ATOM      3  O   UNL     1      -1.156   3.238  -2.709  0.00  0.00    -0.274 OA
ATOM      4  N   UNL     1      -1.306   5.219  -1.722  0.00  0.00    -0.289 N 
ATOM      5  C   UNL     1      -1.422   5.999  -0.480  0.00  0.00    +0.114 C 
ATOM      6  C   UNL     1      -0.140   6.841  -0.324  0.00  0.00    +0.062 C 
ATOM      7  C   UNL     1       0.207   7.435  -1.650  0.00  0.00    -0.003 A 
ATOM      8  C   UNL     1      -0.255   7.070  -2.876  0.00  0.00    -0.012 A 
ATOM      9  C   UNL     1       0.234   7.787  -3.968  0.00  0.00    +0.013 A 
ATOM     10  C   UNL     1       1.121   8.790  -3.776  0.00  0.00    +0.046 A 
ATOM     11  S   UNL     1       1.317   8.774  -2.000  0.00  0.00    -0.101 S 
ATOM     12  C   UNL     1      -1.260   5.928  -3.008  0.00  0.00    +0.137 C 
BRANCH  12  13
ATOM     13  C   UNL     1      -2.623   6.481  -3.335  0.00  0.00    -0.022 A 
ATOM     14  C   UNL     1      -3.187   7.451  -2.527  0.00  0.00    +0.008 A 
ATOM     15  C   UNL     1      -4.435   7.962  -2.828  0.00  0.00    +0.038 A 
ATOM     16  C   UNL     1      -5.125   7.495  -3.934  0.00  0.00    +0.123 A 
ATOM     17  C   UNL     1      -4.562   6.519  -4.739  0.00  0.00    +0.038 A 
ATOM     18  C   UNL     1      -3.312   6.013  -4.439  0.00  0.00    +0.008 A 
ATOM     19  F   UNL     1      -6.347   7.991  -4.227  0.00  0.00    -0.205 F 
ENDBRANCH  12  13
ENDBRANCH   1   2
BRANCH   1  20
ATOM     20  N   UNL     1      -1.216   1.712  -0.577  0.00  0.00    -0.289 N 
ATOM     21  C   UNL     1      -0.015   1.100  -0.609  0.00  0.00    +0.240 C 
ATOM     22  O   UNL     1       1.003   1.749  -0.458  0.00  0.00    -0.271 OA
BRANCH  21  23
ATOM     23  C   UNL     1       0.064  -0.345  -0.832  0.00  0.00    +0.068 C 
ATOM     24  C   UNL     1       1.264  -0.957  -0.870  0.00  0.00    +0.013 C 
BRANCH  24  25
ATOM     25  C   UNL     1       1.344  -2.410  -1.093  0.00  0.00    -0.025 A 
ATOM     26  C   UNL     1       0.175  -3.160  -1.261  0.00  0.00    +0.010 A 
ATOM     27  C   UNL     1       0.258  -4.519  -1.475  0.00  0.00    +0.033 A 
ATOM     28  C   UNL     1       1.493  -5.144  -1.514  0.00  0.00    +0.126 A 
ATOM     29  C   UNL     1       2.653  -4.409  -1.342  0.00  0.00    +0.033 A 
ATOM     30  C   UNL     1       2.587  -3.048  -1.133  0.00  0.00    +0.010 A 
BRANCH  28  31
ATOM     31  N   UNL     1       1.573  -6.604  -1.739  0.00  0.00    +0.056 N 
ATOM     32  O   UNL     1       2.658  -7.157  -1.772  0.00  0.00    -0.126 OA
ATOM     33  O   UNL     1       0.554  -7.254  -1.890  0.00  0.00    -0.126 OA
ENDBRANCH  28  31
ENDBRANCH  24  25
ENDBRANCH  21  23
BRANCH  20  34
ATOM     34  C   UNL     1      -2.441   0.932  -0.765  0.00  0.00    +0.111 C 
BRANCH  34  36
ATOM     35  C   UNL     1      -4.288  -0.271   0.412  0.00  0.00    +0.009 C 
ATOM     36  C   UNL     1      -2.944   0.437   0.593  0.00  0.00    +0.000 C 
ATOM     37  C   UNL     1      -1.928  -0.541   1.187  0.00  0.00    +0.009 C 
ENDBRANCH  34  36
ENDBRANCH  20  34
ENDBRANCH   1  20
TORSDOF 8
