REMARK  Name = ZINC01882156
REMARK  9 active torsions:
REMARK  status: ('A' for Active; 'I' for Inactive)
REMARK    1  A    between atoms: C_3  and  C_6
REMARK    2  A    between atoms: C_7  and  C_8
REMARK    3  A    between atoms: C_8  and  O_10
REMARK    4  A    between atoms: O_10  and  C_11
REMARK    5  A    between atoms: C_16  and  C_17
REMARK    6  A    between atoms: N_18  and  N_19
REMARK    7  A    between atoms: C_20  and  C_22
REMARK    8  A    between atoms: C_22  and  N_23
REMARK    9  A    between atoms: C_24  and  C_26
REMARK                            x       y       z     vdW  Elec       q    Type
REMARK                         _______ _______ _______ _____ _____    ______ ____
ROOT
ATOM      1  C   UNL     1       6.646  -7.735  -0.109  0.00  0.00    +0.142 C 
ATOM      2  N   UNL     1       5.789  -6.761  -0.066  0.00  0.00    -0.188 NA
ENDROOT
BRANCH   1   8
ATOM      3  C   UNL     1       4.800  -9.410  -0.137  0.00  0.00    +0.141 A 
ATOM      4  C   UNL     1       4.366 -10.725  -0.180  0.00  0.00    +0.048 A 
ATOM      5  C   UNL     1       5.284 -11.757  -0.227  0.00  0.00    +0.019 A 
ATOM      6  C   UNL     1       6.643 -11.486  -0.235  0.00  0.00    +0.019 A 
ATOM      7  C   UNL     1       7.092 -10.181  -0.197  0.00  0.00    +0.028 A 
ATOM      8  C   UNL     1       6.173  -9.130  -0.150  0.00  0.00    +0.038 A 
ATOM      9 BR   UNL     1       7.887 -12.909  -0.299  0.00  0.00    -0.050 Br
BRANCH   3  10
ATOM     10  O   UNL     1       3.898  -8.396  -0.086  0.00  0.00    -0.422 OA
BRANCH  10  11
ATOM     11  C   UNL     1       3.525  -7.821  -1.249  0.00  0.00    +0.337 C 
ATOM     12  O   UNL     1       4.061  -8.151  -2.291  0.00  0.00    -0.245 OA
BRANCH  11  14
ATOM     13  C   UNL     1       2.137  -6.257  -2.426  0.00  0.00    +0.053 C 
ATOM     14  C   UNL     1       2.512  -6.836  -1.257  0.00  0.00    +0.095 C 
BRANCH  13  17
ATOM     15  C   UNL     1      -0.347  -3.725  -3.086  0.00  0.00    +0.042 A 
ATOM     16  C   UNL     1       0.649  -4.600  -3.544  0.00  0.00    +0.049 A 
ATOM     17  C   UNL     1       1.122  -5.271  -2.434  0.00  0.00    +0.128 A 
ATOM     18  O   UNL     1       0.449  -4.813  -1.358  0.00  0.00    -0.464 OA
ATOM     19  C   UNL     1      -0.435  -3.884  -1.746  0.00  0.00    +0.195 A 
ENDBRANCH  13  17
ENDBRANCH  11  14
ENDBRANCH  10  11
ENDBRANCH   3  10
ENDBRANCH   1   8
BRANCH   2  20
ATOM     20  N   UNL     1       6.238  -5.434  -0.027  0.00  0.00    -0.206 N 
ATOM     21  C   UNL     1       5.349  -4.423   0.019  0.00  0.00    +0.249 C 
ATOM     22  O   UNL     1       4.159  -4.661   0.026  0.00  0.00    -0.272 OA
ATOM     23  H   UNL     1       7.189  -5.244  -0.032  0.00  0.00    +0.177 HD
BRANCH  21  24
ATOM     24  C   UNL     1       5.832  -2.996   0.061  0.00  0.00    +0.202 C 
BRANCH  24  25
ATOM     25  N   UNL     1       4.680  -2.091   0.106  0.00  0.00    -0.303 N 
ATOM     26  C   UNL     1       4.872  -0.758   0.148  0.00  0.00    +0.245 C 
ATOM     27  O   UNL     1       6.000  -0.306   0.149  0.00  0.00    -0.270 OA
ATOM     28  H   UNL     1       3.780  -2.452   0.105  0.00  0.00    +0.150 HD
BRANCH  26  29
ATOM     29  C   UNL     1       3.711   0.153   0.193  0.00  0.00    +0.040 A 
ATOM     30  C   UNL     1       2.414  -0.364   0.192  0.00  0.00    +0.017 A 
ATOM     31  C   UNL     1       1.333   0.488   0.234  0.00  0.00    +0.050 A 
ATOM     32  C   UNL     1       1.527   1.864   0.276  0.00  0.00    +0.162 A 
ATOM     33  C   UNL     1       2.818   2.386   0.280  0.00  0.00    +0.163 A 
ATOM     34  C   UNL     1       3.907   1.535   0.238  0.00  0.00    +0.062 A 
ATOM     35  O   UNL     1       3.025   3.731   0.331  0.00  0.00    -0.485 OA
ATOM     36  C   UNL     1       1.912   4.566  -0.004  0.00  0.00    +0.270 C 
ATOM     37  C   UNL     1       0.674   4.035   0.733  0.00  0.00    +0.270 C 
ATOM     38  O   UNL     1       0.445   2.687   0.308  0.00  0.00    -0.485 OA
ENDBRANCH  26  29
ENDBRANCH  24  25
ENDBRANCH  21  24
ENDBRANCH   2  20
TORSDOF 9
