REMARK  Name = ZINC25532338
REMARK  11 active torsions:
REMARK  status: ('A' for Active; 'I' for Inactive)
REMARK    1  A    between atoms: C_1  and  C_2
REMARK    2  A    between atoms: N_5  and  S_11
REMARK    3  A    between atoms: C_7  and  C_10
REMARK    4  A    between atoms: S_11  and  C_14
REMARK    5  A    between atoms: C_17  and  N_20
REMARK    6  A    between atoms: C_21  and  C_23
REMARK    7  A    between atoms: C_23  and  N_24
REMARK    8  A    between atoms: N_24  and  C_25
REMARK    9  A    between atoms: N_24  and  C_26
REMARK   10  A    between atoms: C_26  and  C_27
REMARK   11  A    between atoms: C_32  and  C_33
REMARK                            x       y       z     vdW  Elec       q    Type
REMARK                         _______ _______ _______ _____ _____    ______ ____
ROOT
ATOM      1  N   UNL     1      -0.002   1.069  -0.248  0.00  0.00    -0.287 N 
ATOM      2  C   UNL     1       0.108  -0.145  -0.823  0.00  0.00    +0.201 C 
ATOM      3  O   UNL     1      -0.856  -0.652  -1.358  0.00  0.00    -0.278 OA
ATOM      4  H   UNL     1       0.850   1.496   0.300  0.00  0.00    +0.155 HD
ENDROOT
BRANCH   1   8
ATOM      5  C   UNL     1      -3.568   3.202  -0.549  0.00  0.00    +0.106 A 
ATOM      6  C   UNL     1      -3.595   1.824  -0.439  0.00  0.00    +0.030 A 
ATOM      7  C   UNL     1      -2.415   1.114  -0.340  0.00  0.00    +0.025 A 
ATOM      8  C   UNL     1      -1.200   1.785  -0.349  0.00  0.00    +0.033 A 
ATOM      9  C   UNL     1      -1.176   3.170  -0.454  0.00  0.00    +0.025 A 
ATOM     10  C   UNL     1      -2.359   3.874  -0.559  0.00  0.00    +0.030 A 
BRANCH   5  11
ATOM     11  S   UNL     1      -5.076   4.104  -0.678  0.00  0.00    +0.061 S 
ATOM     12  O   UNL     1      -4.761   5.333  -1.318  0.00  0.00    -0.153 OA
ATOM     13  O   UNL     1      -6.046   3.202  -1.194  0.00  0.00    -0.153 OA
BRANCH  11  17
ATOM     14  C   UNL     1      -4.269   6.689   3.652  0.00  0.00    +0.039 C 
ATOM     15  C   UNL     1      -4.547   5.396   2.885  0.00  0.00    +0.131 C 
ATOM     16  C   UNL     1      -5.121   5.733   1.504  0.00  0.00    +0.140 C 
ATOM     17  N   UNL     1      -5.553   4.481   0.862  0.00  0.00    -0.172 NA
ATOM     18  C   UNL     1      -6.427   3.578   1.627  0.00  0.00    +0.140 C 
ATOM     19  C   UNL     1      -5.786   3.343   3.004  0.00  0.00    +0.131 C 
ATOM     20  O   UNL     1      -5.495   4.606   3.608  0.00  0.00    -0.371 OA
ATOM     21  C   UNL     1      -4.491   2.545   2.839  0.00  0.00    +0.039 C 
ENDBRANCH  11  17
ENDBRANCH   5  11
ENDBRANCH   1   8
BRANCH   2  22
ATOM     22  C   UNL     1       1.427  -0.872  -0.802  0.00  0.00    +0.019 C 
BRANCH  22  23
ATOM     23  N   UNL     1       1.286  -2.163  -1.489  0.00  0.00    +0.386 N 
ATOM     24  C   UNL     1       1.016  -1.972  -2.920  0.00  0.00    -0.095 C 
ATOM     25  H   UNL     1       0.425  -2.687  -1.049  0.00  0.00    -0.081 HD
BRANCH  23  26
ATOM     26  C   UNL     1       2.476  -3.001  -1.285  0.00  0.00    -0.042 C 
BRANCH  26  27
ATOM     27  C   UNL     1       2.158  -4.425  -1.663  0.00  0.00    -0.052 A 
ATOM     28  C   UNL     1       2.637  -4.948  -2.850  0.00  0.00    +0.002 A 
ATOM     29  C   UNL     1       2.350  -6.255  -3.195  0.00  0.00    +0.000 A 
ATOM     30  C   UNL     1       1.575  -7.037  -2.358  0.00  0.00    +0.001 A 
ATOM     31  C   UNL     1       1.092  -6.512  -1.174  0.00  0.00    +0.012 A 
ATOM     32  C   UNL     1       1.384  -5.206  -0.827  0.00  0.00    +0.056 A 
BRANCH  32  33
ATOM     33  C   UNL     1       0.856  -4.633   0.464  0.00  0.00    +0.418 C 
ATOM     34  F   UNL     1       0.204  -5.638   1.187  0.00  0.00    -0.166 F 
ATOM     35  F   UNL     1       1.920  -4.130   1.220  0.00  0.00    -0.166 F 
ATOM     36  F   UNL     1      -0.045  -3.601   0.182  0.00  0.00    -0.166 F 
ENDBRANCH  32  33
ENDBRANCH  26  27
ENDBRANCH  23  26
ENDBRANCH  22  23
ENDBRANCH   2  22
TORSDOF 8
