REMARK  Name = ZINC03220941
REMARK  6 active torsions:
REMARK  status: ('A' for Active; 'I' for Inactive)
REMARK    1  A    between atoms: C_1  and  C_2
REMARK    2  A    between atoms: C_3  and  N_11
REMARK    3  A    between atoms: C_7  and  N_8
REMARK    4  A    between atoms: C_12  and  C_14
REMARK    5  A    between atoms: C_14  and  S_15
REMARK    6  A    between atoms: S_15  and  C_16
REMARK                            x       y       z     vdW  Elec       q    Type
REMARK                         _______ _______ _______ _____ _____    ______ ____
ROOT
ATOM      1  N   UNL     1      -3.808  -6.182   0.436  0.00  0.00    -0.285 N 
ATOM      2  C   UNL     1      -2.465  -6.245   0.524  0.00  0.00    +0.227 C 
ATOM      3  O   UNL     1      -1.899  -7.312   0.415  0.00  0.00    -0.275 OA
ATOM      4  H   UNL     1      -4.266  -5.343   0.597  0.00  0.00    +0.155 HD
ENDROOT
BRANCH   1   7
ATOM      5  C   UNL     1      -6.574  -6.241   1.105  0.00  0.00    +0.048 C 
ATOM      6  C   UNL     1      -5.894  -7.400   0.421  0.00  0.00    +0.001 A 
ATOM      7  C   UNL     1      -4.542  -7.329   0.113  0.00  0.00    +0.038 A 
ATOM      8  C   UNL     1      -3.918  -8.401  -0.511  0.00  0.00    +0.024 A 
ATOM      9  C   UNL     1      -4.646  -9.532  -0.829  0.00  0.00    +0.004 A 
ATOM     10  C   UNL     1      -5.993  -9.597  -0.525  0.00  0.00    +0.033 A 
ATOM     11  C   UNL     1      -6.617  -8.531   0.097  0.00  0.00    +0.131 A 
BRANCH  11  12
ATOM     12  N   UNL     1      -8.060  -8.604   0.419  0.00  0.00    +0.057 N 
ATOM     13  O   UNL     1      -8.666  -9.649   0.263  0.00  0.00    -0.126 OA
ATOM     14  O   UNL     1      -8.640  -7.620   0.840  0.00  0.00    -0.126 OA
ENDBRANCH  11  12
ENDBRANCH   1   7
BRANCH   2  15
ATOM     15  C   UNL     1      -1.666  -4.988   0.757  0.00  0.00    +0.172 C 
BRANCH  15  16
ATOM     16  S   UNL     1       0.096  -5.398   0.826  0.00  0.00    -0.089 S 
BRANCH  16  17
ATOM     17  C   UNL     1       0.772  -3.794   1.100  0.00  0.00    +0.136 A 
ATOM     18  N   UNL     1       2.031  -3.443   1.239  0.00  0.00    -0.233 NA
ATOM     19  C   UNL     1       2.408  -2.162   1.447  0.00  0.00    +0.081 A 
ATOM     20  C   UNL     1       3.717  -1.654   1.611  0.00  0.00    +0.049 A 
ATOM     21  C   UNL     1       3.928  -0.314   1.815  0.00  0.00    +0.043 A 
ATOM     22  C   UNL     1       2.872   0.587   1.865  0.00  0.00    +0.021 A 
ATOM     23  C   UNL     1       1.579   0.122   1.708  0.00  0.00    +0.018 A 
ATOM     24  C   UNL     1       1.359  -1.216   1.504  0.00  0.00    +0.040 A 
ATOM     25  S   UNL     1      -0.079  -2.230   1.259  0.00  0.00    -0.061 S 
ATOM     26 CL   UNL     1       5.551   0.270   2.012  0.00  0.00    -0.083 Cl
ENDBRANCH  16  17
ENDBRANCH  15  16
ENDBRANCH   2  15
TORSDOF 5
