REMARK  Name = ZINC30714889
REMARK  12 active torsions:
REMARK  status: ('A' for Active; 'I' for Inactive)
REMARK    1  A    between atoms: C_1  and  C_2
REMARK    2  A    between atoms: C_2  and  N_3
REMARK    3  A    between atoms: N_3  and  C_4
REMARK    4  A    between atoms: N_3  and  C_6
REMARK    5  A    between atoms: C_4  and  C_5
REMARK    6  A    between atoms: C_9  and  C_12
REMARK    7  A    between atoms: C_15  and  S_18
REMARK    8  A    between atoms: N_16  and  C_17
REMARK    9  A    between atoms: S_18  and  C_19
REMARK   10  A    between atoms: C_19  and  C_20
REMARK   11  A    between atoms: C_23  and  C_25
REMARK   12  A    between atoms: N_27  and  C_28
REMARK                            x       y       z     vdW  Elec       q    Type
REMARK                         _______ _______ _______ _____ _____    ______ ____
ROOT
ATOM      1  S   UNL     1       3.108  -8.835  -2.784  0.00  0.00    -0.079 S 
ENDROOT
BRANCH   1   5
ATOM      2  C   UNL     1       4.773 -12.364  -2.569  0.00  0.00    +0.165 A 
ATOM      3  N   UNL     1       4.576 -12.060  -1.307  0.00  0.00    -0.128 NA
ATOM      4  N   UNL     1       4.024 -10.904  -1.215  0.00  0.00    -0.122 NA
ATOM      5  C   UNL     1       3.834 -10.397  -2.412  0.00  0.00    +0.192 A 
ATOM      6  N   UNL     1       4.299 -11.311  -3.316  0.00  0.00    -0.305 N 
ATOM      7  C   UNL     1       4.295 -11.192  -4.776  0.00  0.00    +0.153 C 
BRANCH   2  11
ATOM      8  C   UNL     1       6.527 -15.934  -4.063  0.00  0.00    +0.030 A 
ATOM      9  C   UNL     1       6.430 -14.814  -4.881  0.00  0.00    +0.024 A 
ATOM     10  C   UNL     1       5.862 -13.655  -4.399  0.00  0.00    +0.013 A 
ATOM     11  C   UNL     1       5.383 -13.606  -3.089  0.00  0.00    +0.019 A 
ATOM     12  C   UNL     1       5.487 -14.731  -2.268  0.00  0.00    +0.013 A 
ATOM     13  C   UNL     1       6.052 -15.889  -2.757  0.00  0.00    +0.024 A 
BRANCH   8  14
ATOM     14  N   UNL     1       7.104 -17.107  -4.554  0.00  0.00    -0.330 N 
BRANCH  14  16
ATOM     15  C   UNL     1       5.949 -19.144  -3.850  0.00  0.00    +0.024 C 
ATOM     16  C   UNL     1       7.207 -18.288  -3.694  0.00  0.00    +0.102 C 
ENDBRANCH  14  16
BRANCH  14  17
ATOM     17  C   UNL     1       7.605 -17.156  -5.929  0.00  0.00    +0.102 C 
ATOM     18  C   UNL     1       9.074 -16.728  -5.952  0.00  0.00    +0.024 C 
ENDBRANCH  14  17
ENDBRANCH   8  14
ENDBRANCH   2  11
ENDBRANCH   1   5
BRANCH   1  19
ATOM     19  C   UNL     1       2.758  -8.245  -1.109  0.00  0.00    +0.142 C 
BRANCH  19  20
ATOM     20  C   UNL     1       2.115  -6.884  -1.180  0.00  0.00    +0.113 A 
ATOM     21  N   UNL     1       0.836  -6.562  -1.258  0.00  0.00    -0.145 NA
ATOM     22  N   UNL     1       0.450  -5.361  -1.311  0.00  0.00    -0.136 NA
ATOM     23  C   UNL     1       1.337  -4.370  -1.289  0.00  0.00    +0.187 A 
ATOM     24  S   UNL     1       2.856  -5.310  -1.188  0.00  0.00    -0.045 S 
BRANCH  23  25
ATOM     25  C   UNL     1       1.129  -2.913  -1.339  0.00  0.00    +0.275 C 
ATOM     26  O   UNL     1       2.084  -2.161  -1.307  0.00  0.00    -0.268 OA
ATOM     27  N   UNL     1      -0.120  -2.413  -1.421  0.00  0.00    -0.280 N 
ATOM     28  H   UNL     1      -0.988  -3.088  -1.365  0.00  0.00    +0.155 HD
BRANCH  27  29
ATOM     29  C   UNL     1      -0.315  -1.036  -1.576  0.00  0.00    +0.034 A 
ATOM     30  C   UNL     1       0.586  -0.287  -2.322  0.00  0.00    +0.026 A 
ATOM     31  C   UNL     1       0.392   1.072  -2.475  0.00  0.00    +0.040 A 
ATOM     32  C   UNL     1      -0.699   1.687  -1.884  0.00  0.00    +0.124 A 
ATOM     33  C   UNL     1      -1.597   0.942  -1.139  0.00  0.00    +0.040 A 
ATOM     34  C   UNL     1      -1.408  -0.417  -0.984  0.00  0.00    +0.026 A 
ATOM     35  F   UNL     1      -0.886   3.017  -2.034  0.00  0.00    -0.205 F 
ENDBRANCH  27  29
ENDBRANCH  23  25
ENDBRANCH  19  20
ENDBRANCH   1  19
TORSDOF 9
