REMARK  Name = ZINC28658346
REMARK  9 active torsions:
REMARK  status: ('A' for Active; 'I' for Inactive)
REMARK    1  A    between atoms: C_4  and  C_7
REMARK    2  A    between atoms: C_7  and  N_8
REMARK    3  A    between atoms: C_9  and  S_11
REMARK    4  A    between atoms: S_11  and  C_12
REMARK    5  A    between atoms: C_12  and  C_13
REMARK    6  A    between atoms: C_13  and  O_14
REMARK    7  A    between atoms: O_14  and  C_15
REMARK    8  A    between atoms: C_18  and  S_21
REMARK    9  A    between atoms: S_21  and  N_24
REMARK                            x       y       z     vdW  Elec       q    Type
REMARK                         _______ _______ _______ _____ _____    ______ ____
ROOT
ATOM      1  C   UNL     1       4.308  -1.681  -4.123  0.00  0.00    +0.118 C 
ENDROOT
BRANCH   1   2
ATOM      2  S   UNL     1       5.632  -0.568  -3.589  0.00  0.00    -0.090 S 
BRANCH   2   4
ATOM      3  N   UNL     1       4.070  -0.864  -1.450  0.00  0.00    -0.364 N 
ATOM      4  C   UNL     1       5.144  -0.292  -1.919  0.00  0.00    +0.126 C 
ATOM      5  N   UNL     1       5.896   0.526  -1.109  0.00  0.00    -0.339 N 
ATOM      6  H   UNL     1       6.803   1.009  -1.504  0.00  0.00    +0.144 HD
ATOM      7  H   UNL     1       5.592   0.699  -0.066  0.00  0.00    +0.144 HD
ATOM      8  H   UNL     1       3.526  -1.599  -2.062  0.00  0.00    +0.162 HD
BRANCH   3   9
ATOM      9  C   UNL     1       3.587  -0.529  -0.108  0.00  0.00    +0.150 C 
BRANCH   9  13
ATOM     10  C   UNL     1      -0.276   1.272  -0.394  0.00  0.00    +0.000 A 
ATOM     11  C   UNL     1       0.859   2.061  -0.434  0.00  0.00    +0.000 A 
ATOM     12  C   UNL     1       2.109   1.478  -0.342  0.00  0.00    +0.005 A 
ATOM     13  C   UNL     1       2.224   0.106  -0.209  0.00  0.00    -0.028 A 
ATOM     14  C   UNL     1       1.089  -0.682  -0.168  0.00  0.00    +0.005 A 
ATOM     15  C   UNL     1      -0.161  -0.099  -0.261  0.00  0.00    +0.000 A 
ENDBRANCH   9  13
ENDBRANCH   3   9
ENDBRANCH   2   4
ENDBRANCH   1   2
BRANCH   1  16
ATOM     16  C   UNL     1       4.527  -2.068  -5.588  0.00  0.00    +0.240 C 
BRANCH  16  17
ATOM     17  O   UNL     1       3.482  -2.947  -6.009  0.00  0.00    -0.491 OA
BRANCH  17  18
ATOM     18  C   UNL     1       3.527  -3.388  -7.294  0.00  0.00    +0.121 A 
ATOM     19  C   UNL     1       4.553  -2.978  -8.133  0.00  0.00    +0.047 A 
ATOM     20  C   UNL     1       4.601  -3.432  -9.437  0.00  0.00    +0.032 A 
ATOM     21  C   UNL     1       3.620  -4.285  -9.909  0.00  0.00    +0.105 A 
ATOM     22  C   UNL     1       2.593  -4.690  -9.077  0.00  0.00    +0.032 A 
ATOM     23  C   UNL     1       2.545  -4.243  -7.770  0.00  0.00    +0.047 A 
BRANCH  21  24
ATOM     24  S   UNL     1       3.679  -4.856 -11.575  0.00  0.00    +0.056 S 
ATOM     25  O   UNL     1       5.035  -4.768 -11.987  0.00  0.00    -0.153 OA
ATOM     26  O   UNL     1       2.949  -6.075 -11.612  0.00  0.00    -0.153 OA
BRANCH  24  27
ATOM     27  N   UNL     1       2.833  -3.770 -12.495  0.00  0.00    -0.204 NA
ATOM     28  H   UNL     1       2.845  -4.092 -13.547  0.00  0.00    +0.144 HD
ATOM     29  H   UNL     1       3.298  -2.777 -12.411  0.00  0.00    +0.144 HD
ENDBRANCH  24  27
ENDBRANCH  21  24
ENDBRANCH  17  18
ENDBRANCH  16  17
ENDBRANCH   1  16
TORSDOF 9
