REMARK  Name = ZINC39682607
REMARK  6 active torsions:
REMARK  status: ('A' for Active; 'I' for Inactive)
REMARK    1  A    between atoms: C_4  and  C_7
REMARK    2  A    between atoms: C_7  and  C_9
REMARK    3  A    between atoms: C_7  and  N_13
REMARK    4  A    between atoms: C_9  and  C_10
REMARK    5  A    between atoms: C_14  and  C_16
REMARK    6  A    between atoms: C_27  and  C_29
REMARK                            x       y       z     vdW  Elec       q    Type
REMARK                         _______ _______ _______ _____ _____    ______ ____
ROOT
ATOM      1  C   UNL     1       5.062  -3.654  -2.759  0.00  0.00    +0.100 C 
ATOM      2  C   UNL     1       4.514  -3.485  -4.193  0.00  0.00    +0.121 C 
ATOM      3  N   UNL     1       5.702  -3.143  -5.010  0.00  0.00    -0.295 N 
ATOM      4  C   UNL     1       6.783  -4.000  -4.466  0.00  0.00    +0.115 C 
ATOM      5  C   UNL     1       6.551  -3.995  -2.942  0.00  0.00    -0.004 C 
ATOM      6  C   UNL     1       6.853  -5.371  -2.357  0.00  0.00    -0.010 C 
ATOM      7  C   UNL     1       8.349  -5.664  -2.499  0.00  0.00    -0.082 C 
ATOM      8  N   UNL     1       9.120  -4.631  -1.796  0.00  0.00    +0.379 N 
ATOM      9  C   UNL     1       8.895  -3.324  -2.424  0.00  0.00    -0.082 C 
ATOM     10  C   UNL     1       7.422  -2.932  -2.279  0.00  0.00    -0.010 C 
ATOM     11  C   UNL     1       5.782  -2.254  -6.020  0.00  0.00    +0.265 C 
ATOM     12  O   UNL     1       4.827  -1.554  -6.290  0.00  0.00    -0.268 OA
ATOM     13  H   UNL     1       8.828  -4.594  -0.831  0.00  0.00    -0.086 HD
ATOM     14  H   UNL     1      10.102  -4.859  -1.839  0.00  0.00    -0.086 HD
ENDROOT
BRANCH  11  15
ATOM     15  C   UNL     1       7.036  -2.131  -6.802  0.00  0.00    +0.126 A 
ATOM     16  C   UNL     1       7.146  -1.118  -7.766  0.00  0.00    +0.033 A 
ATOM     17  C   UNL     1       8.295  -0.994  -8.492  0.00  0.00    +0.012 A 
ATOM     18  C   UNL     1       9.343  -1.900  -8.241  0.00  0.00    +0.000 A 
ATOM     19  C   UNL     1      10.553  -1.829  -8.950  0.00  0.00    +0.010 A 
ATOM     20  C   UNL     1      11.544  -2.722  -8.681  0.00  0.00    +0.001 A 
ATOM     21  C   UNL     1      11.376  -3.708  -7.709  0.00  0.00    +0.002 A 
ATOM     22  C   UNL     1      10.218  -3.807  -7.002  0.00  0.00    +0.028 A 
ATOM     23  C   UNL     1       9.168  -2.902  -7.251  0.00  0.00    +0.072 A 
ATOM     24  N   UNL     1       8.025  -2.972  -6.570  0.00  0.00    -0.242 NA
ENDBRANCH  11  15
BRANCH   1  26
ATOM     25  N   UNL     1       4.920  -2.390  -0.637  0.00  0.00    -0.308 N 
ATOM     26  C   UNL     1       4.910  -2.370  -1.984  0.00  0.00    +0.219 C 
ATOM     27  O   UNL     1       4.779  -1.318  -2.574  0.00  0.00    -0.275 OA
ATOM     28  H   UNL     1       4.953  -3.237  -0.165  0.00  0.00    +0.149 HD
BRANCH  25  29
ATOM     29  C   UNL     1       4.881  -1.133   0.115  0.00  0.00    +0.114 C 
BRANCH  29  33
ATOM     30  C   UNL     1       3.530  -1.898   4.095  0.00  0.00    +0.000 A 
ATOM     31  C   UNL     1       3.098  -0.769   3.423  0.00  0.00    +0.000 A 
ATOM     32  C   UNL     1       3.536  -0.522   2.135  0.00  0.00    +0.005 A 
ATOM     33  C   UNL     1       4.405  -1.403   1.519  0.00  0.00    -0.027 A 
ATOM     34  C   UNL     1       4.837  -2.531   2.191  0.00  0.00    +0.005 A 
ATOM     35  C   UNL     1       4.398  -2.779   3.478  0.00  0.00    +0.000 A 
ENDBRANCH  29  33
BRANCH  29  36
ATOM     36  C   UNL     1       6.283  -0.522   0.161  0.00  0.00    +0.152 C 
BRANCH  36  37
ATOM     37  C   UNL     1       6.214   0.847   0.786  0.00  0.00    +0.358 C 
ATOM     38  O   UNL     1       5.158   1.261   1.233  0.00  0.00    -0.246 OA
ATOM     39  O   UNL     1       7.215   1.541   0.845  0.00  0.00    -0.246 OA
ENDBRANCH  36  37
ENDBRANCH  29  36
ENDBRANCH  25  29
ENDBRANCH   1  26
TORSDOF 6
