REMARK  Name = ZINC15053762
REMARK  7 active torsions:
REMARK  status: ('A' for Active; 'I' for Inactive)
REMARK    1  A    between atoms: C_4  and  C_7
REMARK    2  A    between atoms: C_7  and  O_8
REMARK    3  A    between atoms: O_8  and  C_9
REMARK    4  A    between atoms: C_13  and  C_15
REMARK    5  A    between atoms: N_19  and  C_23
REMARK    6  A    between atoms: C_26  and  S_29
REMARK    7  A    between atoms: S_29  and  N_32
REMARK                            x       y       z     vdW  Elec       q    Type
REMARK                         _______ _______ _______ _____ _____    ______ ____
ROOT
ATOM      1  C   UNL     1       7.570  -2.757   4.255  0.00  0.00    +0.028 C 
ATOM      2  C   UNL     1       8.664  -3.543   4.407  0.00  0.00    +0.078 C 
ATOM      3  C   UNL     1       9.293  -4.041   5.647  0.00  0.00    +0.263 C 
ATOM      4  O   UNL     1       8.845  -3.765   6.744  0.00  0.00    -0.269 OA
ATOM      5  N   UNL     1      10.367  -4.802   5.511  0.00  0.00    -0.215 N 
ATOM      6  C   UNL     1      10.859  -5.103   4.255  0.00  0.00    +0.165 C 
ATOM      7  N   UNL     1      11.896  -5.830   3.944  0.00  0.00    -0.279 NA
ATOM      8  S   UNL     1       9.726  -4.261   3.162  0.00  0.00    -0.049 S 
ATOM      9  H   UNL     1      12.134  -5.963   3.013  0.00  0.00    +0.189 HD
ENDROOT
BRANCH   1  14
ATOM     10  C   UNL     1       5.616  -1.246   1.428  0.00  0.00    +0.122 A 
ATOM     11  C   UNL     1       5.968  -2.088   0.382  0.00  0.00    +0.046 A 
ATOM     12  C   UNL     1       6.837  -3.143   0.596  0.00  0.00    +0.004 A 
ATOM     13  C   UNL     1       7.361  -3.366   1.852  0.00  0.00    +0.008 A 
ATOM     14  C   UNL     1       7.014  -2.523   2.914  0.00  0.00    -0.020 A 
ATOM     15  C   UNL     1       6.139  -1.455   2.692  0.00  0.00    +0.053 A 
BRANCH  10  16
ATOM     16  O   UNL     1       4.762  -0.212   1.210  0.00  0.00    -0.487 OA
BRANCH  16  17
ATOM     17  C   UNL     1       4.261  -0.054  -0.119  0.00  0.00    +0.264 C 
BRANCH  17  21
ATOM     18  C   UNL     1       1.640   3.316  -0.265  0.00  0.00    +0.000 A 
ATOM     19  C   UNL     1       2.991   3.480  -0.506  0.00  0.00    +0.000 A 
ATOM     20  C   UNL     1       3.839   2.389  -0.459  0.00  0.00    +0.007 A 
ATOM     21  C   UNL     1       3.336   1.135  -0.170  0.00  0.00    -0.010 A 
ATOM     22  C   UNL     1       1.985   0.971   0.073  0.00  0.00    +0.007 A 
ATOM     23  C   UNL     1       1.137   2.061   0.024  0.00  0.00    +0.000 A 
ENDBRANCH  17  21
ENDBRANCH  16  17
ENDBRANCH  10  16
ENDBRANCH   1  14
BRANCH   5  24
ATOM     24  C   UNL     1      11.010  -5.306   6.649  0.00  0.00    +0.044 A 
ATOM     25  C   UNL     1      10.381  -6.258   7.439  0.00  0.00    +0.026 A 
ATOM     26  C   UNL     1      11.018  -6.753   8.561  0.00  0.00    +0.030 A 
ATOM     27  C   UNL     1      12.280  -6.301   8.897  0.00  0.00    +0.105 A 
ATOM     28  C   UNL     1      12.909  -5.352   8.112  0.00  0.00    +0.030 A 
ATOM     29  C   UNL     1      12.280  -4.858   6.986  0.00  0.00    +0.026 A 
BRANCH  27  30
ATOM     30  S   UNL     1      13.089  -6.934  10.328  0.00  0.00    +0.056 S 
ATOM     31  O   UNL     1      14.034  -5.952  10.729  0.00  0.00    -0.153 OA
ATOM     32  O   UNL     1      12.068  -7.408  11.195  0.00  0.00    -0.153 OA
BRANCH  30  33
ATOM     33  N   UNL     1      13.959  -8.261   9.852  0.00  0.00    -0.204 NA
ATOM     34  H   UNL     1      14.776  -8.498  10.317  0.00  0.00    +0.144 HD
ATOM     35  H   UNL     1      13.650  -8.802   9.108  0.00  0.00    +0.144 HD
ENDBRANCH  30  33
ENDBRANCH  27  30
ENDBRANCH   5  24
TORSDOF 7
