REMARK  Name = ZINC13988922
REMARK  5 active torsions:
REMARK  status: ('A' for Active; 'I' for Inactive)
REMARK    1  A    between atoms: C_4  and  C_7
REMARK    2  A    between atoms: C_10  and  O_13
REMARK    3  A    between atoms: O_13  and  C_14
REMARK    4  A    between atoms: C_14  and  C_15
REMARK    5  A    between atoms: N_17  and  N_18
REMARK                            x       y       z     vdW  Elec       q    Type
REMARK                         _______ _______ _______ _____ _____    ______ ____
ROOT
ATOM      1  C   UNL     1       5.948   5.794  -0.263  0.00  0.00    +0.267 C 
ATOM      2  O   UNL     1       6.917   5.324   0.294  0.00  0.00    -0.271 OA
ATOM      3  N   UNL     1       4.736   5.226  -0.102  0.00  0.00    -0.230 N 
ATOM      4  H   UNL     1       3.950   5.644  -0.487  0.00  0.00    +0.173 HD
ENDROOT
BRANCH   3   5
ATOM      5  N   UNL     1       4.612   4.033   0.622  0.00  0.00    -0.217 N 
ATOM      6  C   UNL     1       3.390   3.549   0.919  0.00  0.00    +0.327 C 
ATOM      7  O   UNL     1       3.279   2.454   1.436  0.00  0.00    -0.250 OA
ATOM      8  N   UNL     1       2.291   4.279   0.644  0.00  0.00    -0.221 N 
ATOM      9  C   UNL     1       2.425   5.656   0.422  0.00  0.00    +0.057 A 
ATOM     10  C   UNL     1       3.333   6.398   1.161  0.00  0.00    +0.025 A 
ATOM     11  C   UNL     1       3.459   7.757   0.939  0.00  0.00    +0.002 A 
ATOM     12  C   UNL     1       2.679   8.386  -0.013  0.00  0.00    +0.001 A 
ATOM     13  C   UNL     1       1.774   7.654  -0.762  0.00  0.00    +0.017 A 
ATOM     14  C   UNL     1       1.645   6.295  -0.544  0.00  0.00    +0.035 A 
ATOM     15  S   UNL     1       0.495   5.336  -1.479  0.00  0.00    -0.086 S 
ATOM     16  C   UNL     1       0.095   4.029  -0.361  0.00  0.00    +0.035 A 
ATOM     17  C   UNL     1       1.046   3.640   0.586  0.00  0.00    +0.057 A 
ATOM     18  C   UNL     1       0.744   2.615   1.469  0.00  0.00    +0.025 A 
ATOM     19  C   UNL     1      -0.488   1.989   1.407  0.00  0.00    +0.002 A 
ATOM     20  C   UNL     1      -1.425   2.378   0.468  0.00  0.00    +0.001 A 
ATOM     21  C   UNL     1      -1.135   3.400  -0.419  0.00  0.00    +0.017 A 
ATOM     22  H   UNL     1       5.406   3.555   0.908  0.00  0.00    +0.174 HD
ENDBRANCH   3   5
BRANCH   1  23
ATOM     23  C   UNL     1       6.099   7.014  -1.135  0.00  0.00    +0.326 C 
BRANCH  23  24
ATOM     24  O   UNL     1       7.482   7.356  -1.241  0.00  0.00    -0.483 OA
BRANCH  24  28
ATOM     25  C   UNL     1       8.428  10.649  -3.544  0.00  0.00    -0.018 A 
ATOM     26  C   UNL     1       9.438   9.926  -2.912  0.00  0.00    +0.012 A 
ATOM     27  C   UNL     1       9.119   8.826  -2.143  0.00  0.00    +0.046 A 
ATOM     28  C   UNL     1       7.793   8.440  -1.999  0.00  0.00    +0.121 A 
ATOM     29  C   UNL     1       6.786   9.155  -2.631  0.00  0.00    +0.046 A 
ATOM     30  C   UNL     1       7.098  10.259  -3.397  0.00  0.00    +0.012 A 
BRANCH  25  34
ATOM     31  C   UNL     1       9.403  14.041  -5.917  0.00  0.00    +0.000 A 
ATOM     32  C   UNL     1       8.082  13.657  -5.773  0.00  0.00    +0.001 A 
ATOM     33  C   UNL     1       7.760  12.557  -5.004  0.00  0.00    +0.008 A 
ATOM     34  C   UNL     1       8.768  11.833  -4.372  0.00  0.00    -0.018 A 
ATOM     35  C   UNL     1      10.097  12.227  -4.515  0.00  0.00    +0.008 A 
ATOM     36  C   UNL     1      10.408  13.325  -5.291  0.00  0.00    +0.001 A 
ENDBRANCH  25  34
ENDBRANCH  24  28
ENDBRANCH  23  24
ENDBRANCH   1  23
TORSDOF 5
