REMARK  Name = ZINC67194252
REMARK  8 active torsions:
REMARK  status: ('A' for Active; 'I' for Inactive)
REMARK    1  A    between atoms: C_1  and  C_2
REMARK    2  A    between atoms: C_2  and  C_4
REMARK    3  A    between atoms: C_2  and  S_33
REMARK    4  A    between atoms: N_6  and  N_7
REMARK    5  A    between atoms: C_8  and  C_9
REMARK    6  A    between atoms: C_8  and  C_10
REMARK    7  A    between atoms: C_23  and  C_26
REMARK    8  A    between atoms: S_33  and  C_34
REMARK                            x       y       z     vdW  Elec       q    Type
REMARK                         _______ _______ _______ _____ _____    ______ ____
ROOT
ATOM      1  C   UNL     1       4.127  -1.028   4.783  0.00  0.00    -0.002 A 
ATOM      2  C   UNL     1       5.503  -1.035   5.030  0.00  0.00    +0.011 A 
ATOM      3  C   UNL     1       5.975  -1.355   6.282  0.00  0.00    +0.024 A 
ATOM      4  C   UNL     1       5.094  -1.671   7.311  0.00  0.00    +0.031 A 
ATOM      5  C   UNL     1       3.714  -1.652   7.067  0.00  0.00    -0.019 A 
ATOM      6  C   UNL     1       3.238  -1.335   5.817  0.00  0.00    +0.015 A 
ATOM      7  C   UNL     1       2.815  -1.956   8.202  0.00  0.00    +0.049 C 
ATOM      8  C   UNL     1       1.462  -2.535   7.998  0.00  0.00    -0.023 C 
ATOM      9  C   UNL     1       1.167  -3.300   9.041  0.00  0.00    -0.030 C 
ATOM     10  C   UNL     1       2.338  -3.318  10.025  0.00  0.00    +0.033 C 
ATOM     11  C   UNL     1       3.513  -3.034   9.086  0.00  0.00    +0.029 C 
ATOM     12  C   UNL     1       4.714  -2.338   9.699  0.00  0.00    +0.106 C 
ATOM     13  N   UNL     1       5.608  -2.013   8.566  0.00  0.00    -0.336 N 
ATOM     14  H   UNL     1       6.569  -2.037   8.696  0.00  0.00    +0.147 HD
ENDROOT
BRANCH  12  15
ATOM     15  C   UNL     1       4.283  -1.078  10.404  0.00  0.00    -0.009 A 
ATOM     16  C   UNL     1       4.335   0.136   9.744  0.00  0.00    +0.007 A 
ATOM     17  C   UNL     1       3.939   1.292  10.391  0.00  0.00    +0.000 A 
ATOM     18  C   UNL     1       3.491   1.235  11.697  0.00  0.00    +0.001 A 
ATOM     19  C   UNL     1       3.438   0.022  12.358  0.00  0.00    +0.020 A 
ATOM     20  C   UNL     1       3.828  -1.136  11.709  0.00  0.00    +0.046 A 
ATOM     21 CL   UNL     1       3.756  -2.661  12.536  0.00  0.00    -0.083 Cl
ENDBRANCH  12  15
BRANCH   1  23
ATOM     22  N   UNL     1       2.338  -0.682   3.218  0.00  0.00    -0.185 NA
ATOM     23  C   UNL     1       3.616  -0.692   3.442  0.00  0.00    +0.063 C 
ATOM     24  C   UNL     1       4.578  -0.361   2.330  0.00  0.00    +0.068 C 
BRANCH  22  27
ATOM     25  C   UNL     1       0.525  -0.352   1.711  0.00  0.00    +0.245 C 
ATOM     26  O   UNL     1      -0.250  -0.618   2.606  0.00  0.00    -0.273 OA
ATOM     27  N   UNL     1       1.852  -0.363   1.943  0.00  0.00    -0.206 N 
ATOM     28  H   UNL     1       2.472  -0.150   1.228  0.00  0.00    +0.177 HD
BRANCH  25  30
ATOM     29  C   UNL     1       0.008   1.510   0.157  0.00  0.00    +0.029 C 
ATOM     30  C   UNL     1       0.003  -0.009   0.339  0.00  0.00    +0.136 C 
BRANCH  30  31
ATOM     31  S   UNL     1      -1.692  -0.633   0.164  0.00  0.00    -0.113 S 
BRANCH  31  32
ATOM     32  C   UNL     1      -1.501  -2.384   0.138  0.00  0.00    +0.009 A 
ATOM     33  C   UNL     1      -0.230  -2.946   0.123  0.00  0.00    +0.015 A 
ATOM     34  C   UNL     1      -0.084  -4.319   0.103  0.00  0.00    +0.001 A 
ATOM     35  C   UNL     1      -1.201  -5.135   0.097  0.00  0.00    +0.000 A 
ATOM     36  C   UNL     1      -2.467  -4.579   0.111  0.00  0.00    +0.001 A 
ATOM     37  C   UNL     1      -2.621  -3.207   0.138  0.00  0.00    +0.015 A 
ENDBRANCH  31  32
ENDBRANCH  30  31
ENDBRANCH  25  30
ENDBRANCH  22  27
ENDBRANCH   1  23
TORSDOF 6
