REMARK  Name = ZINC35239462
REMARK  13 active torsions:
REMARK  status: ('A' for Active; 'I' for Inactive)
REMARK    1  A    between atoms: C_1  and  C_2
REMARK    2  A    between atoms: C_2  and  O_3
REMARK    3  A    between atoms: O_3  and  C_4
REMARK    4  A    between atoms: C_4  and  C_5
REMARK    5  A    between atoms: C_5  and  O_6
REMARK    6  A    between atoms: O_6  and  C_7
REMARK    7  A    between atoms: C_7  and  C_9
REMARK    8  A    between atoms: C_10  and  C_36
REMARK    9  A    between atoms: C_14  and  C_16
REMARK   10  A    between atoms: C_26  and  C_32
REMARK   11  A    between atoms: C_28  and  C_31
REMARK   12  A    between atoms: C_32  and  O_34
REMARK   13  A    between atoms: O_34  and  C_35
REMARK                            x       y       z     vdW  Elec       q    Type
REMARK                         _______ _______ _______ _____ _____    ______ ____
ROOT
ATOM      1  C   UNL     1       4.947  -1.541  -3.628  0.00  0.00    +0.065 C 
ATOM      2  C   UNL     1       5.774  -2.009  -4.579  0.00  0.00    +0.016 C 
ATOM      3  N   UNL     1       7.115  -1.752  -4.517  0.00  0.00    -0.321 N 
ATOM      4  C   UNL     1       7.701  -1.379  -3.337  0.00  0.00    +0.016 C 
ATOM      5  C   UNL     1       6.954  -0.886  -2.327  0.00  0.00    +0.025 C 
ATOM      6  C   UNL     1       5.462  -0.718  -2.484  0.00  0.00    +0.092 C 
ATOM      7  C   UNL     1       7.541  -0.515  -1.105  0.00  0.00    +0.176 C 
ATOM      8  O   UNL     1       6.841  -0.068  -0.218  0.00  0.00    -0.291 OA
ATOM      9  C   UNL     1       9.020  -0.661  -0.874  0.00  0.00    +0.171 C 
ATOM     10  C   UNL     1       9.548  -1.813  -1.736  0.00  0.00    +0.013 C 
ATOM     11  C   UNL     1       9.196  -1.528  -3.197  0.00  0.00    +0.055 C 
ATOM     12  C   UNL     1      11.067  -1.917  -1.580  0.00  0.00    +0.009 C 
ATOM     13  C   UNL     1       5.219  -2.821  -5.720  0.00  0.00    +0.061 C 
ATOM     14  H   UNL     1       7.657  -1.836  -5.317  0.00  0.00    +0.152 HD
ENDROOT
BRANCH   6  15
ATOM     15  C   UNL     1       5.147   0.734  -2.738  0.00  0.00    -0.034 A 
ATOM     16  C   UNL     1       5.644   1.362  -3.865  0.00  0.00    +0.006 A 
ATOM     17  C   UNL     1       5.357   2.693  -4.099  0.00  0.00    +0.022 A 
ATOM     18  C   UNL     1       4.570   3.398  -3.205  0.00  0.00    +0.059 A 
ATOM     19  C   UNL     1       4.071   2.769  -2.077  0.00  0.00    +0.060 A 
ATOM     20  C   UNL     1       4.356   1.435  -1.847  0.00  0.00    +0.026 A 
ATOM     21 CL   UNL     1       3.084   3.653  -0.955  0.00  0.00    -0.082 Cl
ATOM     22 CL   UNL     1       4.209   5.071  -3.499  0.00  0.00    -0.082 Cl
ENDBRANCH   6  15
BRANCH   1  23
ATOM     23  C   UNL     1       3.564  -1.826  -3.710  0.00  0.00    +0.338 C 
ATOM     24  O   UNL     1       3.067  -2.649  -2.964  0.00  0.00    -0.245 OA
BRANCH  23  25
ATOM     25  O   UNL     1       2.795  -1.185  -4.615  0.00  0.00    -0.459 OA
BRANCH  25  26
ATOM     26  C   UNL     1       1.407  -1.522  -4.643  0.00  0.00    +0.260 C 
BRANCH  26  27
ATOM     27  C   UNL     1       0.704  -0.700  -5.724  0.00  0.00    +0.201 C 
BRANCH  27  28
ATOM     28  O   UNL     1       1.208  -1.071  -7.008  0.00  0.00    -0.377 OA
BRANCH  28  30
ATOM     29  C   UNL     1       1.227  -0.834  -9.414  0.00  0.00    +0.034 C 
ATOM     30  C   UNL     1       0.614  -0.358  -8.095  0.00  0.00    +0.156 C 
ENDBRANCH  28  30
ENDBRANCH  27  28
ENDBRANCH  26  27
ENDBRANCH  25  26
ENDBRANCH  23  25
ENDBRANCH   1  23
BRANCH   9  31
ATOM     31  C   UNL     1       9.277  -0.958   0.581  0.00  0.00    +0.318 C 
ATOM     32  O   UNL     1       9.833  -1.982   0.899  0.00  0.00    -0.250 OA
BRANCH  31  33
ATOM     33  O   UNL     1       8.888  -0.084   1.523  0.00  0.00    -0.467 OA
ATOM     34  C   UNL     1       9.164  -0.430   2.881  0.00  0.00    +0.280 C 
ENDBRANCH  31  33
ENDBRANCH   9  31
TORSDOF 9
