REMARK  Name = ZINC22517248
REMARK  16 active torsions:
REMARK  status: ('A' for Active; 'I' for Inactive)
REMARK    1  A    between atoms: C_1  and  C_2
REMARK    2  A    between atoms: C_5  and  S_8
REMARK    3  A    between atoms: S_8  and  N_11
REMARK    4  A    between atoms: N_11  and  C_12
REMARK    5  A    between atoms: N_11  and  C_30
REMARK    6  A    between atoms: C_12  and  C_13
REMARK    7  A    between atoms: N_15  and  C_16
REMARK    8  A    between atoms: C_16  and  C_18
REMARK    9  A    between atoms: C_16  and  C_22
REMARK   10  A    between atoms: C_18  and  C_19
REMARK   11  A    between atoms: C_19  and  C_20
REMARK   12  A    between atoms: C_19  and  C_21
REMARK   13  A    between atoms: C_25  and  O_28
REMARK   14  A    between atoms: O_28  and  C_29
REMARK   15  A    between atoms: C_34  and  C_37
REMARK   16  A    between atoms: C_35  and  C_36
REMARK                            x       y       z     vdW  Elec       q    Type
REMARK                         _______ _______ _______ _____ _____    ______ ____
ROOT
ATOM      1  N   UNL     1       2.226   7.141  -1.294  0.00  0.00    -0.194 N 
ENDROOT
BRANCH   1   2
ATOM      2  C   UNL     1       1.873   8.470  -1.543  0.00  0.00    +0.055 A 
ATOM      3  C   UNL     1       2.736   9.498  -1.185  0.00  0.00    +0.025 A 
ATOM      4  C   UNL     1       2.384  10.810  -1.433  0.00  0.00    +0.002 A 
ATOM      5  C   UNL     1       1.174  11.101  -2.036  0.00  0.00    +0.004 A 
ATOM      6  C   UNL     1       0.313  10.080  -2.393  0.00  0.00    -0.046 A 
ATOM      7  C   UNL     1       0.661   8.765  -2.153  0.00  0.00    -0.025 A 
ATOM      8  C   UNL     1      -0.276   7.652  -2.548  0.00  0.00    +0.046 C 
ATOM      9  C   UNL     1      -1.005  10.401  -3.050  0.00  0.00    +0.044 C 
ENDBRANCH   1   2
BRANCH   1  10
ATOM     10  S   UNL     1       2.890   6.221  -2.500  0.00  0.00    +0.075 S 
ATOM     11  O   UNL     1       2.515   4.876  -2.237  0.00  0.00    -0.150 OA
ATOM     12  O   UNL     1       2.581   6.872  -3.724  0.00  0.00    -0.150 OA
BRANCH  10  17
ATOM     13  C   UNL     1       8.883   6.497  -1.862  0.00  0.00    +0.044 C 
ATOM     14  C   UNL     1       7.386   6.428  -2.022  0.00  0.00    -0.050 A 
ATOM     15  C   UNL     1       6.656   5.502  -1.300  0.00  0.00    +0.005 A 
ATOM     16  C   UNL     1       5.283   5.439  -1.446  0.00  0.00    +0.029 A 
ATOM     17  C   UNL     1       4.640   6.302  -2.313  0.00  0.00    +0.109 A 
ATOM     18  C   UNL     1       5.371   7.224  -3.039  0.00  0.00    +0.029 A 
ATOM     19  C   UNL     1       6.743   7.290  -2.890  0.00  0.00    +0.005 A 
ENDBRANCH  10  17
ENDBRANCH   1  10
BRANCH   1  20
ATOM     20  C   UNL     1       2.009   6.562   0.034  0.00  0.00    +0.227 C 
BRANCH  20  21
ATOM     21  C   UNL     1       0.609   6.013   0.120  0.00  0.00    +0.233 C 
ATOM     22  O   UNL     1      -0.100   6.001  -0.864  0.00  0.00    -0.274 OA
ATOM     23  N   UNL     1       0.143   5.534   1.291  0.00  0.00    -0.307 N 
ATOM     24  H   UNL     1       0.754   5.618   2.202  0.00  0.00    +0.149 HD
BRANCH  23  25
ATOM     25  C   UNL     1      -1.177   4.901   1.350  0.00  0.00    +0.103 C 
BRANCH  25  26
ATOM     26  C   UNL     1      -2.226   5.951   1.610  0.00  0.00    -0.027 A 
ATOM     27  C   UNL     1      -1.974   6.971   2.509  0.00  0.00    +0.009 A 
ATOM     28  C   UNL     1      -2.932   7.938   2.744  0.00  0.00    +0.046 A 
ATOM     29  C   UNL     1      -4.153   7.878   2.088  0.00  0.00    +0.120 A 
ATOM     30  C   UNL     1      -4.406   6.849   1.192  0.00  0.00    +0.046 A 
ATOM     31  C   UNL     1      -3.442   5.889   0.955  0.00  0.00    +0.009 A 
BRANCH  29  32
ATOM     32  O   UNL     1      -5.099   8.824   2.323  0.00  0.00    -0.495 OA
ATOM     33  C   UNL     1      -4.770   9.853   3.258  0.00  0.00    +0.277 C 
ENDBRANCH  29  32
ENDBRANCH  25  26
BRANCH  25  34
ATOM     34  C   UNL     1      -1.197   3.869   2.480  0.00  0.00    +0.030 C 
BRANCH  34  35
ATOM     35  C   UNL     1      -0.219   2.738   2.155  0.00  0.00    -0.015 C 
ATOM     36  C   UNL     1      -0.337   1.641   3.215  0.00  0.00    +0.007 C 
ATOM     37  C   UNL     1       1.210   3.286   2.145  0.00  0.00    +0.007 C 
ENDBRANCH  34  35
ENDBRANCH  25  34
ENDBRANCH  23  25
ENDBRANCH  20  21
ENDBRANCH   1  20
TORSDOF 10
