REMARK  Name = ZINC38915543
REMARK  6 active torsions:
REMARK  status: ('A' for Active; 'I' for Inactive)
REMARK    1  A    between atoms: C_4  and  C_7
REMARK    2  A    between atoms: C_7  and  O_8
REMARK    3  A    between atoms: O_8  and  C_9
REMARK    4  A    between atoms: C_12  and  C_15
REMARK    5  A    between atoms: N_16  and  N_17
REMARK    6  A    between atoms: C_18  and  C_24
REMARK                            x       y       z     vdW  Elec       q    Type
REMARK                         _______ _______ _______ _____ _____    ______ ____
ROOT
ATOM      1  C   UNL     1       9.113  -3.484   1.987  0.00  0.00    +0.138 C 
ATOM      2  N   UNL     1       9.440  -3.914   3.168  0.00  0.00    -0.183 NA
ENDROOT
BRANCH   2   3
ATOM      3  N   UNL     1      10.598  -4.684   3.337  0.00  0.00    -0.172 N 
ATOM      4  C   UNL     1      11.188  -5.162   4.601  0.00  0.00    +0.265 C 
ATOM      5  N   UNL     1      12.380  -5.910   4.173  0.00  0.00    -0.189 NA
ATOM      6  N   UNL     1      12.443  -5.860   2.942  0.00  0.00    -0.219 N 
ATOM      7  C   UNL     1      11.423  -5.160   2.378  0.00  0.00    +0.174 C 
ATOM      8  S   UNL     1      11.216  -4.913   0.696  0.00  0.00    -0.015 S 
ATOM      9  H   UNL     1      13.147  -6.283   2.427  0.00  0.00    +0.176 HD
BRANCH   4  10
ATOM     10  C   UNL     1      10.225  -6.067   5.326  0.00  0.00    +0.016 A 
ATOM     11  C   UNL     1       8.866  -5.954   5.098  0.00  0.00    +0.010 A 
ATOM     12  C   UNL     1       7.982  -6.782   5.761  0.00  0.00    +0.020 A 
ATOM     13  C   UNL     1       8.456  -7.727   6.655  0.00  0.00    +0.042 A 
ATOM     14  C   UNL     1       9.815  -7.841   6.883  0.00  0.00    +0.040 A 
ATOM     15  C   UNL     1      10.700  -7.014   6.215  0.00  0.00    +0.049 A 
ATOM     16 CL   UNL     1      12.407  -7.160   6.497  0.00  0.00    -0.083 Cl
ATOM     17 CL   UNL     1       7.345  -8.768   7.489  0.00  0.00    -0.083 Cl
ENDBRANCH   4  10
ENDBRANCH   2   3
BRANCH   1  21
ATOM     18  C   UNL     1       5.449  -1.415   1.422  0.00  0.00    +0.121 A 
ATOM     19  C   UNL     1       6.296  -1.631   0.343  0.00  0.00    +0.046 A 
ATOM     20  C   UNL     1       7.487  -2.302   0.521  0.00  0.00    +0.013 A 
ATOM     21  C   UNL     1       7.841  -2.766   1.791  0.00  0.00    -0.005 A 
ATOM     22  C   UNL     1       6.986  -2.546   2.875  0.00  0.00    +0.013 A 
ATOM     23  C   UNL     1       5.800  -1.869   2.687  0.00  0.00    +0.046 A 
BRANCH  18  24
ATOM     24  O   UNL     1       4.277  -0.753   1.242  0.00  0.00    -0.487 OA
BRANCH  24  25
ATOM     25  C   UNL     1       3.978  -0.313  -0.085  0.00  0.00    +0.264 C 
BRANCH  25  29
ATOM     26  C   UNL     1       0.209   1.697  -0.106  0.00  0.00    +0.000 A 
ATOM     27  C   UNL     1       1.372   2.411   0.119  0.00  0.00    +0.000 A 
ATOM     28  C   UNL     1       2.591   1.760   0.126  0.00  0.00    +0.007 A 
ATOM     29  C   UNL     1       2.648   0.396  -0.091  0.00  0.00    -0.010 A 
ATOM     30  C   UNL     1       1.486  -0.317  -0.315  0.00  0.00    +0.007 A 
ATOM     31  C   UNL     1       0.266   0.333  -0.323  0.00  0.00    +0.000 A 
ENDBRANCH  25  29
ENDBRANCH  24  25
ENDBRANCH  18  24
ENDBRANCH   1  21
TORSDOF 6
