REMARK  Name = ZINC10698420
REMARK  11 active torsions:
REMARK  status: ('A' for Active; 'I' for Inactive)
REMARK    1  A    between atoms: C_1  and  C_2
REMARK    2  A    between atoms: C_2  and  N_57
REMARK    3  A    between atoms: C_3  and  C_4
REMARK    4  A    between atoms: C_3  and  N_57
REMARK    5  A    between atoms: C_5  and  C_6
REMARK    6  A    between atoms: C_5  and  N_57
REMARK    7  A    between atoms: C_6  and  N_7
REMARK    8  A    between atoms: C_18  and  C_20
REMARK    9  A    between atoms: C_20  and  C_21
REMARK   10  A    between atoms: C_23  and  C_28
REMARK   11  A    between atoms: C_26  and  C_27
REMARK                            x       y       z     vdW  Elec       q    Type
REMARK                         _______ _______ _______ _____ _____    ______ ____
ROOT
ATOM      1  N   UNL     1      -0.306  -5.031   0.128  0.00  0.00    -0.252 N 
ATOM      2  C   UNL     1       0.292  -3.788   0.259  0.00  0.00    +0.168 A 
ATOM      3  N   UNL     1       1.569  -3.492   0.325  0.00  0.00    -0.223 NA
ATOM      4  C   UNL     1       2.014  -2.223   0.453  0.00  0.00    +0.099 A 
ATOM      5  C   UNL     1       1.013  -1.226   0.512  0.00  0.00    +0.042 A 
ATOM      6  S   UNL     1      -0.480  -2.181   0.380  0.00  0.00    -0.052 S 
ATOM      7  C   UNL     1       1.304   0.109   0.642  0.00  0.00    +0.017 A 
ATOM      8  C   UNL     1       2.623   0.517   0.720  0.00  0.00    +0.003 A 
ATOM      9  C   UNL     1       3.632  -0.434   0.666  0.00  0.00    +0.022 A 
ATOM     10  C   UNL     1       3.351  -1.770   0.536  0.00  0.00    +0.067 A 
ATOM     11 CL   UNL     1       4.652  -2.918   0.473  0.00  0.00    -0.081 Cl
ATOM     12  C   UNL     1       0.456  -6.141   0.052  0.00  0.00    +0.225 C 
ATOM     13  O   UNL     1      -0.067  -7.229  -0.062  0.00  0.00    -0.275 OA
ENDROOT
BRANCH   1  14
ATOM     14  C   UNL     1      -1.766  -5.140   0.073  0.00  0.00    +0.097 C 
BRANCH  14  15
ATOM     15  C   UNL     1      -2.230  -5.048  -1.382  0.00  0.00    -0.059 C 
BRANCH  15  16
ATOM     16  N   UNL     1      -3.701  -5.181  -1.423  0.00  0.00    +0.380 N 
ATOM     17  H   UNL     1      -3.975  -6.023  -0.902  0.00  0.00    -0.082 HD
BRANCH  16  19
ATOM     18  C   UNL     1      -3.946  -2.724  -1.541  0.00  0.00    -0.017 C 
ATOM     19  C   UNL     1      -4.332  -4.002  -0.794  0.00  0.00    -0.082 C 
ENDBRANCH  16  19
BRANCH  16  20
ATOM     20  C   UNL     1      -4.158  -5.312  -2.822  0.00  0.00    -0.082 C 
ATOM     21  C   UNL     1      -5.609  -5.797  -2.822  0.00  0.00    -0.017 C 
ENDBRANCH  16  20
ENDBRANCH  15  16
ENDBRANCH  14  15
ENDBRANCH   1  14
BRANCH  12  22
ATOM     22  C   UNL     1       1.958  -6.029   0.108  0.00  0.00    +0.131 C 
BRANCH  22  23
ATOM     23  C   UNL     1       2.568  -7.403   0.003  0.00  0.00    -0.035 A 
ATOM     24  C   UNL     1       2.906  -8.098   1.149  0.00  0.00    +0.007 A 
ATOM     25  C   UNL     1       3.466  -9.358   1.053  0.00  0.00    -0.050 A 
ATOM     26  C   UNL     1       3.687  -9.924  -0.189  0.00  0.00    +0.003 A 
ATOM     27  C   UNL     1       3.349  -9.228  -1.335  0.00  0.00    +0.004 A 
ATOM     28  C   UNL     1       2.784  -7.970  -1.238  0.00  0.00    -0.047 A 
ATOM     29  C   UNL     1       2.409  -7.215  -2.487  0.00  0.00    +0.044 C 
ATOM     30  C   UNL     1       3.834 -10.116   2.302  0.00  0.00    +0.044 C 
ENDBRANCH  22  23
ENDBRANCH  12  22
TORSDOF 7
