REMARK  Name = ZINC40225020
REMARK  8 active torsions:
REMARK  status: ('A' for Active; 'I' for Inactive)
REMARK    1  A    between atoms: C_1  and  O_2
REMARK    2  A    between atoms: O_2  and  C_3
REMARK    3  A    between atoms: C_6  and  C_10
REMARK    4  A    between atoms: C_10  and  C_12
REMARK    5  A    between atoms: C_10  and  N_22
REMARK    6  A    between atoms: C_12  and  C_13
REMARK    7  A    between atoms: C_13  and  C_18
REMARK    8  A    between atoms: C_18  and  C_19
REMARK                            x       y       z     vdW  Elec       q    Type
REMARK                         _______ _______ _______ _____ _____    ______ ____
ROOT
ATOM      1  C   UNL     1       2.563  -2.571   4.247  0.00  0.00    -0.043 C 
ENDROOT
BRANCH   1   5
ATOM      2  C   UNL     1       0.562  -1.083   0.776  0.00  0.00    +0.121 A 
ATOM      3  C   UNL     1       1.289  -0.219   1.583  0.00  0.00    +0.046 A 
ATOM      4  C   UNL     1       1.935  -0.703   2.704  0.00  0.00    +0.006 A 
ATOM      5  C   UNL     1       1.858  -2.046   3.023  0.00  0.00    -0.048 A 
ATOM      6  C   UNL     1       1.134  -2.909   2.220  0.00  0.00    +0.023 A 
ATOM      7  C   UNL     1       0.481  -2.429   1.100  0.00  0.00    +0.061 A 
ATOM      8 BR   UNL     1       1.032  -4.746   2.658  0.00  0.00    -0.050 Br
BRANCH   2  10
ATOM      9  C   UNL     1       0.053   0.788  -0.600  0.00  0.00    +0.277 C 
ATOM     10  O   UNL     1      -0.074  -0.609  -0.328  0.00  0.00    -0.495 OA
ENDBRANCH   2  10
ENDBRANCH   1   5
BRANCH   1  11
ATOM     11  N   UNL     1       3.615  -1.627   4.649  0.00  0.00    +0.383 N 
ATOM     12  H   UNL     1       3.192  -0.807   5.058  0.00  0.00    -0.089 HD
ATOM     13  H   UNL     1       4.221  -2.066   5.325  0.00  0.00    -0.089 HD
ATOM     14  H   UNL     1       4.153  -1.359   3.838  0.00  0.00    -0.089 HD
ENDBRANCH   1  11
BRANCH   1  15
ATOM     15  C   UNL     1       1.556  -2.728   5.388  0.00  0.00    -0.004 C 
BRANCH  15  16
ATOM     16  C   UNL     1       2.227  -3.438   6.566  0.00  0.00    -0.022 C 
ATOM     17  C   UNL     1       2.935  -4.718   6.077  0.00  0.00    +0.007 C 
ATOM     18  C   UNL     1       4.404  -4.279   5.856  0.00  0.00    +0.001 C 
ATOM     19  C   UNL     1       4.649  -3.301   7.033  0.00  0.00    +0.001 C 
ATOM     20  C   UNL     1       3.316  -2.537   7.173  0.00  0.00    +0.007 C 
BRANCH  16  21
ATOM     21  C   UNL     1       1.183  -3.788   7.629  0.00  0.00    +0.102 C 
BRANCH  21  22
ATOM     22  C   UNL     1       1.856  -4.486   8.783  0.00  0.00    +0.211 C 
ATOM     23  O   UNL     1       3.053  -4.684   8.757  0.00  0.00    -0.276 OA
ATOM     24  N   UNL     1       1.129  -4.890   9.843  0.00  0.00    -0.329 N 
ATOM     25  H   UNL     1       0.172  -4.732   9.863  0.00  0.00    +0.145 HD
ATOM     26  H   UNL     1       1.562  -5.340  10.585  0.00  0.00    +0.145 HD
ENDBRANCH  21  22
ENDBRANCH  16  21
ENDBRANCH  15  16
ENDBRANCH   1  15
TORSDOF 7
