REMARK  Name = ZINC54752531
REMARK  5 active torsions:
REMARK  status: ('A' for Active; 'I' for Inactive)
REMARK    1  A    between atoms: C_1  and  C_2
REMARK    2  A    between atoms: C_2  and  C_3
REMARK    3  A    between atoms: C_10  and  C_14
REMARK    4  A    between atoms: C_14  and  C_15
REMARK    5  A    between atoms: C_18  and  C_20
REMARK                            x       y       z     vdW  Elec       q    Type
REMARK                         _______ _______ _______ _____ _____    ______ ____
ROOT
ATOM      1  C   UNL     1      -1.412  -0.526   0.013  0.00  0.00    -0.008 A 
ATOM      2  C   UNL     1      -2.201  -0.813  -1.035  0.00  0.00    +0.026 A 
ATOM      3  C   UNL     1      -3.543  -1.309  -0.795  0.00  0.00    +0.072 A 
ATOM      4  C   UNL     1      -4.557  -1.681  -1.738  0.00  0.00    +0.260 A 
ATOM      5  O   UNL     1      -4.347  -1.600  -2.936  0.00  0.00    -0.267 OA
ATOM      6  N   UNL     1      -5.743  -2.120  -1.280  0.00  0.00    -0.310 N 
ATOM      7  H   UNL     1      -6.433  -2.373  -1.913  0.00  0.00    +0.170 HD
ATOM      8  C   UNL     1      -5.994  -2.217   0.051  0.00  0.00    +0.117 A 
ATOM      9  N   UNL     1      -5.091  -1.887   0.935  0.00  0.00    -0.226 NA
ATOM     10  C   UNL     1      -3.895  -1.444   0.560  0.00  0.00    +0.116 A 
ATOM     11  S   UNL     1      -2.435  -0.916   1.419  0.00  0.00    -0.073 S 
ENDROOT
BRANCH   1  13
ATOM     12  C   UNL     1      -0.019   1.526   0.010  0.00  0.00    +0.009 C 
ATOM     13  C   UNL     1       0.002  -0.004   0.002  0.00  0.00    +0.039 C 
ENDBRANCH   1  13
BRANCH   8  14
ATOM     14  C   UNL     1      -7.338  -2.716   0.517  0.00  0.00    +0.133 C 
BRANCH  14  15
ATOM     15  C   UNL     1      -7.372  -2.734   2.024  0.00  0.00    +0.087 A 
ATOM     16  C   UNL     1      -8.287  -2.128   2.802  0.00  0.00    +0.221 A 
ATOM     17  O   UNL     1      -7.959  -2.389   4.084  0.00  0.00    -0.443 OA
ATOM     18  C   UNL     1      -6.849  -3.149   4.076  0.00  0.00    +0.234 A 
ATOM     19  N   UNL     1      -6.499  -3.362   2.826  0.00  0.00    -0.213 NA
BRANCH  18  20
ATOM     20  C   UNL     1      -6.150  -3.662   5.263  0.00  0.00    +0.074 A 
ATOM     21  C   UNL     1      -6.463  -3.492   6.600  0.00  0.00    +0.021 A 
ATOM     22  C   UNL     1      -5.647  -4.076   7.541  0.00  0.00    +0.008 A 
ATOM     23  C   UNL     1      -4.569  -4.795   7.133  0.00  0.00    +0.046 A 
ATOM     24  S   UNL     1      -4.681  -4.671   5.356  0.00  0.00    -0.092 S 
ENDBRANCH  18  20
ENDBRANCH  14  15
ENDBRANCH   8  14
TORSDOF 4
