REMARK  Name = ZINC03442729
REMARK  9 active torsions:
REMARK  status: ('A' for Active; 'I' for Inactive)
REMARK    1  A    between atoms: C_1  and  C_2
REMARK    2  A    between atoms: C_3  and  C_16
REMARK    3  A    between atoms: N_5  and  C_7
REMARK    4  A    between atoms: C_7  and  C_8
REMARK    5  A    between atoms: C_16  and  O_18
REMARK    6  A    between atoms: O_18  and  C_19
REMARK    7  A    between atoms: C_19  and  C_21
REMARK    8  A    between atoms: C_19  and  C_27
REMARK    9  A    between atoms: C_27  and  C_29
REMARK                            x       y       z     vdW  Elec       q    Type
REMARK                         _______ _______ _______ _____ _____    ______ ____
ROOT
ATOM      1  C   UNL     1      -0.356   4.674   6.898  0.00  0.00    +0.277 C 
ENDROOT
BRANCH   1   2
ATOM      2  C   UNL     1      -1.852   4.542   6.776  0.00  0.00    +0.000 A 
ATOM      3  C   UNL     1      -2.400   3.439   6.148  0.00  0.00    +0.008 A 
ATOM      4  C   UNL     1      -3.773   3.316   6.040  0.00  0.00    +0.000 A 
ATOM      5  C   UNL     1      -4.597   4.301   6.551  0.00  0.00    +0.000 A 
ATOM      6  C   UNL     1      -4.049   5.406   7.174  0.00  0.00    +0.000 A 
ATOM      7  C   UNL     1      -2.677   5.527   7.287  0.00  0.00    +0.008 A 
ENDBRANCH   1   2
BRANCH   1   8
ATOM      8  C   UNL     1       0.130   3.832   8.049  0.00  0.00    +0.210 C 
ATOM      9  O   UNL     1       0.702   2.783   7.835  0.00  0.00    -0.288 OA
BRANCH   8  10
ATOM     10  C   UNL     1      -0.081   4.264   9.382  0.00  0.00    +0.047 A 
ATOM     11  C   UNL     1      -0.704   5.425   9.787  0.00  0.00    +0.095 A 
ATOM     12  N   UNL     1      -0.716   5.487  11.133  0.00  0.00    -0.360 N 
ATOM     13  H   UNL     1      -1.103   6.211  11.648  0.00  0.00    +0.165 HD
ATOM     14  C   UNL     1      -0.097   4.380  11.677  0.00  0.00    +0.047 A 
ATOM     15  C   UNL     1       0.328   3.565  10.617  0.00  0.00    +0.010 A 
ATOM     16  C   UNL     1       0.990   2.369  10.876  0.00  0.00    +0.011 A 
ATOM     17  C   UNL     1       1.225   1.987  12.179  0.00  0.00    +0.001 A 
ATOM     18  C   UNL     1       0.806   2.791  13.229  0.00  0.00    +0.002 A 
ATOM     19  C   UNL     1       0.150   3.978  12.986  0.00  0.00    +0.026 A 
ENDBRANCH   8  10
ENDBRANCH   1   8
BRANCH   1  20
ATOM     20  O   UNL     1       0.272   4.222   5.669  0.00  0.00    -0.445 OA
BRANCH  20  21
ATOM     21  C   UNL     1       0.474   5.147   4.710  0.00  0.00    +0.345 C 
ATOM     22  O   UNL     1       0.135   6.300   4.895  0.00  0.00    -0.245 OA
BRANCH  21  25
ATOM     23  C   UNL     1       3.588   5.182   4.097  0.00  0.00    +0.068 C 
ATOM     24  C   UNL     1       2.490   4.772   3.150  0.00  0.00    +0.075 A 
ATOM     25  C   UNL     1       1.105   4.762   3.438  0.00  0.00    +0.118 A 
ATOM     26  C   UNL     1       0.456   4.326   2.296  0.00  0.00    +0.142 A 
ATOM     27  N   UNL     1       1.396   4.077   1.370  0.00  0.00    -0.248 N 
ATOM     28  N   UNL     1       2.650   4.364   1.921  0.00  0.00    -0.174 NA
ATOM     29 CL   UNL     1      -1.258   4.133   2.099  0.00  0.00    -0.061 Cl
BRANCH  27  30
ATOM     30  C   UNL     1       1.150   3.592   0.010  0.00  0.00    +0.181 C 
BRANCH  30  31
ATOM     31  C   UNL     1       1.171   2.086   0.002  0.00  0.00    -0.008 A 
ATOM     32  C   UNL     1      -0.017   1.378   0.010  0.00  0.00    +0.007 A 
ATOM     33  C   UNL     1       0.002  -0.004   0.002  0.00  0.00    +0.000 A 
ATOM     34  C   UNL     1       1.208  -0.680  -0.013  0.00  0.00    +0.001 A 
ATOM     35  C   UNL     1       2.396   0.027  -0.021  0.00  0.00    +0.020 A 
ATOM     36  C   UNL     1       2.378   1.410  -0.013  0.00  0.00    +0.046 A 
ATOM     37 CL   UNL     1       3.870   2.298  -0.023  0.00  0.00    -0.083 Cl
ENDBRANCH  30  31
ENDBRANCH  27  30
ENDBRANCH  21  25
ENDBRANCH  20  21
ENDBRANCH   1  20
TORSDOF 8
