REMARK  Name = ZINC43632876
REMARK  6 active torsions:
REMARK  status: ('A' for Active; 'I' for Inactive)
REMARK    1  A    between atoms: C_4  and  C_7
REMARK    2  A    between atoms: C_7  and  O_41
REMARK    3  A    between atoms: N_10  and  C_19
REMARK    4  A    between atoms: C_19  and  C_20
REMARK    5  A    between atoms: C_23  and  C_28
REMARK    6  A    between atoms: N_30  and  C_31
REMARK                            x       y       z     vdW  Elec       q    Type
REMARK                         _______ _______ _______ _____ _____    ______ ____
ROOT
ATOM      1  C   UNL     1       6.824  -4.136   2.174  0.00  0.00    +0.003 A 
ATOM      2  C   UNL     1       7.935  -3.550   2.689  0.00  0.00    +0.020 A 
ATOM      3  C   UNL     1       8.298  -3.782   4.015  0.00  0.00    +0.020 A 
ATOM      4  C   UNL     1       7.503  -4.620   4.795  0.00  0.00    +0.101 A 
ATOM      5  C   UNL     1       6.351  -5.208   4.212  0.00  0.00    +0.261 A 
ATOM      6  O   UNL     1       5.640  -5.945   4.873  0.00  0.00    -0.267 OA
ATOM      7  N   UNL     1       6.044  -4.947   2.928  0.00  0.00    -0.327 N 
ATOM      8  H   UNL     1       5.253  -5.349   2.535  0.00  0.00    +0.169 HD
ENDROOT
BRANCH   4   9
ATOM      9  C   UNL     1       7.853  -4.890   6.198  0.00  0.00    +0.250 C 
ATOM     10  O   UNL     1       8.781  -4.300   6.718  0.00  0.00    -0.270 OA
ATOM     11  N   UNL     1       7.145  -5.791   6.908  0.00  0.00    -0.306 N 
ATOM     12  H   UNL     1       6.361  -6.208   6.517  0.00  0.00    +0.150 HD
BRANCH  11  13
ATOM     13  C   UNL     1       7.559  -6.139   8.269  0.00  0.00    +0.036 C 
ATOM     14  C   UNL     1       7.543  -4.885   9.144  0.00  0.00    +0.029 C 
ATOM     15  C   UNL     1       7.975  -5.249  10.566  0.00  0.00    -0.008 C 
ATOM     16  C   UNL     1       7.008  -6.285  11.143  0.00  0.00    +0.007 C 
ATOM     17  C   UNL     1       7.024  -7.540  10.268  0.00  0.00    -0.008 C 
ATOM     18  C   UNL     1       6.592  -7.176   8.846  0.00  0.00    +0.029 C 
ATOM     19  C   UNL     1       8.439  -8.123  10.238  0.00  0.00    +0.007 C 
ATOM     20  C   UNL     1       9.405  -7.086   9.661  0.00  0.00    -0.008 C 
ATOM     21  C   UNL     1       9.389  -5.831  10.536  0.00  0.00    +0.007 C 
ATOM     22  C   UNL     1       8.973  -6.722   8.239  0.00  0.00    +0.029 C 
ENDBRANCH  11  13
ENDBRANCH   4   9
BRANCH   1  23
ATOM     23  C   UNL     1       6.447  -3.874   0.738  0.00  0.00    -0.024 C 
BRANCH  23  27
ATOM     24  C   UNL     1       3.496  -0.916  -0.098  0.00  0.00    +0.091 C 
ATOM     25  C   UNL     1       4.008  -1.085   1.335  0.00  0.00    +0.021 C 
ATOM     26  C   UNL     1       5.349  -1.821   1.309  0.00  0.00    -0.075 C 
ATOM     27  N   UNL     1       5.175  -3.141   0.691  0.00  0.00    +0.386 N 
ATOM     28  C   UNL     1       4.753  -2.986  -0.706  0.00  0.00    -0.062 C 
ATOM     29  C   UNL     1       3.388  -2.295  -0.756  0.00  0.00    +0.012 C 
ATOM     30  C   UNL     1       2.954  -2.130  -2.214  0.00  0.00    +0.005 C 
ATOM     31  C   UNL     1       2.853  -3.506  -2.874  0.00  0.00    +0.000 C 
ATOM     32  C   UNL     1       4.216  -4.198  -2.824  0.00  0.00    -0.002 C 
ATOM     33  C   UNL     1       4.651  -4.362  -1.366  0.00  0.00    -0.015 C 
ATOM     34  H   UNL     1       4.473  -3.658   1.198  0.00  0.00    -0.081 HD
BRANCH  24  38
ATOM     35  C   UNL     1      -0.352   0.938  -0.034  0.00  0.00    +0.000 A 
ATOM     36  C   UNL     1       0.789   1.715  -0.110  0.00  0.00    +0.000 A 
ATOM     37  C   UNL     1       2.034   1.115  -0.131  0.00  0.00    +0.006 A 
ATOM     38  C   UNL     1       2.138  -0.262  -0.074  0.00  0.00    -0.016 A 
ATOM     39  C   UNL     1       0.998  -1.039   0.003  0.00  0.00    +0.006 A 
ATOM     40  C   UNL     1      -0.247  -0.439   0.022  0.00  0.00    +0.000 A 
ENDBRANCH  24  38
BRANCH  24  41
ATOM     41  O   UNL     1       4.406  -0.102  -0.840  0.00  0.00    -0.384 OA
ATOM     42  H   UNL     1       4.524   0.786  -0.477  0.00  0.00    +0.211 HD
ENDBRANCH  24  41
ENDBRANCH  23  27
ENDBRANCH   1  23
TORSDOF 6
