REMARK  Name = ZINC10548010
REMARK  9 active torsions:
REMARK  status: ('A' for Active; 'I' for Inactive)
REMARK    1  A    between atoms: C_1  and  C_2
REMARK    2  A    between atoms: C_7  and  C_28
REMARK    3  A    between atoms: C_8  and  C_11
REMARK    4  A    between atoms: C_11  and  S_12
REMARK    5  A    between atoms: S_12  and  C_13
REMARK    6  A    between atoms: C_16  and  C_19
REMARK    7  A    between atoms: N_17  and  N_18
REMARK    8  A    between atoms: C_19  and  O_20
REMARK    9  A    between atoms: O_20  and  C_21
REMARK                            x       y       z     vdW  Elec       q    Type
REMARK                         _______ _______ _______ _____ _____    ______ ____
ROOT
ATOM      1  S   UNL     1      -3.178   1.487   0.433  0.00  0.00    -0.078 S 
ENDROOT
BRANCH   1   2
ATOM      2  C   UNL     1      -1.991   1.655  -0.859  0.00  0.00    +0.209 A 
ATOM      3  N   UNL     1      -2.218   2.095  -2.074  0.00  0.00    -0.121 NA
ATOM      4  N   UNL     1      -1.126   2.084  -2.753  0.00  0.00    -0.128 NA
ATOM      5  C   UNL     1      -0.146   1.644  -2.016  0.00  0.00    +0.189 A 
ATOM      6  N   UNL     1      -0.662   1.350  -0.784  0.00  0.00    -0.225 N 
BRANCH   6   7
ATOM      7  N   UNL     1       0.012   0.859   0.297  0.00  0.00    -0.295 N 
ATOM      8  H   UNL     1       0.006  -0.150   0.300  0.00  0.00    +0.163 HD
ATOM      9  H   UNL     1       0.956   1.215   0.326  0.00  0.00    +0.163 HD
ENDBRANCH   6   7
BRANCH   5  10
ATOM     10  C   UNL     1       1.291   1.487  -2.443  0.00  0.00    +0.306 C 
BRANCH  10  11
ATOM     11  O   UNL     1       1.486   0.180  -2.986  0.00  0.00    -0.481 OA
BRANCH  11  12
ATOM     12  C   UNL     1       2.737  -0.127  -3.422  0.00  0.00    +0.156 A 
ATOM     13  C   UNL     1       3.753   0.812  -3.333  0.00  0.00    +0.048 A 
ATOM     14  C   UNL     1       5.025   0.496  -3.772  0.00  0.00    +0.004 A 
ATOM     15  C   UNL     1       5.283  -0.751  -4.310  0.00  0.00    +0.003 A 
ATOM     16  C   UNL     1       4.271  -1.689  -4.405  0.00  0.00    +0.042 A 
ATOM     17  C   UNL     1       2.998  -1.380  -3.962  0.00  0.00    +0.165 A 
ATOM     18  F   UNL     1       2.008  -2.296  -4.055  0.00  0.00    -0.202 F 
ENDBRANCH  11  12
ENDBRANCH  10  11
ENDBRANCH   5  10
ENDBRANCH   1   2
BRANCH   1  19
ATOM     19  C   UNL     1      -4.660   2.077  -0.423  0.00  0.00    +0.133 C 
BRANCH  19  27
ATOM     20  C   UNL     1      -5.588   6.278   3.071  0.00  0.00    +0.045 C 
ATOM     21  C   UNL     1      -6.206   4.949   2.719  0.00  0.00    -0.034 A 
ATOM     22  C   UNL     1      -7.360   4.514   3.392  0.00  0.00    +0.008 A 
ATOM     23  C   UNL     1      -7.914   3.314   3.073  0.00  0.00    +0.047 A 
ATOM     24  C   UNL     1      -7.320   2.523   2.067  0.00  0.00    +0.138 A 
ATOM     25  N   UNL     1      -7.639   1.341   1.563  0.00  0.00    -0.228 NA
ATOM     26  C   UNL     1      -6.751   1.016   0.609  0.00  0.00    +0.094 A 
ATOM     27  C   UNL     1      -5.837   2.022   0.515  0.00  0.00    +0.061 A 
ATOM     28  N   UNL     1      -6.193   2.974   1.429  0.00  0.00    -0.302 N 
ATOM     29  C   UNL     1      -5.647   4.181   1.760  0.00  0.00    +0.096 A 
BRANCH  26  30
ATOM     30  C   UNL     1      -6.762  -0.227  -0.201  0.00  0.00    +0.002 A 
ATOM     31  C   UNL     1      -7.962  -0.723  -0.706  0.00  0.00    +0.010 A 
ATOM     32  C   UNL     1      -7.966  -1.877  -1.462  0.00  0.00    +0.001 A 
ATOM     33  C   UNL     1      -6.782  -2.547  -1.711  0.00  0.00    +0.000 A 
ATOM     34  C   UNL     1      -5.588  -2.062  -1.208  0.00  0.00    +0.001 A 
ATOM     35  C   UNL     1      -5.572  -0.906  -0.455  0.00  0.00    +0.010 A 
ENDBRANCH  26  30
ENDBRANCH  19  27
ENDBRANCH   1  19
TORSDOF 8
