REMARK  Name = ZINC36740896
REMARK  14 active torsions:
REMARK  status: ('A' for Active; 'I' for Inactive)
REMARK    1  A    between atoms: C_1  and  C_2
REMARK    2  A    between atoms: C_2  and  N_3
REMARK    3  A    between atoms: N_3  and  C_4
REMARK    4  A    between atoms: N_3  and  C_6
REMARK    5  A    between atoms: C_4  and  C_5
REMARK    6  A    between atoms: C_9  and  C_12
REMARK    7  A    between atoms: C_15  and  S_18
REMARK    8  A    between atoms: N_16  and  C_17
REMARK    9  A    between atoms: S_18  and  C_19
REMARK   10  A    between atoms: C_19  and  C_20
REMARK   11  A    between atoms: N_22  and  C_23
REMARK   12  A    between atoms: C_25  and  C_35
REMARK   13  A    between atoms: N_27  and  C_28
REMARK   14  A    between atoms: C_31  and  C_34
REMARK                            x       y       z     vdW  Elec       q    Type
REMARK                         _______ _______ _______ _____ _____    ______ ____
ROOT
ATOM      1  S   UNL     1       9.914  -1.296   2.398  0.00  0.00    -0.077 S 
ENDROOT
BRANCH   1   5
ATOM      2  C   UNL     1       6.273  -1.570   1.007  0.00  0.00    +0.165 A 
ATOM      3  N   UNL     1       7.004  -1.639  -0.082  0.00  0.00    -0.128 NA
ATOM      4  N   UNL     1       8.251  -1.561   0.221  0.00  0.00    -0.122 NA
ATOM      5  C   UNL     1       8.393  -1.437   1.522  0.00  0.00    +0.192 A 
ATOM      6  N   UNL     1       7.140  -1.433   2.067  0.00  0.00    -0.305 N 
ATOM      7  C   UNL     1       6.791  -1.311   3.485  0.00  0.00    +0.153 C 
BRANCH   2  11
ATOM      8  C   UNL     1       2.032  -1.720   1.214  0.00  0.00    +0.030 A 
ATOM      9  C   UNL     1       2.792  -2.013   2.341  0.00  0.00    +0.024 A 
ATOM     10  C   UNL     1       4.168  -1.965   2.277  0.00  0.00    +0.013 A 
ATOM     11  C   UNL     1       4.798  -1.623   1.079  0.00  0.00    +0.019 A 
ATOM     12  C   UNL     1       4.032  -1.329  -0.051  0.00  0.00    +0.013 A 
ATOM     13  C   UNL     1       2.656  -1.384   0.018  0.00  0.00    +0.024 A 
BRANCH   8  14
ATOM     14  N   UNL     1       0.639  -1.770   1.282  0.00  0.00    -0.330 N 
BRANCH  14  16
ATOM     15  C   UNL     1      -0.220  -3.639   2.605  0.00  0.00    +0.024 C 
ATOM     16  C   UNL     1      -0.021  -2.123   2.542  0.00  0.00    +0.102 C 
ENDBRANCH  14  16
BRANCH  14  17
ATOM     17  C   UNL     1      -0.164  -1.468   0.095  0.00  0.00    +0.102 C 
ATOM     18  C   UNL     1      -0.474   0.030   0.056  0.00  0.00    +0.024 C 
ENDBRANCH  14  17
ENDBRANCH   8  14
ENDBRANCH   2  11
ENDBRANCH   1   5
BRANCH   1  19
ATOM     19  C   UNL     1      11.178  -1.362   1.098  0.00  0.00    +0.173 C 
BRANCH  19  20
ATOM     20  C   UNL     1      12.545  -1.249   1.721  0.00  0.00    +0.229 C 
ATOM     21  O   UNL     1      12.657  -1.136   2.923  0.00  0.00    -0.275 OA
ATOM     22  N   UNL     1      13.645  -1.275   0.941  0.00  0.00    -0.270 N 
ATOM     23  H   UNL     1      13.555  -1.366  -0.020  0.00  0.00    +0.156 HD
BRANCH  22  24
ATOM     24  C   UNL     1      14.910  -1.171   1.517  0.00  0.00    +0.129 A 
ATOM     25  C   UNL     1      15.183  -1.046   2.845  0.00  0.00    +0.068 A 
ATOM     26  C   UNL     1      16.571  -0.973   2.993  0.00  0.00    +0.062 A 
ATOM     27  N   UNL     1      17.119  -1.051   1.807  0.00  0.00    -0.170 NA
ATOM     28  N   UNL     1      16.100  -1.182   0.856  0.00  0.00    -0.218 N 
ATOM     29  C   UNL     1      17.311  -0.830   4.297  0.00  0.00    +0.067 C 
BRANCH  28  30
ATOM     30  C   UNL     1      16.273  -1.301  -0.530  0.00  0.00    +0.067 A 
ATOM     31  C   UNL     1      15.408  -2.092  -1.274  0.00  0.00    +0.028 A 
ATOM     32  C   UNL     1      15.581  -2.207  -2.640  0.00  0.00    +0.005 A 
ATOM     33  C   UNL     1      16.615  -1.535  -3.266  0.00  0.00    -0.050 A 
ATOM     34  C   UNL     1      17.478  -0.747  -2.527  0.00  0.00    +0.005 A 
ATOM     35  C   UNL     1      17.307  -0.623  -1.163  0.00  0.00    +0.028 A 
ATOM     36  C   UNL     1      16.801  -1.663  -4.756  0.00  0.00    +0.044 C 
ENDBRANCH  28  30
ENDBRANCH  22  24
ENDBRANCH  19  20
ENDBRANCH   1  19
TORSDOF 9
