REMARK  Name = ZINC36501847
REMARK  14 active torsions:
REMARK  status: ('A' for Active; 'I' for Inactive)
REMARK    1  A    between atoms: C_1  and  C_2
REMARK    2  A    between atoms: C_2  and  C_4
REMARK    3  A    between atoms: C_2  and  C_32
REMARK    4  A    between atoms: C_4  and  C_5
REMARK    5  A    between atoms: N_7  and  C_8
REMARK    6  A    between atoms: N_7  and  C_14
REMARK    7  A    between atoms: C_8  and  C_9
REMARK    8  A    between atoms: C_14  and  C_16
REMARK    9  A    between atoms: C_14  and  C_25
REMARK   10  A    between atoms: C_19  and  N_22
REMARK   11  A    between atoms: N_27  and  C_28
REMARK   12  A    between atoms: C_28  and  C_29
REMARK   13  A    between atoms: C_28  and  C_30
REMARK   14  A    between atoms: C_28  and  C_31
REMARK                            x       y       z     vdW  Elec       q    Type
REMARK                         _______ _______ _______ _____ _____    ______ ____
ROOT
ATOM      1  C   UNL     1      -0.019  -0.473   1.277  0.00  0.00    +0.217 C 
ATOM      2  O   UNL     1      -0.280   0.574   0.723  0.00  0.00    -0.276 OA
ATOM      3  N   UNL     1       0.146  -0.504   2.615  0.00  0.00    -0.279 N 
ENDROOT
BRANCH   1   4
ATOM      4  C   UNL     1       0.119  -1.738   0.471  0.00  0.00    +0.104 C 
BRANCH   4   6
ATOM      5  C   UNL     1       0.991  -0.502  -1.517  0.00  0.00    +0.013 C 
ATOM      6  C   UNL     1      -0.115  -1.429  -1.009  0.00  0.00    +0.025 C 
BRANCH   6   7
ATOM      7  C   UNL     1      -0.098  -2.711  -1.799  0.00  0.00    -0.044 A 
ATOM      8  C   UNL     1       1.029  -3.511  -1.795  0.00  0.00    +0.004 A 
ATOM      9  C   UNL     1       1.044  -4.688  -2.521  0.00  0.00    +0.000 A 
ATOM     10  C   UNL     1      -0.068  -5.065  -3.249  0.00  0.00    +0.000 A 
ATOM     11  C   UNL     1      -1.196  -4.266  -3.253  0.00  0.00    +0.000 A 
ATOM     12  C   UNL     1      -1.213  -3.091  -2.524  0.00  0.00    +0.004 A 
ENDBRANCH   6   7
ENDBRANCH   4   6
ENDBRANCH   1   4
BRANCH   3  13
ATOM     13  C   UNL     1       0.461  -1.769   3.284  0.00  0.00    +0.183 C 
BRANCH  13  14
ATOM     14  C   UNL     1       1.938  -2.046   3.167  0.00  0.00    +0.122 A 
ATOM     15  C   UNL     1       2.739  -2.474   4.159  0.00  0.00    +0.046 A 
ATOM     16  C   UNL     1       4.036  -2.600   3.612  0.00  0.00    +0.041 A 
ATOM     17  C   UNL     1       3.950  -2.241   2.318  0.00  0.00    +0.195 A 
ATOM     18  O   UNL     1       2.676  -1.911   2.053  0.00  0.00    -0.466 OA
ENDBRANCH  13  14
ENDBRANCH   3  13
BRANCH   3  19
ATOM     19  C   UNL     1       0.012   0.726   3.398  0.00  0.00    +0.193 C 
BRANCH  19  20
ATOM     20  C   UNL     1      -1.312   0.721   4.118  0.00  0.00    -0.018 A 
ATOM     21  C   UNL     1      -1.795  -0.452   4.668  0.00  0.00    +0.008 A 
ATOM     22  C   UNL     1      -3.010  -0.457   5.328  0.00  0.00    +0.033 A 
ATOM     23  C   UNL     1      -3.741   0.711   5.439  0.00  0.00    +0.126 A 
ATOM     24  C   UNL     1      -3.257   1.884   4.891  0.00  0.00    +0.033 A 
ATOM     25  C   UNL     1      -2.041   1.890   4.234  0.00  0.00    +0.008 A 
BRANCH  23  26
ATOM     26  N   UNL     1      -5.042   0.706   6.146  0.00  0.00    +0.056 N 
ATOM     27  O   UNL     1      -5.465  -0.320   6.625  0.00  0.00    -0.126 OA
ATOM     28  O   UNL     1      -5.681   1.727   6.243  0.00  0.00    -0.126 OA
ENDBRANCH  23  26
ENDBRANCH  19  20
BRANCH  19  29
ATOM     29  C   UNL     1       1.131   0.805   4.405  0.00  0.00    +0.238 C 
ATOM     30  O   UNL     1       2.232   0.386   4.121  0.00  0.00    -0.273 OA
ATOM     31  N   UNL     1       0.907   1.343   5.620  0.00  0.00    -0.309 N 
ATOM     32  H   UNL     1       0.009   1.607   5.876  0.00  0.00    +0.149 HD
BRANCH  31  33
ATOM     33  C   UNL     1       2.019   1.528   6.556  0.00  0.00    +0.026 C 
ATOM     34  C   UNL     1       3.111   2.366   5.890  0.00  0.00    +0.031 C 
ATOM     35  C   UNL     1       1.517   2.247   7.809  0.00  0.00    +0.031 C 
ATOM     36  C   UNL     1       2.590   0.163   6.945  0.00  0.00    +0.031 C 
ENDBRANCH  31  33
ENDBRANCH  19  29
ENDBRANCH   3  19
TORSDOF 10
