REMARK  Name = ZINC06933331
REMARK  5 active torsions:
REMARK  status: ('A' for Active; 'I' for Inactive)
REMARK    1  A    between atoms: C_1  and  C_2
REMARK    2  A    between atoms: C_3  and  C_18
REMARK    3  A    between atoms: C_4  and  N_12
REMARK    4  A    between atoms: N_5  and  C_11
REMARK    5  A    between atoms: C_8  and  C_9
REMARK                            x       y       z     vdW  Elec       q    Type
REMARK                         _______ _______ _______ _____ _____    ______ ____
ROOT
ATOM      1  C   UNL     1       2.543   4.007  -0.297  0.00  0.00    +0.046 C 
ATOM      2  C   UNL     1       1.233   3.279  -0.136  0.00  0.00    -0.014 A 
ATOM      3  C   UNL     1       0.019   3.988  -0.112  0.00  0.00    +0.057 A 
ATOM      4  C   UNL     1      -1.194   3.298   0.038  0.00  0.00    +0.115 A 
ATOM      5  N   UNL     1      -1.222   1.947   0.156  0.00  0.00    -0.298 N 
ATOM      6  C   UNL     1      -0.086   1.224   0.145  0.00  0.00    +0.270 A 
ATOM      7  O   UNL     1      -0.135   0.012   0.257  0.00  0.00    -0.266 OA
ATOM      8  C   UNL     1       1.205   1.894  -0.009  0.00  0.00    +0.120 A 
ATOM      9  C   UNL     1      -2.509   1.264   0.306  0.00  0.00    +0.154 C 
ENDROOT
BRANCH   4  10
ATOM     10  N   UNL     1      -2.363   3.996   0.059  0.00  0.00    -0.314 N 
ATOM     11  C   UNL     1      -2.610   4.646  -1.230  0.00  0.00    +0.117 C 
ATOM     12  C   UNL     1      -4.092   5.024  -1.346  0.00  0.00    +0.088 C 
ATOM     13  S   UNL     1      -4.489   6.199  -0.014  0.00  0.00    -0.158 S 
ATOM     14  C   UNL     1      -3.836   5.365   1.465  0.00  0.00    +0.088 C 
ATOM     15  C   UNL     1      -2.391   4.938   1.181  0.00  0.00    +0.117 C 
ENDBRANCH   4  10
BRANCH   8  16
ATOM     16  C   UNL     1       2.421   1.137  -0.029  0.00  0.00    +0.105 C 
ATOM     17  N   UNL     1       3.385   0.537  -0.044  0.00  0.00    -0.191 NA
ENDBRANCH   8  16
BRANCH   3  18
ATOM     18  C   UNL     1       0.020   5.444  -0.243  0.00  0.00    +0.262 C 
ATOM     19  O   UNL     1       1.071   6.049  -0.276  0.00  0.00    -0.296 OA
ENDBRANCH   3  18
TORSDOF 3
