REMARK  Name = ZINC03870336
REMARK  7 active torsions:
REMARK  status: ('A' for Active; 'I' for Inactive)
REMARK    1  A    between atoms: C_2  and  C_10
REMARK    2  A    between atoms: C_4  and  O_9
REMARK    3  A    between atoms: C_5  and  O_8
REMARK    4  A    between atoms: C_6  and  O_7
REMARK    5  A    between atoms: C_12  and  O_24
REMARK    6  A    between atoms: C_16  and  O_23
REMARK    7  A    between atoms: C_18  and  O_22
REMARK                            x       y       z     vdW  Elec       q    Type
REMARK                         _______ _______ _______ _____ _____    ______ ____
ROOT
ATOM      1  C   UNL     1       1.145   3.598   0.011  0.00  0.00    +0.232 C 
ATOM      2  C   UNL     1       1.261   4.125  -1.426  0.00  0.00    +0.164 C 
ATOM      3  C   UNL     1       1.121   5.649  -1.391  0.00  0.00    +0.078 C 
ATOM      4  C   UNL     1       2.019   6.217  -0.321  0.00  0.00    +0.038 A 
ATOM      5  C   UNL     1       2.335   7.571  -0.364  0.00  0.00    +0.127 A 
ATOM      6  C   UNL     1       3.154   8.127   0.605  0.00  0.00    +0.091 A 
ATOM      7  C   UNL     1       3.660   7.332   1.622  0.00  0.00    +0.124 A 
ATOM      8  C   UNL     1       3.346   5.984   1.665  0.00  0.00    +0.091 A 
ATOM      9  C   UNL     1       2.526   5.423   0.691  0.00  0.00    +0.132 A 
ATOM     10  O   UNL     1       2.252   4.094   0.764  0.00  0.00    -0.481 OA
ENDROOT
BRANCH   1  12
ATOM     11  C   UNL     1      -0.017   1.382   0.010  0.00  0.00    +0.056 A 
ATOM     12  C   UNL     1       1.170   2.092   0.002  0.00  0.00    +0.002 A 
ATOM     13  C   UNL     1       2.379   1.423  -0.013  0.00  0.00    +0.056 A 
ATOM     14  C   UNL     1       2.407   0.036  -0.022  0.00  0.00    +0.162 A 
ATOM     15  C   UNL     1       1.216  -0.681  -0.014  0.00  0.00    +0.201 A 
ATOM     16  C   UNL     1       0.002  -0.004   0.002  0.00  0.00    +0.162 A 
BRANCH  16  17
ATOM     17  O   UNL     1      -1.166  -0.701   0.010  0.00  0.00    -0.503 OA
ATOM     18  H   UNL     1      -1.512  -0.898  -0.871  0.00  0.00    +0.292 HD
ENDBRANCH  16  17
BRANCH  15  19
ATOM     19  O   UNL     1       1.239  -2.041  -0.022  0.00  0.00    -0.501 OA
ATOM     20  H   UNL     1       1.254  -2.440   0.859  0.00  0.00    +0.292 HD
ENDBRANCH  15  19
BRANCH  14  21
ATOM     21  O   UNL     1       3.597  -0.621  -0.038  0.00  0.00    -0.503 OA
ATOM     22  H   UNL     1       3.951  -0.816   0.841  0.00  0.00    +0.292 HD
ENDBRANCH  14  21
ENDBRANCH   1  12
BRANCH   7  23
ATOM     23  O   UNL     1       4.462   7.875   2.575  0.00  0.00    -0.507 OA
ATOM     24  H   UNL     1       3.985   8.212   3.345  0.00  0.00    +0.292 HD
ENDBRANCH   7  23
BRANCH   5  25
ATOM     25  O   UNL     1       1.839   8.350  -1.360  0.00  0.00    -0.506 OA
ATOM     26  H   UNL     1       0.986   8.757  -1.154  0.00  0.00    +0.292 HD
ENDBRANCH   5  25
BRANCH   2  27
ATOM     27  O   UNL     1       2.535   3.769  -1.967  0.00  0.00    -0.387 OA
ATOM     28  H   UNL     1       2.675   4.072  -2.875  0.00  0.00    +0.210 HD
ENDBRANCH   2  27
TORSDOF 7
