REMARK  Name = ZINC14159766
REMARK  8 active torsions:
REMARK  status: ('A' for Active; 'I' for Inactive)
REMARK    1  A    between atoms: C_1  and  C_2
REMARK    2  A    between atoms: C_6  and  N_9
REMARK    3  A    between atoms: C_7  and  C_8
REMARK    4  A    between atoms: N_9  and  C_10
REMARK    5  A    between atoms: C_10  and  N_12
REMARK    6  A    between atoms: N_14  and  C_15
REMARK    7  A    between atoms: C_17  and  C_22
REMARK    8  A    between atoms: C_19  and  C_21
REMARK                            x       y       z     vdW  Elec       q    Type
REMARK                         _______ _______ _______ _____ _____    ______ ____
ROOT
ATOM      1  N   UNL     1      -0.108  -4.701   3.558  0.00  0.00    -0.269 N 
ATOM      2  C   UNL     1      -0.238  -6.067   3.635  0.00  0.00    +0.192 C 
ATOM      3  N   UNL     1      -0.159  -6.799   2.544  0.00  0.00    -0.181 NA
ATOM      4  N   UNL     1      -0.449  -6.667   4.847  0.00  0.00    -0.300 N 
ATOM      5  C   UNL     1       0.683  -7.014   5.717  0.00  0.00    +0.126 C 
ATOM      6  C   UNL     1       0.465  -6.362   7.089  0.00  0.00    +0.125 C 
ATOM      7  N   UNL     1      -0.899  -6.671   7.543  0.00  0.00    -0.314 N 
ATOM      8  C   UNL     1      -2.031  -6.324   6.673  0.00  0.00    +0.125 C 
ATOM      9  C   UNL     1      -1.813  -6.970   5.304  0.00  0.00    +0.126 C 
ATOM     10  C   UNL     1      -1.113  -7.280   8.774  0.00  0.00    +0.099 A 
ATOM     11  C   UNL     1      -0.044  -7.476   9.642  0.00  0.00    +0.042 A 
ATOM     12  C   UNL     1      -0.272  -8.083  10.863  0.00  0.00    +0.005 A 
ATOM     13  C   UNL     1      -1.567  -8.475  11.178  0.00  0.00    +0.018 A 
ATOM     14  C   UNL     1      -2.580  -8.249  10.269  0.00  0.00    +0.084 A 
ATOM     15  N   UNL     1      -2.335  -7.662   9.112  0.00  0.00    -0.350 N 
ATOM     16  H   UNL     1      -3.066  -7.512   8.493  0.00  0.00    +0.166 HD
ATOM     17  H   UNL     1      -0.087  -4.169   4.368  0.00  0.00    +0.156 HD
ENDROOT
BRANCH   3  18
ATOM     18  C   UNL     1      -0.167  -8.157   2.633  0.00  0.00    +0.253 A 
ATOM     19  N   UNL     1      -0.364  -8.730   3.817  0.00  0.00    -0.216 NA
ATOM     20  C   UNL     1      -0.378 -10.047   3.936  0.00  0.00    +0.044 A 
ATOM     21  C   UNL     1      -0.184 -10.831   2.808  0.00  0.00    +0.046 A 
ATOM     22  C   UNL     1       0.019 -10.203   1.589  0.00  0.00    +0.044 A 
ATOM     23  N   UNL     1       0.017  -8.882   1.533  0.00  0.00    -0.216 NA
ATOM     24  C   UNL     1       0.234 -11.017   0.339  0.00  0.00    +0.066 C 
ATOM     25  C   UNL     1      -0.602 -10.688   5.281  0.00  0.00    +0.066 C 
ENDBRANCH   3  18
BRANCH   1  26
ATOM     26  C   UNL     1      -0.010  -4.101   2.355  0.00  0.00    +0.141 C 
ATOM     27  S   UNL     1      -0.048  -5.040   0.924  0.00  0.00    -0.018 S 
BRANCH  26  28
ATOM     28  N   UNL     1       0.117  -2.761   2.279  0.00  0.00    -0.296 N 
ATOM     29  H   UNL     1       0.180  -2.233   3.090  0.00  0.00    +0.154 HD
BRANCH  28  35
ATOM     30  C   UNL     1       1.987   0.718  -0.647  0.00  0.00    +0.044 C 
ATOM     31  C   UNL     1       1.055  -0.443  -0.416  0.00  0.00    -0.046 A 
ATOM     32  C   UNL     1       0.238  -0.888  -1.440  0.00  0.00    +0.004 A 
ATOM     33  C   UNL     1      -0.618  -1.953  -1.232  0.00  0.00    +0.002 A 
ATOM     34  C   UNL     1      -0.661  -2.576   0.000  0.00  0.00    +0.023 A 
ATOM     35  C   UNL     1       0.158  -2.132   1.030  0.00  0.00    +0.036 A 
ATOM     36  C   UNL     1       1.021  -1.065   0.816  0.00  0.00    -0.026 A 
ATOM     37  C   UNL     1       1.915  -0.583   1.929  0.00  0.00    +0.046 C 
ENDBRANCH  28  35
ENDBRANCH  26  28
ENDBRANCH   1  26
TORSDOF 4
