REMARK  Name = ZINC67335223
REMARK  12 active torsions:
REMARK  status: ('A' for Active; 'I' for Inactive)
REMARK    1  A    between atoms: C_1  and  C_2
REMARK    2  A    between atoms: C_2  and  C_3
REMARK    3  A    between atoms: C_3  and  C_5
REMARK    4  A    between atoms: C_3  and  S_16
REMARK    5  A    between atoms: N_7  and  C_8
REMARK    6  A    between atoms: C_13  and  O_14
REMARK    7  A    between atoms: O_14  and  C_15
REMARK    8  A    between atoms: S_16  and  C_17
REMARK    9  A    between atoms: N_26  and  C_27
REMARK   10  A    between atoms: C_27  and  C_28
REMARK   11  A    between atoms: C_31  and  O_34
REMARK   12  A    between atoms: O_34  and  C_35
REMARK                            x       y       z     vdW  Elec       q    Type
REMARK                         _______ _______ _______ _____ _____    ______ ____
ROOT
ATOM      1  C   UNL     1      -2.704   1.149   1.821  0.00  0.00    +0.173 A 
ATOM      2  N   UNL     1      -2.591   1.901   0.760  0.00  0.00    -0.222 NA
ATOM      3  C   UNL     1      -2.942   3.221   0.769  0.00  0.00    +0.086 A 
ATOM      4  C   UNL     1      -2.879   4.147  -0.283  0.00  0.00    +0.036 A 
ATOM      5  C   UNL     1      -3.273   5.424  -0.089  0.00  0.00    +0.048 A 
ATOM      6  S   UNL     1      -3.775   5.425   1.624  0.00  0.00    -0.090 S 
ATOM      7  C   UNL     1      -3.432   3.723   1.988  0.00  0.00    +0.102 A 
ATOM      8  C   UNL     1      -3.547   2.915   3.116  0.00  0.00    +0.269 A 
ATOM      9  O   UNL     1      -3.974   3.364   4.167  0.00  0.00    -0.266 OA
ATOM     10  N   UNL     1      -3.181   1.615   3.013  0.00  0.00    -0.282 N 
ENDROOT
BRANCH   1  11
ATOM     11  S   UNL     1      -2.225  -0.543   1.709  0.00  0.00    -0.075 S 
BRANCH  11  12
ATOM     12  C   UNL     1      -1.826  -0.771  -0.045  0.00  0.00    +0.140 C 
BRANCH  12  13
ATOM     13  C   UNL     1      -3.072  -0.584  -0.872  0.00  0.00    +0.231 C 
ATOM     14  O   UNL     1      -4.164  -0.685  -0.354  0.00  0.00    -0.274 OA
ATOM     15  N   UNL     1      -2.973  -0.305  -2.187  0.00  0.00    -0.282 N 
ATOM     16  H   UNL     1      -2.102  -0.148  -2.585  0.00  0.00    +0.155 HD
BRANCH  15  17
ATOM     17  C   UNL     1      -4.127  -0.243  -2.979  0.00  0.00    +0.076 A 
ATOM     18  C   UNL     1      -5.301  -0.843  -2.547  0.00  0.00    +0.027 A 
ATOM     19  C   UNL     1      -6.438  -0.779  -3.329  0.00  0.00    +0.002 A 
ATOM     20  C   UNL     1      -6.409  -0.119  -4.544  0.00  0.00    +0.004 A 
ATOM     21  C   UNL     1      -5.243   0.481  -4.982  0.00  0.00    +0.047 A 
ATOM     22  C   UNL     1      -4.100   0.427  -4.200  0.00  0.00    +0.141 A 
BRANCH  22  23
ATOM     23  O   UNL     1      -2.954   1.021  -4.627  0.00  0.00    -0.493 OA
ATOM     24  C   UNL     1      -3.001   1.690  -5.889  0.00  0.00    +0.277 C 
ENDBRANCH  22  23
ENDBRANCH  15  17
ENDBRANCH  12  13
BRANCH  12  26
ATOM     25  C   UNL     1       0.053  -2.332   0.481  0.00  0.00    +0.005 C 
ATOM     26  C   UNL     1      -1.276  -2.182  -0.264  0.00  0.00    +0.020 C 
ENDBRANCH  12  26
ENDBRANCH  11  12
ENDBRANCH   1  11
BRANCH  10  27
ATOM     27  C   UNL     1      -3.290   0.721   4.169  0.00  0.00    +0.162 C 
BRANCH  27  28
ATOM     28  C   UNL     1      -2.006   0.762   4.958  0.00  0.00    -0.027 A 
ATOM     29  C   UNL     1      -0.983  -0.119   4.658  0.00  0.00    +0.009 A 
ATOM     30  C   UNL     1       0.194  -0.083   5.380  0.00  0.00    +0.046 A 
ATOM     31  C   UNL     1       0.349   0.836   6.407  0.00  0.00    +0.120 A 
ATOM     32  C   UNL     1      -0.679   1.719   6.706  0.00  0.00    +0.046 A 
ATOM     33  C   UNL     1      -1.852   1.683   5.977  0.00  0.00    +0.009 A 
BRANCH  31  34
ATOM     34  O   UNL     1       1.506   0.873   7.119  0.00  0.00    -0.495 OA
ATOM     35  C   UNL     1       1.595   1.846   8.162  0.00  0.00    +0.277 C 
ENDBRANCH  31  34
ENDBRANCH  27  28
ENDBRANCH  10  27
TORSDOF 9
