REMARK  Name = ZINC61591080
REMARK  2 active torsions:
REMARK  status: ('A' for Active; 'I' for Inactive)
REMARK    1  A    between atoms: C_2  and  C_9
REMARK    2  A    between atoms: C_6  and  N_7
REMARK                            x       y       z     vdW  Elec       q    Type
REMARK                         _______ _______ _______ _____ _____    ______ ____
ROOT
ATOM      1  C   UNL     1       1.224   3.560   0.009  0.00  0.00    +0.247 C 
ATOM      2  O   UNL     1       1.204   2.349   0.110  0.00  0.00    -0.270 OA
ATOM      3  N   UNL     1       2.401   4.207  -0.101  0.00  0.00    -0.297 N 
ATOM      4  C   UNL     1       3.659   3.459  -0.234  0.00  0.00    +0.108 C 
ATOM      5  C   UNL     1       4.633   3.934   0.849  0.00  0.00    +0.026 C 
ATOM      6  C   UNL     1       4.793   5.453   0.755  0.00  0.00    -0.026 C 
ATOM      7  C   UNL     1       5.790   5.926   1.815  0.00  0.00    +0.007 C 
ATOM      8  C   UNL     1       7.144   5.255   1.578  0.00  0.00    +0.001 C 
ATOM      9  C   UNL     1       7.662   5.628   0.187  0.00  0.00    +0.000 C 
ATOM     10  C   UNL     1       6.666   5.154  -0.872  0.00  0.00    +0.001 C 
ATOM     11  C   UNL     1       5.311   5.825  -0.636  0.00  0.00    +0.007 C 
ATOM     12  C   UNL     1       3.440   6.127   0.992  0.00  0.00    +0.026 C 
ATOM     13  C   UNL     1       2.452   5.676  -0.095  0.00  0.00    +0.108 C 
ENDROOT
BRANCH   1  15
ATOM     14  C   UNL     1      -1.092   3.977   0.861  0.00  0.00    +0.056 A 
ATOM     15  C   UNL     1      -0.045   4.325   0.006  0.00  0.00    +0.043 A 
ATOM     16  C   UNL     1      -0.225   5.414  -0.853  0.00  0.00    +0.053 A 
ATOM     17  C   UNL     1      -1.423   6.103  -0.825  0.00  0.00    +0.132 A 
ATOM     18  N   UNL     1      -2.392   5.746  -0.004  0.00  0.00    -0.221 NA
ATOM     19  C   UNL     1      -2.265   4.722   0.826  0.00  0.00    +0.119 A 
ATOM     20 CL   UNL     1      -1.656   7.457  -1.887  0.00  0.00    -0.062 Cl
BRANCH  19  21
ATOM     21  N   UNL     1      -3.318   4.388   1.671  0.00  0.00    -0.343 N 
ATOM     22  H   UNL     1      -3.231   3.639   2.280  0.00  0.00    +0.144 HD
ATOM     23  H   UNL     1      -4.139   4.904   1.651  0.00  0.00    +0.144 HD
ENDBRANCH  19  21
ENDBRANCH   1  15
TORSDOF 2
