REMARK  Name = ZINC04062211
REMARK  7 active torsions:
REMARK  status: ('A' for Active; 'I' for Inactive)
REMARK    1  A    between atoms: C_1  and  C_2
REMARK    2  A    between atoms: C_10  and  O_31
REMARK    3  A    between atoms: N_14  and  O_15
REMARK    4  A    between atoms: O_15  and  C_16
REMARK    5  A    between atoms: C_16  and  C_17
REMARK    6  A    between atoms: C_25  and  O_30
REMARK    7  A    between atoms: C_27  and  O_29
REMARK                            x       y       z     vdW  Elec       q    Type
REMARK                         _______ _______ _______ _____ _____    ______ ____
ROOT
ATOM      1  C   UNL     1       6.329  -1.571  -1.308  0.00  0.00    +0.014 C 
ATOM      2  C   UNL     1       6.122  -1.911   0.170  0.00  0.00    -0.000 C 
ATOM      3  C   UNL     1       5.174  -3.071   0.327  0.00  0.00    +0.010 C 
ATOM      4  C   UNL     1       3.723  -2.589   0.481  0.00  0.00    +0.009 C 
ATOM      5  C   UNL     1       3.534  -1.229  -0.165  0.00  0.00    +0.023 C 
ATOM      6  C   UNL     1       2.100  -0.784  -0.235  0.00  0.00    -0.035 A 
ATOM      7  C   UNL     1       1.076  -1.705  -0.258  0.00  0.00    +0.008 A 
ATOM      8  C   UNL     1      -0.240  -1.284  -0.326  0.00  0.00    +0.046 A 
ATOM      9  C   UNL     1      -0.538   0.072  -0.365  0.00  0.00    +0.117 A 
ATOM     10  C   UNL     1       0.483   1.007  -0.344  0.00  0.00    +0.055 A 
ATOM     11  C   UNL     1       1.812   0.585  -0.285  0.00  0.00    +0.006 A 
ATOM     12  C   UNL     1       2.899   1.591  -0.286  0.00  0.00    +0.088 C 
ATOM     13  N   UNL     1       2.629   2.856  -0.326  0.00  0.00    -0.088 NA
ATOM     14  C   UNL     1       4.342   1.116  -0.236  0.00  0.00    +0.063 C 
ATOM     15  C   UNL     1       4.338  -0.167   0.590  0.00  0.00    +0.006 C 
ATOM     16  C   UNL     1       5.676  -0.688   0.996  0.00  0.00    +0.004 C 
ATOM     17  C   UNL     1       6.881   0.252   0.849  0.00  0.00    +0.038 C 
ATOM     18  C   UNL     1       8.095  -0.714   0.931  0.00  0.00    +0.144 C 
ATOM     19  C   UNL     1       7.529  -2.147   0.766  0.00  0.00    +0.149 C 
ENDROOT
BRANCH  19  20
ATOM     20  O   UNL     1       8.318  -2.901  -0.149  0.00  0.00    -0.389 OA
ATOM     21  H   UNL     1       9.215  -3.084   0.164  0.00  0.00    +0.210 HD
ENDBRANCH  19  20
BRANCH  18  22
ATOM     22  O   UNL     1       8.739  -0.585   2.200  0.00  0.00    -0.389 OA
ATOM     23  H   UNL     1       9.115   0.291   2.362  0.00  0.00    +0.210 HD
ENDBRANCH  18  22
BRANCH   9  24
ATOM     24  O   UNL     1      -1.834   0.482  -0.418  0.00  0.00    -0.507 OA
ATOM     25  H   UNL     1      -2.239   0.619   0.450  0.00  0.00    +0.292 HD
ENDBRANCH   9  24
BRANCH  13  26
ATOM     26  O   UNL     1       3.680   3.804  -0.326  0.00  0.00    -0.382 OA
BRANCH  26  27
ATOM     27  C   UNL     1       3.238   5.163  -0.371  0.00  0.00    +0.387 C 
BRANCH  27  28
ATOM     28  C   UNL     1       4.433   6.080  -0.367  0.00  0.00    +0.395 C 
ATOM     29  O   UNL     1       5.549   5.619  -0.329  0.00  0.00    -0.242 OA
ATOM     30  O   UNL     1       4.258   7.411  -0.406  0.00  0.00    -0.242 OA
ENDBRANCH  27  28
ENDBRANCH  26  27
ENDBRANCH  13  26
TORSDOF 6
