REMARK  Name = ZINC55493249
REMARK  6 active torsions:
REMARK  status: ('A' for Active; 'I' for Inactive)
REMARK    1  A    between atoms: C_1  and  C_2
REMARK    2  A    between atoms: C_2  and  C_3
REMARK    3  A    between atoms: C_4  and  C_26
REMARK    4  A    between atoms: C_12  and  C_14
REMARK    5  A    between atoms: C_14  and  C_15
REMARK    6  A    between atoms: C_18  and  N_21
REMARK                            x       y       z     vdW  Elec       q    Type
REMARK                         _______ _______ _______ _____ _____    ______ ____
ROOT
ATOM      1  C   UNL     1      -1.412  -0.526   0.013  0.00  0.00    -0.023 A 
ATOM      2  C   UNL     1      -2.040  -0.762   1.176  0.00  0.00    -0.007 A 
ATOM      3  S   UNL     1      -3.644  -1.351   0.666  0.00  0.00    -0.073 S 
ATOM      4  C   UNL     1      -3.423  -1.263  -1.092  0.00  0.00    +0.116 A 
ATOM      5  C   UNL     1      -2.112  -0.773  -1.234  0.00  0.00    +0.075 A 
ATOM      6  C   UNL     1      -1.660  -0.595  -2.582  0.00  0.00    +0.260 A 
ATOM      7  O   UNL     1      -0.537  -0.180  -2.808  0.00  0.00    -0.267 OA
ATOM      8  N   UNL     1      -2.495  -0.894  -3.594  0.00  0.00    -0.310 N 
ATOM      9  H   UNL     1      -2.195  -0.776  -4.509  0.00  0.00    +0.170 HD
ATOM     10  C   UNL     1      -3.749  -1.359  -3.361  0.00  0.00    +0.115 A 
ATOM     11  N   UNL     1      -4.188  -1.541  -2.144  0.00  0.00    -0.226 NA
ATOM     12  C   UNL     1      -1.515  -0.574   2.576  0.00  0.00    +0.052 C 
ENDROOT
BRANCH   1  14
ATOM     13  C   UNL     1      -0.019   1.526   0.010  0.00  0.00    +0.009 C 
ATOM     14  C   UNL     1       0.002  -0.004   0.002  0.00  0.00    +0.033 C 
ENDBRANCH   1  14
BRANCH  10  15
ATOM     15  C   UNL     1      -4.648  -1.681  -4.527  0.00  0.00    +0.109 C 
BRANCH  15  16
ATOM     16  C   UNL     1      -5.977  -2.175  -4.016  0.00  0.00    -0.040 A 
ATOM     17  C   UNL     1      -6.168  -3.525  -3.786  0.00  0.00    +0.006 A 
ATOM     18  C   UNL     1      -7.385  -3.982  -3.318  0.00  0.00    +0.028 A 
ATOM     19  C   UNL     1      -8.416  -3.083  -3.078  0.00  0.00    +0.065 A 
ATOM     20  C   UNL     1      -8.220  -1.728  -3.309  0.00  0.00    +0.028 A 
ATOM     21  C   UNL     1      -7.000  -1.278  -3.773  0.00  0.00    +0.006 A 
BRANCH  19  22
ATOM     22  N   UNL     1      -9.652  -3.543  -2.603  0.00  0.00    -0.240 N 
ATOM     23  C   UNL     1     -10.736  -2.780  -2.335  0.00  0.00    +0.114 A 
ATOM     24  C   UNL     1     -11.720  -3.600  -1.900  0.00  0.00    +0.041 A 
ATOM     25  C   UNL     1     -11.223  -4.908  -1.902  0.00  0.00    +0.135 A 
ATOM     26  N   UNL     1      -9.986  -4.876  -2.329  0.00  0.00    -0.175 NA
ENDBRANCH  19  22
ENDBRANCH  15  16
ENDBRANCH  10  15
TORSDOF 4
