REMARK  Name = ZINC35872567
REMARK  9 active torsions:
REMARK  status: ('A' for Active; 'I' for Inactive)
REMARK    1  A    between atoms: C_4  and  C_7
REMARK    2  A    between atoms: C_7  and  N_8
REMARK    3  A    between atoms: C_9  and  C_11
REMARK    4  A    between atoms: C_11  and  C_12
REMARK    5  A    between atoms: C_12  and  C_14
REMARK    6  A    between atoms: C_12  and  C_21
REMARK    7  A    between atoms: N_23  and  C_33
REMARK    8  A    between atoms: C_27  and  N_30
REMARK    9  A    between atoms: C_33  and  C_34
REMARK                            x       y       z     vdW  Elec       q    Type
REMARK                         _______ _______ _______ _____ _____    ______ ____
ROOT
ATOM      1  C   UNL     1       7.099  -2.600   2.966  0.00  0.00    +0.060 C 
ENDROOT
BRANCH   1   2
ATOM      2  C   UNL     1       7.613  -2.744   4.375  0.00  0.00    -0.014 A 
ATOM      3  C   UNL     1       7.000  -3.377   5.388  0.00  0.00    +0.091 A 
ATOM      4  N   UNL     1       7.767  -3.301   6.518  0.00  0.00    -0.342 N 
ATOM      5  C   UNL     1       8.922  -2.600   6.254  0.00  0.00    +0.050 A 
ATOM      6  C   UNL     1       8.879  -2.225   4.899  0.00  0.00    +0.006 A 
ATOM      7  C   UNL     1       9.934  -1.499   4.343  0.00  0.00    +0.043 A 
ATOM      8  C   UNL     1      11.006  -1.158   5.119  0.00  0.00    +0.127 A 
ATOM      9  C   UNL     1      11.055  -1.529   6.456  0.00  0.00    +0.035 A 
ATOM     10  C   UNL     1      10.020  -2.238   7.027  0.00  0.00    +0.028 A 
BRANCH   8  11
ATOM     11  N   UNL     1      12.124  -0.389   4.529  0.00  0.00    +0.056 N 
ATOM     12  O   UNL     1      12.087  -0.064   3.365  0.00  0.00    -0.126 OA
ATOM     13  O   UNL     1      13.075  -0.085   5.212  0.00  0.00    -0.126 OA
ENDBRANCH   8  11
BRANCH   4  14
ATOM     14  C   UNL     1       7.412  -3.880   7.817  0.00  0.00    +0.157 C 
BRANCH  14  15
ATOM     15  C   UNL     1       6.746  -2.831   8.669  0.00  0.00    -0.028 A 
ATOM     16  C   UNL     1       7.509  -2.023   9.492  0.00  0.00    +0.005 A 
ATOM     17  C   UNL     1       6.898  -1.060  10.274  0.00  0.00    +0.000 A 
ATOM     18  C   UNL     1       5.525  -0.906  10.233  0.00  0.00    +0.000 A 
ATOM     19  C   UNL     1       4.763  -1.713   9.410  0.00  0.00    +0.000 A 
ATOM     20  C   UNL     1       5.374  -2.673   8.624  0.00  0.00    +0.005 A 
ENDBRANCH  14  15
ENDBRANCH   4  14
ENDBRANCH   1   2
BRANCH   1  21
ATOM     21  C   UNL     1       6.903  -3.966   2.361  0.00  0.00    -0.039 A 
ATOM     22  C   UNL     1       6.022  -4.859   2.943  0.00  0.00    +0.007 A 
ATOM     23  C   UNL     1       5.841  -6.112   2.388  0.00  0.00    +0.038 A 
ATOM     24  C   UNL     1       6.541  -6.472   1.250  0.00  0.00    +0.123 A 
ATOM     25  C   UNL     1       7.423  -5.577   0.668  0.00  0.00    +0.038 A 
ATOM     26  C   UNL     1       7.599  -4.323   1.221  0.00  0.00    +0.007 A 
ATOM     27  F   UNL     1       6.365  -7.697   0.707  0.00  0.00    -0.205 F 
ENDBRANCH   1  21
BRANCH   1  28
ATOM     28  C   UNL     1       5.764  -1.853   2.984  0.00  0.00    +0.108 C 
BRANCH  28  30
ATOM     29  N   UNL     1       4.152  -0.952   1.338  0.00  0.00    -0.311 N 
ATOM     30  C   UNL     1       5.311  -1.601   1.569  0.00  0.00    +0.214 C 
ATOM     31  O   UNL     1       5.989  -1.981   0.638  0.00  0.00    -0.276 OA
ATOM     32  H   UNL     1       3.610  -0.648   2.082  0.00  0.00    +0.149 HD
BRANCH  29  33
ATOM     33  C   UNL     1       3.711  -0.707  -0.038  0.00  0.00    +0.139 C 
BRANCH  33  37
ATOM     34  C   UNL     1      -0.017   1.378   0.010  0.00  0.00    +0.000 A 
ATOM     35  C   UNL     1       1.171   2.086   0.002  0.00  0.00    +0.000 A 
ATOM     36  C   UNL     1       2.377   1.411  -0.013  0.00  0.00    +0.005 A 
ATOM     37  C   UNL     1       2.396   0.029  -0.020  0.00  0.00    -0.030 A 
ATOM     38  C   UNL     1       1.208  -0.679  -0.012  0.00  0.00    +0.005 A 
ATOM     39  C   UNL     1       0.002  -0.004   0.002  0.00  0.00    +0.000 A 
ENDBRANCH  33  37
ENDBRANCH  29  33
ENDBRANCH  28  30
ENDBRANCH   1  28
TORSDOF 9
