REMARK  Name = ZINC05793917
REMARK  8 active torsions:
REMARK  status: ('A' for Active; 'I' for Inactive)
REMARK    1  A    between atoms: C_1  and  C_2
REMARK    2  A    between atoms: C_5  and  C_8
REMARK    3  A    between atoms: C_8  and  N_18
REMARK    4  A    between atoms: C_12  and  O_16
REMARK    5  A    between atoms: O_16  and  C_17
REMARK    6  A    between atoms: N_18  and  N_19
REMARK    7  A    between atoms: N_19  and  C_20
REMARK    8  A    between atoms: C_20  and  N_22
REMARK                            x       y       z     vdW  Elec       q    Type
REMARK                         _______ _______ _______ _____ _____    ______ ____
ROOT
ATOM      1  C   UNL     1      -0.157  -4.253  -0.023  0.00  0.00    +0.062 C 
ATOM      2  C   UNL     1      -0.060  -4.973   1.182  0.00  0.00    +0.045 C 
ATOM      3  C   UNL     1      -0.279  -4.335   2.419  0.00  0.00    +0.017 C 
ATOM      4  C   UNL     1      -0.182  -5.039   3.576  0.00  0.00    +0.046 C 
ATOM      5  C   UNL     1       0.133  -6.401   3.574  0.00  0.00    +0.124 C 
ATOM      6  C   UNL     1       0.357  -7.081   2.396  0.00  0.00    +0.097 C 
ATOM      7  C   UNL     1       0.265  -6.404   1.173  0.00  0.00    +0.191 C 
ATOM      8  O   UNL     1       0.457  -6.993   0.117  0.00  0.00    -0.287 OA
ENDROOT
BRANCH   1  13
ATOM      9  C   UNL     1      -0.846   1.454   0.085  0.00  0.00    +0.044 C 
ATOM     10  C   UNL     1      -0.666  -0.042   0.056  0.00  0.00    -0.050 A 
ATOM     11  C   UNL     1       0.315  -0.632   0.835  0.00  0.00    +0.004 A 
ATOM     12  C   UNL     1       0.486  -2.000   0.815  0.00  0.00    +0.010 A 
ATOM     13  C   UNL     1      -0.334  -2.792   0.004  0.00  0.00    -0.002 A 
ATOM     14  C   UNL     1      -1.323  -2.188  -0.780  0.00  0.00    +0.010 A 
ATOM     15  C   UNL     1      -1.485  -0.820  -0.744  0.00  0.00    +0.004 A 
ENDBRANCH   1  13
BRANCH   5  16
ATOM     16  O   UNL     1       0.220  -7.066   4.753  0.00  0.00    -0.495 OA
ATOM     17  C   UNL     1       0.545  -8.456   4.692  0.00  0.00    +0.277 C 
ENDBRANCH   5  16
BRANCH   1  18
ATOM     18  N   UNL     1      -0.088  -4.907  -1.214  0.00  0.00    -0.264 N 
ATOM     19  H   UNL     1      -0.029  -5.875  -1.233  0.00  0.00    +0.170 HD
BRANCH  18  20
ATOM     20  N   UNL     1      -0.102  -4.183  -2.413  0.00  0.00    -0.248 N 
ATOM     21  H   UNL     1      -0.083  -3.213  -2.394  0.00  0.00    +0.172 HD
BRANCH  20  22
ATOM     22  C   UNL     1      -0.143  -4.833  -3.593  0.00  0.00    +0.144 C 
ATOM     23  S   UNL     1      -0.160  -3.948  -5.059  0.00  0.00    -0.018 S 
BRANCH  22  24
ATOM     24  N   UNL     1      -0.171  -6.181  -3.619  0.00  0.00    -0.340 N 
ATOM     25  H   UNL     1      -0.161  -6.682  -2.789  0.00  0.00    +0.144 HD
ATOM     26  H   UNL     1      -0.200  -6.649  -4.469  0.00  0.00    +0.144 HD
ENDBRANCH  22  24
ENDBRANCH  20  22
ENDBRANCH  18  20
ENDBRANCH   1  18
TORSDOF 6
