REMARK  Name = ZINC04545385
REMARK  4 active torsions:
REMARK  status: ('A' for Active; 'I' for Inactive)
REMARK    1  A    between atoms: C_1  and  C_2
REMARK    2  A    between atoms: C_2  and  C_3
REMARK    3  A    between atoms: C_12  and  O_24
REMARK    4  A    between atoms: C_14  and  C_17
REMARK                            x       y       z     vdW  Elec       q    Type
REMARK                         _______ _______ _______ _____ _____    ______ ____
ROOT
ATOM      1  C   UNL     1      -1.433  -0.534   0.013  0.00  0.00    -0.006 C 
ATOM      2  C   UNL     1      -1.418  -2.060  -0.115  0.00  0.00    +0.008 C 
ATOM      3  C   UNL     1      -2.839  -2.576  -0.353  0.00  0.00    +0.037 C 
ATOM      4  C   UNL     1      -3.752  -2.009   0.725  0.00  0.00    -0.023 A 
ATOM      5  C   UNL     1      -3.387  -0.929   1.453  0.00  0.00    -0.004 A 
ATOM      6  S   UNL     1      -4.744  -0.648   2.557  0.00  0.00    -0.078 S 
ATOM      7  C   UNL     1      -5.739  -1.889   2.089  0.00  0.00    +0.080 A 
ATOM      8  C   UNL     1      -5.055  -2.551   1.063  0.00  0.00    +0.068 A 
ATOM      9  C   UNL     1      -5.726  -3.717   0.433  0.00  0.00    +0.220 C 
ATOM     10  N   UNL     1      -6.781  -4.204   1.029  0.00  0.00    -0.223 NA
ATOM     11  C   UNL     1      -7.307  -3.723   2.300  0.00  0.00    +0.225 C 
ATOM     12  N   UNL     1      -6.979  -2.303   2.522  0.00  0.00    -0.313 N 
ATOM     13  C   UNL     1      -2.113  -0.150   1.336  0.00  0.00    +0.046 C 
ATOM     14  H   UNL     1      -7.601  -1.694   2.950  0.00  0.00    +0.149 HD
ENDROOT
BRANCH  11  15
ATOM     15  C   UNL     1      -6.718  -4.543   3.418  0.00  0.00    +0.013 A 
ATOM     16  C   UNL     1      -6.437  -3.952   4.636  0.00  0.00    +0.009 A 
ATOM     17  C   UNL     1      -5.896  -4.704   5.662  0.00  0.00    +0.000 A 
ATOM     18  C   UNL     1      -5.636  -6.049   5.471  0.00  0.00    +0.001 A 
ATOM     19  C   UNL     1      -5.916  -6.641   4.254  0.00  0.00    +0.020 A 
ATOM     20  C   UNL     1      -6.463  -5.890   3.229  0.00  0.00    +0.048 A 
ATOM     21 CL   UNL     1      -6.821  -6.635   1.702  0.00  0.00    -0.083 Cl
ENDBRANCH  11  15
BRANCH   1  23
ATOM     22  C   UNL     1      -0.019   1.526   0.010  0.00  0.00    +0.004 C 
ATOM     23  C   UNL     1       0.002  -0.004   0.002  0.00  0.00    +0.000 C 
ENDBRANCH   1  23
BRANCH   9  24
ATOM     24  O   UNL     1      -5.260  -4.257  -0.717  0.00  0.00    -0.492 OA
ATOM     25  H   UNL     1      -5.775  -5.011  -1.035  0.00  0.00    +0.294 HD
ENDBRANCH   9  24
TORSDOF 3
