REMARK  Name = ZINC25148560
REMARK  10 active torsions:
REMARK  status: ('A' for Active; 'I' for Inactive)
REMARK    1  A    between atoms: C_1  and  C_2
REMARK    2  A    between atoms: C_4  and  C_8
REMARK    3  A    between atoms: C_5  and  C_7
REMARK    4  A    between atoms: C_10  and  C_20
REMARK    5  A    between atoms: N_14  and  C_17
REMARK    6  A    between atoms: C_17  and  C_18
REMARK    7  A    between atoms: C_17  and  C_19
REMARK    8  A    between atoms: N_22  and  C_23
REMARK    9  A    between atoms: N_26  and  C_29
REMARK   10  A    between atoms: C_29  and  C_30
REMARK                            x       y       z     vdW  Elec       q    Type
REMARK                         _______ _______ _______ _____ _____    ______ ____
ROOT
ATOM      1  C   UNL     1      -1.977  -0.954   3.315  0.00  0.00    +0.075 A 
ATOM      2  C   UNL     1      -2.503  -0.152   4.334  0.00  0.00    +0.042 A 
ATOM      3  C   UNL     1      -2.214   1.206   4.348  0.00  0.00    +0.051 A 
ATOM      4  C   UNL     1      -1.391   1.720   3.317  0.00  0.00    +0.051 A 
ATOM      5  C   UNL     1      -0.899   3.006   3.012  0.00  0.00    +0.145 A 
ATOM      6  N   UNL     1      -0.169   2.927   1.936  0.00  0.00    -0.177 NA
ATOM      7  N   UNL     1      -0.147   1.606   1.475  0.00  0.00    -0.244 N 
ATOM      8  C   UNL     1      -0.902   0.843   2.329  0.00  0.00    +0.160 A 
ATOM      9  N   UNL     1      -1.210  -0.445   2.365  0.00  0.00    -0.227 NA
ENDROOT
BRANCH   1  13
ATOM     10  C   UNL     1      -4.154  -5.165   5.130  0.00  0.00    +0.051 C 
ATOM     11  C   UNL     1      -3.330  -4.300   4.210  0.00  0.00    -0.012 A 
ATOM     12  C   UNL     1      -3.085  -2.973   4.289  0.00  0.00    +0.021 A 
ATOM     13  C   UNL     1      -2.285  -2.403   3.300  0.00  0.00    +0.011 A 
ATOM     14  C   UNL     1      -1.789  -3.214   2.320  0.00  0.00    -0.004 A 
ATOM     15  S   UNL     1      -2.425  -4.769   2.747  0.00  0.00    -0.098 S 
ATOM     16  C   UNL     1      -0.906  -2.848   1.155  0.00  0.00    +0.052 C 
ENDBRANCH   1  13
BRANCH   3  17
ATOM     17  C   UNL     1      -2.750   2.089   5.406  0.00  0.00    +0.245 C 
ATOM     18  O   UNL     1      -2.485   3.276   5.400  0.00  0.00    -0.270 OA
ATOM     19  N   UNL     1      -3.532   1.579   6.377  0.00  0.00    -0.309 N 
ATOM     20  H   UNL     1      -3.772   0.505   6.383  0.00  0.00    +0.149 HD
BRANCH  19  21
ATOM     21  C   UNL     1      -4.063   2.453   7.426  0.00  0.00    +0.070 C 
ATOM     22  C   UNL     1      -3.029   2.595   8.546  0.00  0.00    +0.004 C 
ATOM     23  C   UNL     1      -3.613   3.460   9.666  0.00  0.00    -0.076 C 
ATOM     24  N   UNL     1      -4.837   2.834  10.181  0.00  0.00    +0.385 N 
ATOM     25  C   UNL     1      -5.862   2.731   9.135  0.00  0.00    -0.076 C 
ATOM     26  C   UNL     1      -5.346   1.844   7.999  0.00  0.00    +0.004 C 
ATOM     27  H   UNL     1      -4.583   1.814  10.503  0.00  0.00    -0.081 HD
BRANCH  24  28
ATOM     28  C   UNL     1      -5.349   3.564  11.349  0.00  0.00    +0.018 C 
BRANCH  28  29
ATOM     29  C   UNL     1      -6.441   2.759  12.005  0.00  0.00    +0.194 C 
ATOM     30  O   UNL     1      -6.684   1.636  11.616  0.00  0.00    -0.278 OA
ATOM     31  N   UNL     1      -7.148   3.286  13.024  0.00  0.00    -0.331 N 
ATOM     32  H   UNL     1      -7.945   2.698  13.503  0.00  0.00    +0.145 HD
ATOM     33  H   UNL     1      -6.928   4.304  13.378  0.00  0.00    +0.145 HD
ENDBRANCH  28  29
ENDBRANCH  24  28
ENDBRANCH  19  21
ENDBRANCH   3  17
BRANCH   7  34
ATOM     34  C   UNL     1       0.564   1.121   0.290  0.00  0.00    +0.103 C 
ATOM     35  C   UNL     1       2.060   1.399   0.443  0.00  0.00    +0.032 C 
ATOM     36  C   UNL     1       0.036   1.841  -0.952  0.00  0.00    +0.032 C 
ENDBRANCH   7  34
TORSDOF 6
