REMARK  Name = ZINC28057226
REMARK  5 active torsions:
REMARK  status: ('A' for Active; 'I' for Inactive)
REMARK    1  A    between atoms: C_1  and  C_2
REMARK    2  A    between atoms: C_2  and  O_3
REMARK    3  A    between atoms: O_3  and  C_4
REMARK    4  A    between atoms: C_7  and  C_10
REMARK    5  A    between atoms: C_27  and  C_29
REMARK                            x       y       z     vdW  Elec       q    Type
REMARK                         _______ _______ _______ _____ _____    ______ ____
ROOT
ATOM      1  C   UNL     1      -3.505   3.177  -0.683  0.00  0.00    +0.234 C 
ATOM      2  C   UNL     1      -3.621   1.718  -0.306  0.00  0.00    +0.026 C 
ATOM      3  C   UNL     1      -2.519   1.040   0.021  0.00  0.00    +0.050 C 
ATOM      4  C   UNL     1      -1.222   1.759   0.017  0.00  0.00    +0.038 A 
ATOM      5  C   UNL     1      -0.013   1.076   0.008  0.00  0.00    +0.013 A 
ATOM      6  C   UNL     1       1.172   1.788   0.001  0.00  0.00    +0.001 A 
ATOM      7  C   UNL     1       1.155   3.172   0.007  0.00  0.00    +0.004 A 
ATOM      8  C   UNL     1      -0.045   3.860   0.022  0.00  0.00    +0.046 A 
ATOM      9  C   UNL     1      -1.238   3.160   0.029  0.00  0.00    +0.131 A 
ATOM     10  O   UNL     1      -2.436   3.797   0.040  0.00  0.00    -0.479 OA
ATOM     11  N   UNL     1      -2.548  -0.318   0.357  0.00  0.00    -0.282 N 
ATOM     12  C   UNL     1      -3.714  -1.015   0.089  0.00  0.00    +0.240 A 
ATOM     13  N   UNL     1      -3.967  -2.292   0.072  0.00  0.00    -0.092 NA
ATOM     14  N   UNL     1      -5.201  -2.498  -0.243  0.00  0.00    -0.021 NA
ATOM     15  N   UNL     1      -5.809  -1.374  -0.444  0.00  0.00    -0.042 NA
ATOM     16  N   UNL     1      -4.866  -0.369  -0.232  0.00  0.00    -0.201 N 
ATOM     17  C   UNL     1      -4.989   1.080  -0.309  0.00  0.00    +0.177 C 
ATOM     18  H   UNL     1      -1.666  -0.790   0.816  0.00  0.00    +0.155 HD
ENDROOT
BRANCH  17  19
ATOM     19  C   UNL     1      -5.775   1.576   0.877  0.00  0.00    +0.017 A 
ATOM     20  C   UNL     1      -5.306   1.357   2.158  0.00  0.00    +0.009 A 
ATOM     21  C   UNL     1      -6.026   1.812   3.246  0.00  0.00    +0.001 A 
ATOM     22  C   UNL     1      -7.217   2.489   3.054  0.00  0.00    +0.003 A 
ATOM     23  C   UNL     1      -7.688   2.709   1.774  0.00  0.00    +0.039 A 
ATOM     24  C   UNL     1      -6.964   2.258   0.683  0.00  0.00    +0.129 A 
ATOM     25  F   UNL     1      -7.421   2.478  -0.569  0.00  0.00    -0.205 F 
ENDBRANCH  17  19
BRANCH   1  29
ATOM     26  C   UNL     1      -2.766   3.493  -4.880  0.00  0.00    +0.121 A 
ATOM     27  C   UNL     1      -4.047   3.690  -4.383  0.00  0.00    +0.046 A 
ATOM     28  C   UNL     1      -4.283   3.587  -3.026  0.00  0.00    +0.011 A 
ATOM     29  C   UNL     1      -3.245   3.288  -2.163  0.00  0.00    -0.003 A 
ATOM     30  C   UNL     1      -1.967   3.097  -2.655  0.00  0.00    +0.011 A 
ATOM     31  C   UNL     1      -1.726   3.193  -4.012  0.00  0.00    +0.046 A 
BRANCH  26  32
ATOM     32  O   UNL     1      -2.531   3.595  -6.215  0.00  0.00    -0.492 OA
BRANCH  32  34
ATOM     33  C   UNL     1      -1.120   3.534  -8.176  0.00  0.00    +0.048 C 
ATOM     34  C   UNL     1      -1.189   3.379  -6.655  0.00  0.00    +0.225 C 
ENDBRANCH  32  34
ENDBRANCH  26  32
ENDBRANCH   1  29
TORSDOF 4
