REMARK  Name = ZINC06967017
REMARK  6 active torsions:
REMARK  status: ('A' for Active; 'I' for Inactive)
REMARK    1  A    between atoms: C_1  and  C_2
REMARK    2  A    between atoms: N_11  and  C_12
REMARK    3  A    between atoms: C_12  and  N_14
REMARK    4  A    between atoms: N_14  and  C_15
REMARK    5  A    between atoms: C_18  and  S_21
REMARK    6  A    between atoms: S_21  and  N_24
REMARK                            x       y       z     vdW  Elec       q    Type
REMARK                         _______ _______ _______ _____ _____    ______ ____
ROOT
ATOM      1  N   UNL     1      -1.325   5.787   0.697  0.00  0.00    -0.296 N 
ATOM      2  H   UNL     1      -0.911   6.426   0.096  0.00  0.00    +0.154 HD
ENDROOT
BRANCH   1   3
ATOM      3  C   UNL     1      -0.745   5.520   1.942  0.00  0.00    +0.033 A 
ATOM      4  C   UNL     1      -1.282   4.539   2.764  0.00  0.00    +0.025 A 
ATOM      5  C   UNL     1      -0.704   4.274   3.990  0.00  0.00    +0.030 A 
ATOM      6  C   UNL     1       0.403   4.993   4.403  0.00  0.00    +0.105 A 
ATOM      7  C   UNL     1       0.937   5.974   3.589  0.00  0.00    +0.030 A 
ATOM      8  C   UNL     1       0.367   6.240   2.360  0.00  0.00    +0.025 A 
BRANCH   6   9
ATOM      9  S   UNL     1       1.134   4.657   5.971  0.00  0.00    +0.056 S 
ATOM     10  O   UNL     1       0.779   3.322   6.307  0.00  0.00    -0.153 OA
ATOM     11  O   UNL     1       2.485   5.089   5.890  0.00  0.00    -0.153 OA
BRANCH   9  12
ATOM     12  N   UNL     1       0.389   5.637   7.079  0.00  0.00    -0.204 NA
ATOM     13  H   UNL     1      -0.311   6.246   6.795  0.00  0.00    +0.144 HD
ATOM     14  H   UNL     1       0.653   5.603   8.011  0.00  0.00    +0.144 HD
ENDBRANCH   9  12
ENDBRANCH   6   9
ENDBRANCH   1   3
BRANCH   1  15
ATOM     15  C   UNL     1      -2.460   5.157   0.334  0.00  0.00    +0.141 C 
ATOM     16  S   UNL     1      -3.939   6.018   0.287  0.00  0.00    -0.018 S 
BRANCH  15  27
ATOM     17  C   UNL     1       2.546   1.154  -0.390  0.00  0.00    +0.044 C 
ATOM     18  C   UNL     1       1.222   1.867  -0.287  0.00  0.00    -0.050 A 
ATOM     19  C   UNL     1       1.185   3.248  -0.232  0.00  0.00    +0.005 A 
ATOM     20  C   UNL     1      -0.028   3.900  -0.135  0.00  0.00    +0.024 A 
ATOM     21  C   UNL     1      -1.210   3.169  -0.095  0.00  0.00    +0.039 A 
ATOM     22  C   UNL     1      -1.172   1.785  -0.158  0.00  0.00    -0.026 A 
ATOM     23  C   UNL     1       0.049   1.138  -0.247  0.00  0.00    +0.008 A 
ATOM     24  C   UNL     1      -2.432   0.961  -0.121  0.00  0.00    +0.038 C 
ATOM     25  C   UNL     1      -3.583   1.767   0.480  0.00  0.00    +0.024 C 
ATOM     26  C   UNL     1      -3.677   3.115  -0.247  0.00  0.00    +0.113 C 
ATOM     27  N   UNL     1      -2.430   3.850   0.008  0.00  0.00    -0.282 N 
ENDBRANCH  15  27
ENDBRANCH   1  15
TORSDOF 5
