REMARK  Name = ZINC33287118
REMARK  6 active torsions:
REMARK  status: ('A' for Active; 'I' for Inactive)
REMARK    1  A    between atoms: C_1  and  N_2
REMARK    2  A    between atoms: C_5  and  C_7
REMARK    3  A    between atoms: C_7  and  N_8
REMARK    4  A    between atoms: N_8  and  C_9
REMARK    5  A    between atoms: C_15  and  C_17
REMARK    6  A    between atoms: N_30  and  C_31
REMARK                            x       y       z     vdW  Elec       q    Type
REMARK                         _______ _______ _______ _____ _____    ______ ____
ROOT
ATOM      1  C   UNL     1       7.619  -0.826   4.225  0.00  0.00    +0.172 C 
ATOM      2  N   UNL     1       6.932  -0.214   3.084  0.00  0.00    -0.271 N 
ATOM      3  C   UNL     1       5.856   0.589   3.147  0.00  0.00    +0.045 A 
ATOM      4  C   UNL     1       5.533   0.945   1.877  0.00  0.00    +0.015 A 
ATOM      5  C   UNL     1       6.438   0.336   1.013  0.00  0.00    +0.086 A 
ATOM      6  N   UNL     1       7.281  -0.362   1.734  0.00  0.00    -0.174 NA
ATOM      7  C   UNL     1       4.380   1.849   1.528  0.00  0.00    +0.148 C 
ATOM      8  N   UNL     1       3.568   2.021   2.747  0.00  0.00    -0.281 N 
ATOM      9  C   UNL     1       4.262   2.267   4.019  0.00  0.00    +0.116 C 
ATOM     10  C   UNL     1       5.109   1.040   4.377  0.00  0.00    +0.074 C 
ATOM     11  C   UNL     1       2.223   1.949   2.696  0.00  0.00    +0.307 C 
ATOM     12  O   UNL     1       1.573   2.008   3.721  0.00  0.00    -0.252 OA
ATOM     13  N   UNL     1       1.600   1.807   1.510  0.00  0.00    -0.269 N 
ATOM     14  H   UNL     1       2.191   1.693   0.588  0.00  0.00    +0.156 HD
ENDROOT
BRANCH  13  15
ATOM     15  C   UNL     1       0.202   1.803   1.450  0.00  0.00    +0.035 A 
ATOM     16  C   UNL     1      -0.538   2.441   2.436  0.00  0.00    +0.023 A 
ATOM     17  C   UNL     1      -1.918   2.440   2.371  0.00  0.00    +0.002 A 
ATOM     18  C   UNL     1      -2.562   1.794   1.331  0.00  0.00    +0.000 A 
ATOM     19  C   UNL     1      -1.828   1.153   0.351  0.00  0.00    +0.002 A 
ATOM     20  C   UNL     1      -0.448   1.155   0.407  0.00  0.00    +0.023 A 
ENDBRANCH  13  15
BRANCH   5  21
ATOM     21  C   UNL     1       6.446   0.458  -0.489  0.00  0.00    +0.171 C 
BRANCH  21  22
ATOM     22  N   UNL     1       6.935   1.785  -0.869  0.00  0.00    -0.262 N 
ATOM     23  C   UNL     1       6.328   2.469  -1.859  0.00  0.00    +0.251 C 
ATOM     24  O   UNL     1       6.768   3.546  -2.213  0.00  0.00    -0.270 OA
BRANCH  23  25
ATOM     25  C   UNL     1       5.128   1.910  -2.515  0.00  0.00    +0.037 A 
ATOM     26  C   UNL     1       3.965   1.687  -1.775  0.00  0.00    +0.016 A 
ATOM     27  C   UNL     1       2.846   1.171  -2.393  0.00  0.00    +0.039 A 
ATOM     28  C   UNL     1       2.878   0.862  -3.744  0.00  0.00    +0.123 A 
ATOM     29  C   UNL     1       4.032   1.075  -4.482  0.00  0.00    +0.039 A 
ATOM     30  C   UNL     1       5.155   1.597  -3.876  0.00  0.00    +0.016 A 
ATOM     31  F   UNL     1       1.781   0.351  -4.344  0.00  0.00    -0.205 F 
ENDBRANCH  23  25
BRANCH  22  32
ATOM     32  C   UNL     1       8.031   2.344  -0.204  0.00  0.00    +0.037 A 
ATOM     33  C   UNL     1       8.909   1.527   0.497  0.00  0.00    +0.023 A 
ATOM     34  C   UNL     1       9.994   2.081   1.148  0.00  0.00    +0.002 A 
ATOM     35  C   UNL     1      10.200   3.448   1.111  0.00  0.00    +0.000 A 
ATOM     36  C   UNL     1       9.325   4.264   0.418  0.00  0.00    +0.002 A 
ATOM     37  C   UNL     1       8.241   3.716  -0.239  0.00  0.00    +0.023 A 
ENDBRANCH  22  32
ENDBRANCH  21  22
ENDBRANCH   5  21
TORSDOF 5
