REMARK  Name = ZINC17963006
REMARK  5 active torsions:
REMARK  status: ('A' for Active; 'I' for Inactive)
REMARK    1  A    between atoms: C_1  and  C_2
REMARK    2  A    between atoms: C_2  and  C_4
REMARK    3  A    between atoms: C_2  and  N_12
REMARK    4  A    between atoms: C_13  and  C_15
REMARK    5  A    between atoms: C_18  and  N_21
REMARK                            x       y       z     vdW  Elec       q    Type
REMARK                         _______ _______ _______ _____ _____    ______ ____
ROOT
ATOM      1  N   UNL     1      -3.513   3.845  -0.833  0.00  0.00    -0.305 N 
ATOM      2  C   UNL     1      -4.536   4.532  -1.380  0.00  0.00    +0.245 C 
ATOM      3  O   UNL     1      -4.669   5.716  -1.141  0.00  0.00    -0.270 OA
ATOM      4  H   UNL     1      -3.407   2.899  -1.024  0.00  0.00    +0.150 HD
ENDROOT
BRANCH   2   5
ATOM      5  C   UNL     1      -5.495   3.845  -2.270  0.00  0.00    +0.037 A 
ATOM      6  C   UNL     1      -5.342   2.486  -2.551  0.00  0.00    +0.015 A 
ATOM      7  C   UNL     1      -6.244   1.850  -3.379  0.00  0.00    +0.033 A 
ATOM      8  C   UNL     1      -7.293   2.558  -3.938  0.00  0.00    +0.126 A 
ATOM      9  C   UNL     1      -7.447   3.906  -3.668  0.00  0.00    +0.033 A 
ATOM     10  C   UNL     1      -6.555   4.553  -2.838  0.00  0.00    +0.015 A 
BRANCH   8  11
ATOM     11  N   UNL     1      -8.254   1.871  -4.829  0.00  0.00    +0.056 N 
ATOM     12  O   UNL     1      -9.178   2.491  -5.323  0.00  0.00    -0.126 OA
ATOM     13  O   UNL     1      -8.121   0.684  -5.069  0.00  0.00    -0.126 OA
ENDBRANCH   8  11
ENDBRANCH   2   5
BRANCH   1  15
ATOM     14  C   UNL     1      -3.116   4.548   1.475  0.00  0.00    +0.033 C 
ATOM     15  C   UNL     1      -2.562   4.525   0.049  0.00  0.00    +0.100 C 
BRANCH  15  16
ATOM     16  C   UNL     1      -1.247   3.789   0.033  0.00  0.00    -0.026 A 
ATOM     17  C   UNL     1      -0.059   4.497   0.026  0.00  0.00    +0.007 A 
ATOM     18  C   UNL     1       1.148   3.824   0.011  0.00  0.00    +0.022 A 
ATOM     19  C   UNL     1       1.168   2.441   0.004  0.00  0.00    +0.059 A 
ATOM     20  C   UNL     1      -0.021   1.732   0.012  0.00  0.00    +0.060 A 
ATOM     21  C   UNL     1      -1.229   2.408   0.021  0.00  0.00    +0.027 A 
ATOM     22 CL   UNL     1       0.002  -0.004   0.002  0.00  0.00    -0.082 Cl
ATOM     23 CL   UNL     1       2.683   1.594  -0.015  0.00  0.00    -0.082 Cl
ENDBRANCH  15  16
ENDBRANCH   1  15
TORSDOF 4
