REMARK  Name = ZINC36113059
REMARK  6 active torsions:
REMARK  status: ('A' for Active; 'I' for Inactive)
REMARK    1  A    between atoms: C_6  and  C_7
REMARK    2  A    between atoms: C_7  and  S_8
REMARK    3  A    between atoms: S_8  and  N_11
REMARK    4  A    between atoms: N_11  and  C_12
REMARK    5  A    between atoms: C_12  and  C_13
REMARK    6  A    between atoms: C_13  and  C_14
REMARK                            x       y       z     vdW  Elec       q    Type
REMARK                         _______ _______ _______ _____ _____    ______ ____
ROOT
ATOM      1  N   UNL     1      -3.246  -1.920  -1.554  0.00  0.00    -0.194 NA
ATOM      2  H   UNL     1      -3.300  -2.834  -1.874  0.00  0.00    +0.148 HD
ENDROOT
BRANCH   1   3
ATOM      3  S   UNL     1      -1.829  -1.075  -1.696  0.00  0.00    +0.033 S 
ATOM      4  O   UNL     1      -2.198   0.149  -2.316  0.00  0.00    -0.158 OA
ATOM      5  O   UNL     1      -0.935  -1.972  -2.340  0.00  0.00    -0.158 OA
BRANCH   3   6
ATOM      6  C   UNL     1      -1.293  -0.775   0.011  0.00  0.00    +0.220 C 
BRANCH   6  12
ATOM      7  C   UNL     1      -0.017   1.378   0.010  0.00  0.00    +0.007 A 
ATOM      8  C   UNL     1       1.171   2.086   0.002  0.00  0.00    +0.020 A 
ATOM      9  C   UNL     1       2.378   1.410  -0.013  0.00  0.00    +0.041 A 
ATOM     10  C   UNL     1       2.396   0.027  -0.021  0.00  0.00    +0.020 A 
ATOM     11  C   UNL     1       1.208  -0.679  -0.013  0.00  0.00    +0.007 A 
ATOM     12  C   UNL     1       0.002  -0.004   0.002  0.00  0.00    -0.025 A 
ATOM     13 CL   UNL     1       3.870   2.298  -0.023  0.00  0.00    -0.084 Cl
ENDBRANCH   6  12
ENDBRANCH   3   6
ENDBRANCH   1   3
BRANCH   1  14
ATOM     14  C   UNL     1      -4.419  -1.287  -0.946  0.00  0.00    +0.111 C 
BRANCH  14  15
ATOM     15  C   UNL     1      -5.668  -2.112  -1.266  0.00  0.00    +0.073 C 
BRANCH  15  16
ATOM     16  C   UNL     1      -6.874  -1.460  -0.641  0.00  0.00    +0.054 A 
ATOM     17  C   UNL     1      -7.628  -0.632  -1.367  0.00  0.00    +0.072 A 
ATOM     18  S   UNL     1      -8.881  -0.155  -0.188  0.00  0.00    -0.056 S 
ATOM     19  C   UNL     1      -8.285  -1.111   1.186  0.00  0.00    +0.195 A 
ATOM     20  N   UNL     1      -7.189  -1.730   0.669  0.00  0.00    -0.211 N 
ATOM     21  N   UNL     1      -6.692  -2.510   1.746  0.00  0.00    -0.153 NA
ATOM     22  C   UNL     1      -7.479  -2.321   2.771  0.00  0.00    +0.246 A 
ATOM     23  N   UNL     1      -8.442  -1.466   2.432  0.00  0.00    -0.208 NA
ENDBRANCH  15  16
ENDBRANCH  14  15
ENDBRANCH   1  14
TORSDOF 6
