REMARK  Name = ZINC30986855
REMARK  7 active torsions:
REMARK  status: ('A' for Active; 'I' for Inactive)
REMARK    1  A    between atoms: C_4  and  C_7
REMARK    2  A    between atoms: C_7  and  C_8
REMARK    3  A    between atoms: C_7  and  N_14
REMARK    4  A    between atoms: C_15  and  C_17
REMARK    5  A    between atoms: N_20  and  C_23
REMARK    6  A    between atoms: C_23  and  C_24
REMARK    7  A    between atoms: C_26  and  C_29
REMARK                            x       y       z     vdW  Elec       q    Type
REMARK                         _______ _______ _______ _____ _____    ______ ____
ROOT
ATOM      1  C   UNL     1       6.665  -0.015   2.296  0.00  0.00    +0.072 C 
ATOM      2  C   UNL     1       7.356   1.116   1.528  0.00  0.00    -0.006 C 
ATOM      3  C   UNL     1       8.392   1.783   2.436  0.00  0.00    -0.077 C 
ATOM      4  N   UNL     1       9.379   0.786   2.868  0.00  0.00    +0.386 N 
ATOM      5  C   UNL     1       8.746  -0.285   3.648  0.00  0.00    -0.077 C 
ATOM      6  C   UNL     1       7.721  -1.014   2.776  0.00  0.00    -0.006 C 
ATOM      7  H   UNL     1       9.815   0.332   1.966  0.00  0.00    -0.081 HD
ENDROOT
BRANCH   1   9
ATOM      8  N   UNL     1       4.663  -0.027   0.843  0.00  0.00    -0.304 N 
ATOM      9  C   UNL     1       5.686  -0.715   1.388  0.00  0.00    +0.217 C 
ATOM     10  O   UNL     1       5.819  -1.896   1.149  0.00  0.00    -0.275 OA
ATOM     11  H   UNL     1       4.543   1.044   1.060  0.00  0.00    +0.150 HD
BRANCH   8  12
ATOM     12  C   UNL     1       3.711  -0.707  -0.039  0.00  0.00    +0.134 C 
BRANCH  12  16
ATOM     13  C   UNL     1      -0.017   1.378   0.010  0.00  0.00    +0.000 A 
ATOM     14  C   UNL     1       1.171   2.086   0.002  0.00  0.00    +0.000 A 
ATOM     15  C   UNL     1       2.377   1.411  -0.014  0.00  0.00    +0.006 A 
ATOM     16  C   UNL     1       2.396   0.029  -0.022  0.00  0.00    -0.023 A 
ATOM     17  C   UNL     1       1.208  -0.679  -0.014  0.00  0.00    +0.006 A 
ATOM     18  C   UNL     1       0.002  -0.004   0.002  0.00  0.00    +0.000 A 
ENDBRANCH  12  16
BRANCH  12  19
ATOM     19  C   UNL     1       4.256  -0.729  -1.444  0.00  0.00    -0.023 A 
ATOM     20  C   UNL     1       4.904   0.382  -1.952  0.00  0.00    +0.006 A 
ATOM     21  C   UNL     1       5.408   0.360  -3.239  0.00  0.00    +0.000 A 
ATOM     22  C   UNL     1       5.255  -0.769  -4.022  0.00  0.00    +0.000 A 
ATOM     23  C   UNL     1       4.602  -1.878  -3.516  0.00  0.00    +0.000 A 
ATOM     24  C   UNL     1       4.103  -1.858  -2.227  0.00  0.00    +0.006 A 
ENDBRANCH  12  19
ENDBRANCH   8  12
ENDBRANCH   1   9
BRANCH   4  25
ATOM     25  C   UNL     1      10.467   1.418   3.628  0.00  0.00    +0.022 C 
BRANCH  25  26
ATOM     26  C   UNL     1      11.247   2.334   2.721  0.00  0.00    +0.211 A 
ATOM     27  N   UNL     1      11.009   3.604   2.507  0.00  0.00    -0.193 NA
ATOM     28  C   UNL     1      11.957   4.008   1.630  0.00  0.00    +0.202 A 
ATOM     29  N   UNL     1      12.707   2.969   1.366  0.00  0.00    -0.056 NA
ATOM     30  O   UNL     1      12.315   2.004   1.988  0.00  0.00    -0.340 OA
BRANCH  28  31
ATOM     31  C   UNL     1      12.115   5.374   1.072  0.00  0.00    +0.023 A 
ATOM     32  C   UNL     1      11.232   6.386   1.441  0.00  0.00    +0.013 A 
ATOM     33  C   UNL     1      11.387   7.656   0.924  0.00  0.00    +0.021 A 
ATOM     34  C   UNL     1      12.411   7.922   0.030  0.00  0.00    +0.041 A 
ATOM     35  C   UNL     1      13.288   6.918  -0.343  0.00  0.00    +0.021 A 
ATOM     36  C   UNL     1      13.144   5.646   0.173  0.00  0.00    +0.013 A 
ATOM     37 CL   UNL     1      12.596   9.520  -0.623  0.00  0.00    -0.084 Cl
ENDBRANCH  28  31
ENDBRANCH  25  26
ENDBRANCH   4  25
TORSDOF 7
