REMARK  Name = ZINC12341323
REMARK  2 active torsions:
REMARK  status: ('A' for Active; 'I' for Inactive)
REMARK    1  A    between atoms: C_1  and  C_2
REMARK    2  A    between atoms: C_3  and  C_15
REMARK                            x       y       z     vdW  Elec       q    Type
REMARK                         _______ _______ _______ _____ _____    ______ ____
ROOT
ATOM      1  C   UNL     1      -1.278  -0.799   0.011  0.00  0.00    +0.045 C 
ATOM      2  C   UNL     1       0.002  -0.004   0.002  0.00  0.00    -0.026 A 
ATOM      3  C   UNL     1       1.197  -0.615  -0.013  0.00  0.00    -0.008 A 
ATOM      4  S   UNL     1       2.351   0.741  -0.016  0.00  0.00    -0.075 S 
ATOM      5  C   UNL     1       1.240   2.057   0.001  0.00  0.00    +0.092 A 
ATOM      6  C   UNL     1      -0.018   1.450   0.010  0.00  0.00    +0.073 A 
ATOM      7  C   UNL     1      -1.175   2.371   0.032  0.00  0.00    +0.261 A 
ATOM      8  O   UNL     1      -2.310   1.933   0.046  0.00  0.00    -0.267 OA
ATOM      9  N   UNL     1      -0.957   3.698   0.031  0.00  0.00    -0.302 N 
ATOM     10  H   UNL     1      -1.717   4.301   0.042  0.00  0.00    +0.171 HD
ATOM     11  C   UNL     1       0.283   4.213   0.022  0.00  0.00    +0.159 A 
ATOM     12  S   UNL     1       0.486   5.913   0.030  0.00  0.00    -0.013 S 
ATOM     13  N   UNL     1       1.371   3.419   0.008  0.00  0.00    -0.329 N 
ATOM     14  H   UNL     1       2.256   3.817   0.001  0.00  0.00    +0.168 HD
ATOM     15  C   UNL     1       1.491  -2.093  -0.023  0.00  0.00    +0.052 C 
ENDROOT
TORSDOF 0
