REMARK  Name = ZINC50360720
REMARK  6 active torsions:
REMARK  status: ('A' for Active; 'I' for Inactive)
REMARK    1  A    between atoms: C_2  and  C_8
REMARK    2  A    between atoms: C_8  and  N_9
REMARK    3  A    between atoms: N_9  and  C_10
REMARK    4  A    between atoms: N_19  and  C_20
REMARK    5  A    between atoms: C_20  and  C_21
REMARK    6  A    between atoms: C_21  and  O_22
REMARK                            x       y       z     vdW  Elec       q    Type
REMARK                         _______ _______ _______ _____ _____    ______ ____
ROOT
ATOM      1  C   UNL     1       2.317   5.112   1.277  0.00  0.00    -0.037 C 
ATOM      2  C   UNL     1       2.484   5.714   2.678  0.00  0.00    -0.011 C 
ATOM      3  C   UNL     1       3.162   7.082   2.569  0.00  0.00    +0.005 C 
ATOM      4  C   UNL     1       4.628   6.897   2.158  0.00  0.00    +0.055 C 
ATOM      5  C   UNL     1       4.673   5.986   0.957  0.00  0.00    +0.041 A 
ATOM      6  C   UNL     1       3.644   5.192   0.563  0.00  0.00    -0.021 A 
ATOM      7  C   UNL     1       4.045   4.500  -0.578  0.00  0.00    +0.136 A 
ATOM      8  N   UNL     1       5.272   4.862  -0.862  0.00  0.00    -0.179 NA
ATOM      9  N   UNL     1       5.689   5.799   0.098  0.00  0.00    -0.266 N 
ENDROOT
BRANCH   1  10
ATOM     10  N   UNL     1       1.899   3.708   1.388  0.00  0.00    +0.388 N 
ATOM     11  H   UNL     1       2.542   3.212   1.988  0.00  0.00    -0.084 HD
ATOM     12  H   UNL     1       1.898   3.284   0.473  0.00  0.00    -0.084 HD
BRANCH  10  13
ATOM     13  C   UNL     1       0.548   3.643   1.960  0.00  0.00    -0.006 C 
BRANCH  13  15
ATOM     14  C   UNL     1       0.246   1.324   2.949  0.00  0.00    +0.059 A 
ATOM     15  C   UNL     1       0.069   2.215   1.957  0.00  0.00    +0.091 A 
ATOM     16  O   UNL     1      -0.608   1.615   0.963  0.00  0.00    -0.454 OA
ATOM     17  C   UNL     1      -0.870   0.342   1.304  0.00  0.00    +0.184 A 
ATOM     18  C   UNL     1      -0.359   0.117   2.529  0.00  0.00    +0.070 A 
ATOM     19 BR   UNL     1      -0.435  -1.504   3.501  0.00  0.00    -0.046 Br
ATOM     20 BR   UNL     1      -1.800  -0.917   0.244  0.00  0.00    -0.007 Br
ENDBRANCH  13  15
ENDBRANCH  10  13
ENDBRANCH   1  10
BRANCH   9  21
ATOM     21  C   UNL     1       6.996   6.458   0.151  0.00  0.00    +0.171 C 
BRANCH  21  22
ATOM     22  C   UNL     1       7.956   5.619   0.997  0.00  0.00    +0.179 C 
BRANCH  22  23
ATOM     23  O   UNL     1       9.231   6.261   1.049  0.00  0.00    -0.393 OA
ATOM     24  H   UNL     1       9.891   5.783   1.570  0.00  0.00    +0.209 HD
ENDBRANCH  22  23
ENDBRANCH  21  22
ENDBRANCH   9  21
TORSDOF 6
