REMARK  Name = ZINC42737471
REMARK  8 active torsions:
REMARK  status: ('A' for Active; 'I' for Inactive)
REMARK    1  A    between atoms: C_1  and  C_2
REMARK    2  A    between atoms: C_2  and  N_3
REMARK    3  A    between atoms: N_3  and  C_4
REMARK    4  A    between atoms: N_3  and  C_15
REMARK    5  A    between atoms: C_4  and  C_5
REMARK    6  A    between atoms: C_8  and  C_12
REMARK    7  A    between atoms: C_10  and  N_11
REMARK    8  A    between atoms: C_15  and  C_16
REMARK                            x       y       z     vdW  Elec       q    Type
REMARK                         _______ _______ _______ _____ _____    ______ ____
ROOT
ATOM      1  C   UNL     1       2.320  -2.110  -0.011  0.00  0.00    -0.013 A 
ATOM      2  C   UNL     1       3.674  -1.900  -0.190  0.00  0.00    +0.007 A 
ATOM      3  C   UNL     1       4.559  -2.162   0.835  0.00  0.00    +0.013 A 
ATOM      4  C   UNL     1       4.088  -2.641   2.059  0.00  0.00    +0.038 A 
ATOM      5  C   UNL     1       2.721  -2.853   2.240  0.00  0.00    +0.036 A 
ATOM      6  C   UNL     1       1.839  -2.581   1.205  0.00  0.00    +0.030 A 
ENDROOT
BRANCH   4   7
ATOM      7  C   UNL     1       5.034  -2.923   3.160  0.00  0.00    +0.242 C 
ATOM      8  O   UNL     1       4.622  -3.340   4.224  0.00  0.00    -0.270 OA
ATOM      9  N   UNL     1       6.354  -2.718   2.982  0.00  0.00    -0.325 N 
ATOM     10  H   UNL     1       6.684  -2.385   2.132  0.00  0.00    +0.145 HD
ATOM     11  H   UNL     1       6.975  -2.903   3.704  0.00  0.00    +0.145 HD
ENDBRANCH   4   7
BRANCH   6  12
ATOM     12  N   UNL     1       0.469  -2.786   1.383  0.00  0.00    -0.358 N 
ATOM     13  H   UNL     1      -0.134  -2.722   0.625  0.00  0.00    +0.142 HD
ATOM     14  H   UNL     1       0.120  -2.993   2.264  0.00  0.00    +0.142 HD
ENDBRANCH   6  12
BRANCH   1  15
ATOM     15  C   UNL     1       1.360  -1.822  -1.137  0.00  0.00    +0.121 C 
BRANCH  15  16
ATOM     16  N   UNL     1       0.848  -0.451  -1.004  0.00  0.00    -0.290 NA
BRANCH  16  18
ATOM     17  C   UNL     1      -1.424  -1.155  -0.421  0.00  0.00    +0.020 C 
ATOM     18  C   UNL     1      -0.189  -0.374   0.033  0.00  0.00    +0.081 C 
ENDBRANCH  16  18
BRANCH  16  19
ATOM     19  C   UNL     1       0.344   0.049  -2.290  0.00  0.00    +0.198 C 
BRANCH  19  20
ATOM     20  C   UNL     1       0.300   1.578  -2.261  0.00  0.00    +0.402 C 
ATOM     21  F   UNL     1       1.560   2.075  -1.909  0.00  0.00    -0.169 F 
ATOM     22  F   UNL     1      -0.054   2.059  -3.526  0.00  0.00    -0.169 F 
ATOM     23  F   UNL     1      -0.646   2.000  -1.321  0.00  0.00    -0.169 F 
ENDBRANCH  19  20
ENDBRANCH  16  19
ENDBRANCH  15  16
ENDBRANCH   1  15
TORSDOF 7
