REMARK  Name = ZINC35098271
REMARK  12 active torsions:
REMARK  status: ('A' for Active; 'I' for Inactive)
REMARK    1  A    between atoms: C_1  and  C_2
REMARK    2  A    between atoms: C_2  and  C_3
REMARK    3  A    between atoms: C_3  and  C_4
REMARK    4  A    between atoms: C_4  and  N_5
REMARK    5  A    between atoms: C_13  and  C_15
REMARK    6  A    between atoms: C_16  and  C_18
REMARK    7  A    between atoms: C_18  and  C_20
REMARK    8  A    between atoms: C_18  and  N_25
REMARK    9  A    between atoms: C_20  and  C_22
REMARK   10  A    between atoms: C_20  and  C_23
REMARK   11  A    between atoms: C_23  and  C_24
REMARK   12  A    between atoms: C_26  and  C_28
REMARK                            x       y       z     vdW  Elec       q    Type
REMARK                         _______ _______ _______ _____ _____    ______ ____
ROOT
ATOM      1  C   UNL     1       3.349  -4.618  -8.733  0.00  0.00    +0.162 C 
ENDROOT
BRANCH   1  12
ATOM      2  N   UNL     1      -1.359  -4.139  -4.049  0.00  0.00    -0.299 N 
ATOM      3  C   UNL     1      -0.547  -5.214  -4.011  0.00  0.00    +0.303 C 
ATOM      4  O   UNL     1      -0.792  -6.135  -3.257  0.00  0.00    -0.253 OA
ATOM      5  N   UNL     1       0.537  -5.268  -4.811  0.00  0.00    -0.280 N 
ATOM      6  C   UNL     1       0.914  -4.114  -5.638  0.00  0.00    +0.128 C 
ATOM      7  C   UNL     1       1.012  -4.570  -7.099  0.00  0.00    +0.127 C 
ATOM      8  N   UNL     1       1.839  -5.784  -7.158  0.00  0.00    -0.297 N 
ATOM      9  C   UNL     1       1.462  -6.938  -6.330  0.00  0.00    +0.130 C 
ATOM     10  C   UNL     1       1.367  -6.480  -4.865  0.00  0.00    +0.092 C 
ATOM     11  C   UNL     1       2.766  -6.169  -4.328  0.00  0.00    +0.030 C 
ATOM     12  C   UNL     1       2.923  -5.838  -7.957  0.00  0.00    +0.236 C 
ATOM     13  O   UNL     1       3.556  -6.868  -8.052  0.00  0.00    -0.274 OA
ATOM     14  H   UNL     1      -1.124  -3.372  -4.595  0.00  0.00    +0.150 HD
BRANCH   2  15
ATOM     15  C   UNL     1      -2.596  -4.128  -3.265  0.00  0.00    +0.106 C 
BRANCH  15  16
ATOM     16  C   UNL     1      -3.327  -2.801  -3.484  0.00  0.00    +0.018 C 
BRANCH  16  18
ATOM     17  C   UNL     1      -5.350  -1.464  -2.884  0.00  0.00    +0.004 C 
ATOM     18  C   UNL     1      -4.619  -2.790  -2.665  0.00  0.00    -0.002 C 
ENDBRANCH  16  18
ENDBRANCH  15  16
ENDBRANCH   2  15
ENDBRANCH   1  12
BRANCH   1  19
ATOM     19  N   UNL     1       3.901  -5.030 -10.026  0.00  0.00    -0.300 N 
ATOM     20  C   UNL     1       3.881  -4.177 -11.069  0.00  0.00    +0.245 C 
ATOM     21  O   UNL     1       3.405  -3.066 -10.938  0.00  0.00    -0.270 OA
ATOM     22  H   UNL     1       4.280  -5.916 -10.131  0.00  0.00    +0.150 HD
BRANCH  20  23
ATOM     23  C   UNL     1       4.438  -4.592 -12.373  0.00  0.00    +0.037 A 
ATOM     24  C   UNL     1       4.982  -5.881 -12.521  0.00  0.00    +0.013 A 
ATOM     25  C   UNL     1       5.500  -6.286 -13.709  0.00  0.00    +0.009 A 
ATOM     26  C   UNL     1       5.497  -5.412 -14.812  0.00  0.00    -0.018 A 
ATOM     27  C   UNL     1       6.027  -5.809 -16.052  0.00  0.00    +0.008 A 
ATOM     28  C   UNL     1       6.010  -4.942 -17.101  0.00  0.00    +0.001 A 
ATOM     29  C   UNL     1       5.474  -3.663 -16.967  0.00  0.00    +0.001 A 
ATOM     30  C   UNL     1       4.952  -3.243 -15.783  0.00  0.00    +0.008 A 
ATOM     31  C   UNL     1       4.952  -4.111 -14.676  0.00  0.00    -0.017 A 
ATOM     32  C   UNL     1       4.415  -3.712 -13.442  0.00  0.00    +0.021 A 
ENDBRANCH  20  23
ENDBRANCH   1  19
BRANCH   1  33
ATOM     33  C   UNL     1       4.414  -3.857  -7.942  0.00  0.00    +0.015 C 
ATOM     34  C   UNL     1       3.794  -3.292  -6.662  0.00  0.00    +0.010 C 
BRANCH  33  35
ATOM     35  C   UNL     1       5.556  -4.808  -7.579  0.00  0.00    +0.002 C 
ATOM     36  C   UNL     1       6.678  -4.022  -6.898  0.00  0.00    +0.004 C 
ENDBRANCH  33  35
ENDBRANCH   1  33
TORSDOF 8
