REMARK  Name = ZINC58982884
REMARK  5 active torsions:
REMARK  status: ('A' for Active; 'I' for Inactive)
REMARK    1  A    between atoms: C_4  and  S_10
REMARK    2  A    between atoms: C_5  and  N_7
REMARK    3  A    between atoms: S_10  and  C_11
REMARK    4  A    between atoms: C_25  and  C_33
REMARK    5  A    between atoms: CA_28  and  C_30
REMARK                            x       y       z     vdW  Elec       q    Type
REMARK                         _______ _______ _______ _____ _____    ______ ____
ROOT
ATOM      1  C   UNL     1       5.046   0.632   0.057  0.00  0.00    +0.070 C 
ATOM      2  C   UNL     1       6.506   0.132   0.075  0.00  0.00    +0.022 C 
ATOM      3  C   UNL     1       6.931   0.169  -1.409  0.00  0.00    +0.030 C 
ATOM      4  C   UNL     1       6.251   1.439  -1.946  0.00  0.00    +0.045 C 
ATOM      5  C   UNL     1       4.879   1.460  -1.230  0.00  0.00    +0.101 C 
ATOM      6 CL   UNL     1       4.420   3.154  -0.819  0.00  0.00    -0.120 Cl
ATOM      7  C   UNL     1       7.005   2.683  -1.559  0.00  0.00    -0.021 A 
ATOM      8  C   UNL     1       6.388   3.910  -1.754  0.00  0.00    +0.006 A 
ATOM      9  C   UNL     1       7.030   5.088  -1.417  0.00  0.00    +0.001 A 
ATOM     10  C   UNL     1       8.299   5.062  -0.879  0.00  0.00    +0.015 A 
ATOM     11  C   UNL     1       8.937   3.837  -0.674  0.00  0.00    +0.058 A 
ATOM     12  C   UNL     1       8.279   2.645  -1.019  0.00  0.00    +0.044 A 
ATOM     13  N   UNL     1       8.926   1.431  -0.811  0.00  0.00    -0.330 N 
ATOM     14  CA  UNL     1       8.446   0.245  -1.531  0.00  0.00    +0.188 C 
ATOM     15  H   UNL     1       9.675   1.365  -0.199  0.00  0.00    +0.147 HD
ENDROOT
BRANCH  11  16
ATOM     16  C   UNL     1      10.293   3.795  -0.098  0.00  0.00    +0.243 C 
ATOM     17  O   UNL     1      10.889   2.738  -0.023  0.00  0.00    -0.270 OA
ATOM     18  N   UNL     1      10.873   4.929   0.345  0.00  0.00    -0.325 N 
ATOM     19  H   UNL     1      10.397   5.772   0.285  0.00  0.00    +0.145 HD
ATOM     20  H   UNL     1      11.765   4.901   0.723  0.00  0.00    +0.145 HD
ENDBRANCH  11  16
BRANCH  14  21
ATOM     21  C   UNL     1       8.829   0.379  -2.982  0.00  0.00    +0.376 C 
ATOM     22  O   UNL     1       9.289   1.429  -3.397  0.00  0.00    -0.244 OA
ATOM     23  OXT UNL     1       8.678  -0.562  -3.742  0.00  0.00    -0.244 OA
ENDBRANCH  14  21
BRANCH   1  24
ATOM     24  S   UNL     1       3.906  -0.779   0.040  0.00  0.00    -0.118 S 
BRANCH  24  28
ATOM     25  C   UNL     1       4.131  -2.421   4.255  0.00  0.00    +0.002 A 
ATOM     26  C   UNL     1       4.794  -1.250   3.934  0.00  0.00    +0.001 A 
ATOM     27  C   UNL     1       4.728  -0.747   2.650  0.00  0.00    +0.017 A 
ATOM     28  C   UNL     1       3.994  -1.418   1.679  0.00  0.00    +0.038 A 
ATOM     29  C   UNL     1       3.330  -2.594   2.005  0.00  0.00    +0.140 A 
ATOM     30  C   UNL     1       3.400  -3.092   3.292  0.00  0.00    +0.034 A 
BRANCH  29  31
ATOM     31  N   UNL     1       2.547  -3.313   0.975  0.00  0.00    +0.058 N 
ATOM     32  O   UNL     1       1.969  -4.336   1.259  0.00  0.00    -0.126 OA
ATOM     33  O   UNL     1       2.485  -2.877  -0.151  0.00  0.00    -0.126 OA
ENDBRANCH  29  31
ENDBRANCH  24  28
ENDBRANCH   1  24
TORSDOF 5
