REMARK  Name = ZINC35515306
REMARK  10 active torsions:
REMARK  status: ('A' for Active; 'I' for Inactive)
REMARK    1  A    between atoms: C_1  and  C_2
REMARK    2  A    between atoms: C_2  and  C_3
REMARK    3  A    between atoms: C_3  and  C_4
REMARK    4  A    between atoms: C_4  and  O_5
REMARK    5  A    between atoms: O_5  and  C_6
REMARK    6  A    between atoms: C_9  and  C_15
REMARK    7  A    between atoms: C_11  and  O_12
REMARK    8  A    between atoms: O_12  and  C_13
REMARK    9  A    between atoms: C_13  and  C_14
REMARK   10  A    between atoms: C_34  and  C_37
REMARK                            x       y       z     vdW  Elec       q    Type
REMARK                         _______ _______ _______ _____ _____    ______ ____
ROOT
ATOM      1  C   UNL     1      -3.411  -8.156  -0.009  0.00  0.00    +0.151 C 
ATOM      2  C   UNL     1      -3.196  -8.705   1.363  0.00  0.00    +0.072 A 
ATOM      3  C   UNL     1      -3.897  -8.451   2.627  0.00  0.00    +0.199 A 
ATOM      4  O   UNL     1      -4.939  -7.824   2.697  0.00  0.00    -0.287 OA
ATOM      5  C   UNL     1      -3.215  -9.031   3.811  0.00  0.00    +0.066 A 
ATOM      6  C   UNL     1      -3.643  -8.710   5.099  0.00  0.00    +0.035 A 
ATOM      7  C   UNL     1      -2.995  -9.253   6.188  0.00  0.00    +0.042 A 
ATOM      8  C   UNL     1      -1.922 -10.115   5.999  0.00  0.00    +0.023 A 
ATOM      9  C   UNL     1      -1.492 -10.440   4.733  0.00  0.00    +0.048 A 
ATOM     10  C   UNL     1      -2.133  -9.905   3.615  0.00  0.00    +0.140 A 
ATOM     11  O   UNL     1      -1.696 -10.248   2.382  0.00  0.00    -0.450 OA
ATOM     12  C   UNL     1      -2.143  -9.574   1.304  0.00  0.00    +0.199 A 
ATOM     13  C   UNL     1      -1.649  -9.607  -0.083  0.00  0.00    +0.288 C 
ATOM     14  O   UNL     1      -0.715 -10.280  -0.473  0.00  0.00    -0.266 OA
ATOM     15  N   UNL     1      -2.385  -8.783  -0.858  0.00  0.00    -0.238 N 
ATOM     16  C   UNL     1      -2.206  -8.562  -2.222  0.00  0.00    +0.129 A 
ATOM     17  C   UNL     1      -2.971  -7.599  -2.871  0.00  0.00    +0.044 A 
ATOM     18  C   UNL     1      -2.783  -7.391  -4.225  0.00  0.00    +0.008 A 
ATOM     19  C   UNL     1      -1.831  -8.156  -4.887  0.00  0.00    -0.032 A 
ATOM     20  C   UNL     1      -1.107  -9.095  -4.180  0.00  0.00    +0.116 A 
ATOM     21  N   UNL     1      -1.305  -9.268  -2.887  0.00  0.00    -0.240 NA
ATOM     22  C   UNL     1      -1.592  -7.963  -6.363  0.00  0.00    +0.045 C 
ATOM     23 CL   UNL     1      -3.521  -8.861   7.795  0.00  0.00    -0.084 Cl
ENDROOT
BRANCH   1  27
ATOM     24  C   UNL     1      -2.913  -3.909   0.009  0.00  0.00    +0.162 A 
ATOM     25  C   UNL     1      -1.804  -4.739  -0.000  0.00  0.00    +0.050 A 
ATOM     26  C   UNL     1      -1.968  -6.112  -0.006  0.00  0.00    +0.009 A 
ATOM     27  C   UNL     1      -3.238  -6.659  -0.002  0.00  0.00    -0.018 A 
ATOM     28  C   UNL     1      -4.348  -5.836   0.006  0.00  0.00    +0.055 A 
ATOM     29  C   UNL     1      -4.191  -4.460   0.018  0.00  0.00    +0.162 A 
BRANCH  24  30
ATOM     30  O   UNL     1      -2.753  -2.558   0.015  0.00  0.00    -0.488 OA
BRANCH  30  31
ATOM     31  C   UNL     1      -1.413  -2.063   0.004  0.00  0.00    +0.229 C 
BRANCH  31  32
ATOM     32  C   UNL     1      -1.433  -0.534   0.013  0.00  0.00    +0.041 C 
BRANCH  32  34
ATOM     33  C   UNL     1      -0.019   1.526   0.010  0.00  0.00    +0.004 C 
ATOM     34  C   UNL     1       0.002  -0.004   0.002  0.00  0.00    -0.000 C 
ENDBRANCH  32  34
ENDBRANCH  31  32
ENDBRANCH  30  31
ENDBRANCH  24  30
BRANCH  29  35
ATOM     35  O   UNL     1      -5.282  -3.649   0.033  0.00  0.00    -0.489 OA
BRANCH  35  36
ATOM     36  C   UNL     1      -6.562  -4.284   0.042  0.00  0.00    +0.226 C 
ATOM     37  C   UNL     1      -7.660  -3.219   0.058  0.00  0.00    +0.048 C 
ENDBRANCH  35  36
ENDBRANCH  29  35
ENDBRANCH   1  27
TORSDOF 7
