REMARK  Name = ZINC02543072
REMARK  9 active torsions:
REMARK  status: ('A' for Active; 'I' for Inactive)
REMARK    1  A    between atoms: C_1  and  C_2
REMARK    2  A    between atoms: C_7  and  O_8
REMARK    3  A    between atoms: O_8  and  C_9
REMARK    4  A    between atoms: C_9  and  C_10
REMARK    5  A    between atoms: N_12  and  N_13
REMARK    6  A    between atoms: C_14  and  C_15
REMARK    7  A    between atoms: C_20  and  O_21
REMARK    8  A    between atoms: O_21  and  C_22
REMARK    9  A    between atoms: C_22  and  C_24
REMARK                            x       y       z     vdW  Elec       q    Type
REMARK                         _______ _______ _______ _____ _____    ______ ____
ROOT
ATOM      1  C   UNL     1      -0.354   3.068  -0.128  0.00  0.00    +0.037 A 
ATOM      2  C   UNL     1      -0.057   1.711  -0.274  0.00  0.00    +0.013 A 
ATOM      3  C   UNL     1       1.251   1.308  -0.439  0.00  0.00    +0.001 A 
ATOM      4  C   UNL     1       2.271   2.244  -0.471  0.00  0.00    +0.004 A 
ATOM      5  C   UNL     1       1.990   3.590  -0.332  0.00  0.00    +0.047 A 
ATOM      6  C   UNL     1       0.681   4.012  -0.160  0.00  0.00    +0.141 A 
ENDROOT
BRANCH   1   8
ATOM      7  N   UNL     1      -2.028   4.771   0.141  0.00  0.00    -0.188 NA
ATOM      8  C   UNL     1      -1.750   3.506   0.054  0.00  0.00    +0.142 C 
BRANCH   7  11
ATOM      9  C   UNL     1      -3.623   6.496   0.521  0.00  0.00    +0.270 C 
ATOM     10  O   UNL     1      -2.762   7.323   0.310  0.00  0.00    -0.270 OA
ATOM     11  N   UNL     1      -3.341   5.183   0.403  0.00  0.00    -0.204 N 
ATOM     12  H   UNL     1      -4.046   4.524   0.500  0.00  0.00    +0.177 HD
BRANCH   9  13
ATOM     13  C   UNL     1      -5.010   6.935   0.915  0.00  0.00    +0.326 C 
BRANCH  13  14
ATOM     14  O   UNL     1      -5.059   8.362   0.972  0.00  0.00    -0.482 OA
BRANCH  14  21
ATOM     15  C   UNL     1      -5.178  11.182   1.090  0.00  0.00    +0.047 C 
ATOM     16  C   UNL     1      -6.367  10.305   1.390  0.00  0.00    -0.009 A 
ATOM     17  C   UNL     1      -7.576  10.875   1.739  0.00  0.00    +0.007 A 
ATOM     18  C   UNL     1      -8.667  10.072   2.013  0.00  0.00    +0.000 A 
ATOM     19  C   UNL     1      -8.551   8.696   1.939  0.00  0.00    +0.004 A 
ATOM     20  C   UNL     1      -7.346   8.121   1.585  0.00  0.00    +0.046 A 
ATOM     21  C   UNL     1      -6.248   8.925   1.315  0.00  0.00    +0.124 A 
ENDBRANCH  14  21
ENDBRANCH  13  14
ENDBRANCH   9  13
ENDBRANCH   7  11
ENDBRANCH   1   8
BRANCH   6  22
ATOM     22  O   UNL     1       0.404   5.335  -0.023  0.00  0.00    -0.422 OA
BRANCH  22  23
ATOM     23  C   UNL     1       0.349   5.821   1.232  0.00  0.00    +0.344 C 
ATOM     24  O   UNL     1       0.461   5.070   2.180  0.00  0.00    -0.245 OA
BRANCH  23  25
ATOM     25  C   UNL     1       0.153   7.268   1.455  0.00  0.00    +0.059 A 
ATOM     26  C   UNL     1       0.029   8.134   0.367  0.00  0.00    +0.016 A 
ATOM     27  C   UNL     1      -0.160   9.483   0.582  0.00  0.00    +0.021 A 
ATOM     28  C   UNL     1      -0.213   9.981   1.873  0.00  0.00    +0.041 A 
ATOM     29  C   UNL     1      -0.085   9.127   2.957  0.00  0.00    +0.021 A 
ATOM     30  C   UNL     1       0.098   7.776   2.755  0.00  0.00    +0.016 A 
ATOM     31 CL   UNL     1      -0.443  11.681   2.135  0.00  0.00    -0.084 Cl
ENDBRANCH  23  25
ENDBRANCH  22  23
ENDBRANCH   6  22
TORSDOF 8
