REMARK  Name = ZINC55098951
REMARK  9 active torsions:
REMARK  status: ('A' for Active; 'I' for Inactive)
REMARK    1  A    between atoms: C_1  and  C_2
REMARK    2  A    between atoms: C_3  and  C_27
REMARK    3  A    between atoms: C_8  and  C_10
REMARK    4  A    between atoms: C_10  and  N_11
REMARK    5  A    between atoms: N_11  and  C_12
REMARK    6  A    between atoms: C_12  and  C_13
REMARK    7  A    between atoms: C_14  and  C_26
REMARK    8  A    between atoms: N_15  and  C_22
REMARK    9  A    between atoms: C_22  and  C_23
REMARK                            x       y       z     vdW  Elec       q    Type
REMARK                         _______ _______ _______ _____ _____    ______ ____
ROOT
ATOM      1  C   UNL     1      -2.694  -2.289   7.165  0.00  0.00    -0.036 A 
ATOM      2  C   UNL     1      -3.550  -1.326   7.543  0.00  0.00    +0.019 A 
ATOM      3  N   UNL     1      -4.735  -1.884   7.937  0.00  0.00    -0.335 N 
ATOM      4  C   UNL     1      -4.670  -3.254   7.819  0.00  0.00    +0.050 A 
ATOM      5  C   UNL     1      -3.391  -3.568   7.324  0.00  0.00    +0.001 A 
ATOM      6  C   UNL     1      -3.039  -4.899   7.097  0.00  0.00    +0.010 A 
ATOM      7  C   UNL     1      -3.942  -5.893   7.353  0.00  0.00    +0.001 A 
ATOM      8  C   UNL     1      -5.207  -5.588   7.837  0.00  0.00    +0.002 A 
ATOM      9  C   UNL     1      -5.572  -4.281   8.077  0.00  0.00    +0.026 A 
ATOM     10  C   UNL     1      -3.248   0.150   7.535  0.00  0.00    +0.064 C 
ENDROOT
BRANCH   1  11
ATOM     11  C   UNL     1      -1.286  -2.092   6.666  0.00  0.00    -0.044 C 
BRANCH  11  12
ATOM     12  N   UNL     1      -1.302  -1.931   5.206  0.00  0.00    +0.385 N 
ATOM     13  H   UNL     1      -1.861  -1.128   4.962  0.00  0.00    -0.085 HD
ATOM     14  H   UNL     1      -1.697  -2.757   4.781  0.00  0.00    -0.085 HD
BRANCH  12  15
ATOM     15  C   UNL     1       0.070  -1.739   4.719  0.00  0.00    -0.024 C 
BRANCH  15  23
ATOM     16  C   UNL     1      -0.018   1.503   0.010  0.00  0.00    +0.065 C 
ATOM     17  C   UNL     1       0.002  -0.004   0.002  0.00  0.00    +0.032 A 
ATOM     18  C   UNL     1       0.005  -0.656  -1.160  0.00  0.00    +0.010 A 
ATOM     19  S   UNL     1       0.032  -2.360  -0.627  0.00  0.00    -0.054 S 
ATOM     20  C   UNL     1       0.036  -2.059   1.125  0.00  0.00    +0.178 A 
ATOM     21  N   UNL     1       0.023  -0.691   1.196  0.00  0.00    -0.297 N 
ATOM     22  C   UNL     1       0.031  -0.406   2.559  0.00  0.00    +0.114 A 
ATOM     23  C   UNL     1       0.054  -1.575   3.221  0.00  0.00    +0.044 A 
ATOM     24  N   UNL     1       0.049  -2.571   2.322  0.00  0.00    -0.228 NA
ATOM     25  C   UNL     1      -0.009  -0.099  -2.560  0.00  0.00    +0.053 C 
ENDBRANCH  15  23
ENDBRANCH  12  15
ENDBRANCH  11  12
ENDBRANCH   1  11
BRANCH   3  26
ATOM     26  C   UNL     1      -5.901  -1.134   8.413  0.00  0.00    +0.217 C 
BRANCH  26  27
ATOM     27  C   UNL     1      -6.786  -0.786   7.244  0.00  0.00    +0.230 C 
ATOM     28  O   UNL     1      -6.474  -1.129   6.123  0.00  0.00    -0.274 OA
ATOM     29  N   UNL     1      -7.924  -0.092   7.444  0.00  0.00    -0.328 N 
ATOM     30  H   UNL     1      -8.174   0.183   8.340  0.00  0.00    +0.145 HD
ATOM     31  H   UNL     1      -8.493   0.132   6.691  0.00  0.00    +0.145 HD
ENDBRANCH  26  27
ENDBRANCH   3  26
TORSDOF 6
