REMARK  Name = ZINC40927373
REMARK  11 active torsions:
REMARK  status: ('A' for Active; 'I' for Inactive)
REMARK    1  A    between atoms: C_1  and  C_2
REMARK    2  A    between atoms: C_5  and  C_8
REMARK    3  A    between atoms: C_10  and  C_13
REMARK    4  A    between atoms: C_13  and  N_14
REMARK    5  A    between atoms: C_17  and  C_20
REMARK    6  A    between atoms: C_25  and  N_28
REMARK    7  A    between atoms: C_29  and  O_31
REMARK    8  A    between atoms: O_31  and  C_32
REMARK    9  A    between atoms: C_32  and  C_33
REMARK   10  A    between atoms: C_32  and  C_34
REMARK   11  A    between atoms: C_32  and  C_35
REMARK                            x       y       z     vdW  Elec       q    Type
REMARK                         _______ _______ _______ _____ _____    ______ ____
ROOT
ATOM      1  N   UNL     1      -1.272  -7.894   1.944  0.00  0.00    +0.386 N 
ATOM      2  C   UNL     1      -1.920  -8.375   0.718  0.00  0.00    -0.077 C 
ATOM      3  C   UNL     1      -3.384  -8.714   1.009  0.00  0.00    -0.006 C 
ATOM      4  C   UNL     1      -3.446  -9.805   2.083  0.00  0.00    +0.072 C 
ATOM      5  C   UNL     1      -2.702  -9.320   3.331  0.00  0.00    -0.006 C 
ATOM      6  C   UNL     1      -1.264  -8.959   2.954  0.00  0.00    -0.077 C 
ATOM      7  H   UNL     1      -1.780  -7.098   2.300  0.00  0.00    -0.081 HD
ENDROOT
BRANCH   4   8
ATOM      8  C   UNL     1      -4.884 -10.088   2.431  0.00  0.00    +0.219 C 
ATOM      9  O   UNL     1      -5.398  -9.537   3.382  0.00  0.00    -0.275 OA
ATOM     10  N   UNL     1      -5.600 -10.954   1.686  0.00  0.00    -0.301 N 
ATOM     11  C   UNL     1      -4.963 -11.710   0.599  0.00  0.00    +0.109 C 
ATOM     12  C   UNL     1      -5.760 -11.487  -0.690  0.00  0.00    +0.041 C 
ATOM     13  C   UNL     1      -7.227 -11.849  -0.447  0.00  0.00    +0.079 C 
ATOM     14  C   UNL     1      -7.805 -10.942   0.641  0.00  0.00    +0.041 C 
ATOM     15  C   UNL     1      -7.030 -11.163   1.949  0.00  0.00    +0.109 C 
BRANCH  13  16
ATOM     16  N   UNL     1      -7.986 -11.668  -1.687  0.00  0.00    -0.278 N 
ATOM     17  C   UNL     1      -9.122 -12.364  -1.890  0.00  0.00    +0.401 C 
ATOM     18  O   UNL     1      -9.517 -13.142  -1.044  0.00  0.00    -0.226 OA
ATOM     19  H   UNL     1      -7.670 -11.047  -2.363  0.00  0.00    +0.152 HD
BRANCH  17  20
ATOM     20  O   UNL     1      -9.819 -12.197  -3.029  0.00  0.00    -0.445 OA
BRANCH  20  21
ATOM     21  C   UNL     1     -11.014 -12.967  -3.177  0.00  0.00    +0.107 C 
ATOM     22  C   UNL     1     -11.986 -12.623  -2.046  0.00  0.00    +0.055 C 
ATOM     23  C   UNL     1     -11.665 -12.646  -4.524  0.00  0.00    +0.055 C 
ATOM     24  C   UNL     1     -10.671 -14.457  -3.119  0.00  0.00    +0.055 C 
ENDBRANCH  20  21
ENDBRANCH  17  20
ENDBRANCH  13  16
ENDBRANCH   4   8
BRANCH   1  25
ATOM     25  C   UNL     1       0.109  -7.496   1.642  0.00  0.00    +0.022 C 
BRANCH  25  28
ATOM     26  C   UNL     1       0.080  -4.285  -0.049  0.00  0.00    +0.202 A 
ATOM     27  N   UNL     1       0.084  -5.066   1.046  0.00  0.00    -0.193 NA
ATOM     28  C   UNL     1       0.099  -6.322   0.699  0.00  0.00    +0.211 A 
ATOM     29  O   UNL     1       0.106  -6.392  -0.639  0.00  0.00    -0.340 OA
ATOM     30  N   UNL     1       0.088  -5.053  -1.111  0.00  0.00    -0.056 NA
BRANCH  26  35
ATOM     31  C   UNL     1       0.011   1.474  -0.068  0.00  0.00    +0.044 C 
ATOM     32  C   UNL     1       0.029  -0.033  -0.063  0.00  0.00    -0.050 A 
ATOM     33  C   UNL     1       0.037  -0.726  -1.260  0.00  0.00    +0.004 A 
ATOM     34  C   UNL     1       0.054  -2.106  -1.261  0.00  0.00    +0.012 A 
ATOM     35  C   UNL     1       0.062  -2.801  -0.054  0.00  0.00    +0.022 A 
ATOM     36  C   UNL     1       0.054  -2.098   1.149  0.00  0.00    +0.012 A 
ATOM     37  C   UNL     1       0.043  -0.718   1.139  0.00  0.00    +0.004 A 
ENDBRANCH  26  35
ENDBRANCH  25  28
ENDBRANCH   1  25
TORSDOF 7
