REMARK  Name = ZINC39631611
REMARK  14 active torsions:
REMARK  status: ('A' for Active; 'I' for Inactive)
REMARK    1  A    between atoms: C_1  and  C_2
REMARK    2  A    between atoms: C_2  and  O_3
REMARK    3  A    between atoms: O_3  and  C_4
REMARK    4  A    between atoms: C_9  and  C_10
REMARK    5  A    between atoms: C_14  and  C_23
REMARK    6  A    between atoms: N_25  and  C_26
REMARK    7  A    between atoms: C_26  and  C_28
REMARK    8  A    between atoms: C_26  and  C_29
REMARK    9  A    between atoms: C_29  and  C_30
REMARK   10  A    between atoms: C_30  and  C_31
REMARK   11  A    between atoms: C_31  and  C_32
REMARK   12  A    between atoms: C_32  and  C_33
REMARK   13  A    between atoms: C_32  and  C_34
REMARK   14  A    between atoms: C_32  and  O_35
REMARK                            x       y       z     vdW  Elec       q    Type
REMARK                         _______ _______ _______ _____ _____    ______ ____
ROOT
ATOM      1  C   UNL     1      -3.833  -1.706   0.115  0.00  0.00    +0.250 C 
ATOM      2  O   UNL     1      -3.650  -0.504   0.137  0.00  0.00    -0.270 OA
ATOM      3  N   UNL     1      -5.079  -2.196  -0.035  0.00  0.00    -0.296 N 
ATOM      4  C   UNL     1      -5.512  -3.612   0.021  0.00  0.00    +0.121 C 
ATOM      5  C   UNL     1      -6.862  -3.579   0.772  0.00  0.00    +0.100 C 
ATOM      6  C   UNL     1      -7.393  -2.151   0.561  0.00  0.00    -0.004 C 
ATOM      7  C   UNL     1      -6.329  -1.438  -0.286  0.00  0.00    +0.115 C 
ATOM      8  C   UNL     1      -7.552  -1.442   1.903  0.00  0.00    -0.010 C 
ATOM      9  C   UNL     1      -8.135  -0.045   1.671  0.00  0.00    -0.082 C 
ATOM     10  N   UNL     1      -9.435  -0.161   0.999  0.00  0.00    +0.379 N 
ATOM     11  C   UNL     1      -9.260  -0.760  -0.330  0.00  0.00    -0.082 C 
ATOM     12  C   UNL     1      -8.725  -2.187  -0.183  0.00  0.00    -0.010 C 
ATOM     13  H   UNL     1     -10.046  -0.744   1.551  0.00  0.00    -0.086 HD
ATOM     14  H   UNL     1      -9.845   0.756   0.903  0.00  0.00    -0.086 HD
ENDROOT
BRANCH   1  20
ATOM     15  C   UNL     1      -1.600  -2.285   1.065  0.00  0.00    +0.133 A 
ATOM     16  C   UNL     1      -0.534  -3.163   1.192  0.00  0.00    +0.046 A 
ATOM     17  C   UNL     1      -0.543  -4.366   0.515  0.00  0.00    +0.004 A 
ATOM     18  C   UNL     1      -1.616  -4.707  -0.294  0.00  0.00    +0.001 A 
ATOM     19  C   UNL     1      -2.684  -3.848  -0.430  0.00  0.00    +0.017 A 
ATOM     20  C   UNL     1      -2.689  -2.629   0.253  0.00  0.00    +0.078 A 
BRANCH  15  21
ATOM     21  O   UNL     1      -1.592  -1.102   1.729  0.00  0.00    -0.491 OA
BRANCH  21  23
ATOM     22  C   UNL     1      -0.618   0.547   3.202  0.00  0.00    +0.048 C 
ATOM     23  C   UNL     1      -0.448  -0.821   2.538  0.00  0.00    +0.226 C 
ENDBRANCH  21  23
ENDBRANCH  15  21
ENDBRANCH   1  20
BRANCH   5  24
ATOM     24  C   UNL     1      -7.814  -4.588   0.184  0.00  0.00    +0.218 C 
ATOM     25  O   UNL     1      -7.758  -4.858  -0.997  0.00  0.00    -0.275 OA
ATOM     26  N   UNL     1      -8.729  -5.189   0.971  0.00  0.00    -0.312 N 
ATOM     27  H   UNL     1      -8.774  -4.973   1.915  0.00  0.00    +0.149 HD
BRANCH  26  28
ATOM     28  C   UNL     1      -9.655  -6.170   0.399  0.00  0.00    +0.070 C 
ATOM     29  C   UNL     1      -8.988  -7.546   0.373  0.00  0.00    +0.028 C 
BRANCH  28  30
ATOM     30  C   UNL     1     -10.922  -6.234   1.254  0.00  0.00    +0.022 C 
BRANCH  30  31
ATOM     31  C   UNL     1     -11.656  -4.893   1.179  0.00  0.00    +0.005 C 
BRANCH  31  32
ATOM     32  C   UNL     1     -12.923  -4.957   2.034  0.00  0.00    +0.034 C 
BRANCH  32  33
ATOM     33  C   UNL     1     -13.656  -3.616   1.960  0.00  0.00    +0.061 C 
ATOM     34  C   UNL     1     -14.036  -3.323   0.507  0.00  0.00    +0.041 C 
ATOM     35  C   UNL     1     -14.924  -3.680   2.815  0.00  0.00    +0.041 C 
BRANCH  33  36
ATOM     36  O   UNL     1     -12.804  -2.579   2.449  0.00  0.00    -0.389 OA
ATOM     37  H   UNL     1     -12.523  -2.700   3.366  0.00  0.00    +0.210 HD
ENDBRANCH  33  36
ENDBRANCH  32  33
ENDBRANCH  31  32
ENDBRANCH  30  31
ENDBRANCH  28  30
ENDBRANCH  26  28
ENDBRANCH   5  24
TORSDOF 10
