REMARK  Name = ZINC23449379
REMARK  8 active torsions:
REMARK  status: ('A' for Active; 'I' for Inactive)
REMARK    1  A    between atoms: C_4  and  C_7
REMARK    2  A    between atoms: C_7  and  N_8
REMARK    3  A    between atoms: C_9  and  C_28
REMARK    4  A    between atoms: C_12  and  S_13
REMARK    5  A    between atoms: S_13  and  C_14
REMARK    6  A    between atoms: C_14  and  C_15
REMARK    7  A    between atoms: N_17  and  C_18
REMARK    8  A    between atoms: C_23  and  N_24
REMARK                            x       y       z     vdW  Elec       q    Type
REMARK                         _______ _______ _______ _____ _____    ______ ____
ROOT
ATOM      1  N   UNL     1       4.215  -0.982   1.342  0.00  0.00    -0.297 N 
ATOM      2  C   UNL     1       5.012  -0.173   2.121  0.00  0.00    +0.172 A 
ATOM      3  N   UNL     1       5.165  -0.782   3.277  0.00  0.00    -0.128 NA
ATOM      4  N   UNL     1       4.528  -1.898   3.272  0.00  0.00    -0.122 NA
ATOM      5  C   UNL     1       3.924  -2.069   2.118  0.00  0.00    +0.193 A 
ENDROOT
BRANCH   2   6
ATOM      6  C   UNL     1       5.585   1.127   1.734  0.00  0.00    +0.056 A 
ATOM      7  C   UNL     1       6.147   2.095   2.528  0.00  0.00    +0.019 A 
ATOM      8  C   UNL     1       6.621   3.243   1.933  0.00  0.00    +0.008 A 
ATOM      9  C   UNL     1       6.519   3.382   0.586  0.00  0.00    +0.046 A 
ATOM     10  S   UNL     1       5.737   1.850   0.109  0.00  0.00    -0.094 S 
ENDBRANCH   2   6
BRANCH   1  11
ATOM     11  C   UNL     1       3.768  -0.727  -0.030  0.00  0.00    +0.161 C 
BRANCH  11  15
ATOM     12  C   UNL     1       0.066   1.403   0.051  0.00  0.00    +0.000 A 
ATOM     13  C   UNL     1       1.262   2.096   0.037  0.00  0.00    +0.000 A 
ATOM     14  C   UNL     1       2.460   1.407   0.011  0.00  0.00    +0.005 A 
ATOM     15  C   UNL     1       2.462   0.024  -0.000  0.00  0.00    -0.028 A 
ATOM     16  C   UNL     1       1.266  -0.669   0.015  0.00  0.00    +0.005 A 
ATOM     17  C   UNL     1       0.068   0.021   0.039  0.00  0.00    +0.000 A 
ENDBRANCH  11  15
ENDBRANCH   1  11
BRANCH   5  18
ATOM     18  S   UNL     1       2.929  -3.447   1.654  0.00  0.00    -0.077 S 
BRANCH  18  19
ATOM     19  C   UNL     1       2.948  -4.516   3.120  0.00  0.00    +0.173 C 
BRANCH  19  20
ATOM     20  C   UNL     1       2.122  -5.748   2.854  0.00  0.00    +0.228 C 
ATOM     21  O   UNL     1       1.574  -5.891   1.782  0.00  0.00    -0.275 OA
ATOM     22  N   UNL     1       1.992  -6.690   3.809  0.00  0.00    -0.283 N 
ATOM     23  H   UNL     1       2.482  -6.608   4.642  0.00  0.00    +0.155 HD
BRANCH  22  24
ATOM     24  C   UNL     1       1.150  -7.789   3.598  0.00  0.00    +0.064 A 
ATOM     25  C   UNL     1       1.030  -8.339   2.328  0.00  0.00    +0.027 A 
ATOM     26  C   UNL     1       0.200  -9.423   2.123  0.00  0.00    +0.022 A 
ATOM     27  C   UNL     1      -0.513  -9.960   3.180  0.00  0.00    +0.043 A 
ATOM     28  C   UNL     1      -0.396  -9.414   4.446  0.00  0.00    +0.054 A 
ATOM     29  C   UNL     1       0.438  -8.333   4.658  0.00  0.00    +0.149 A 
ATOM     30 CL   UNL     1      -1.558 -11.322   2.918  0.00  0.00    -0.083 Cl
BRANCH  29  31
ATOM     31  N   UNL     1       0.568  -7.753   6.013  0.00  0.00    +0.058 N 
ATOM     32  O   UNL     1       0.026  -8.285   6.954  0.00  0.00    -0.126 OA
ATOM     33  O   UNL     1       1.217  -6.747   6.180  0.00  0.00    -0.126 OA
ENDBRANCH  29  31
ENDBRANCH  22  24
ENDBRANCH  19  20
ENDBRANCH  18  19
ENDBRANCH   5  18
TORSDOF 8
