REMARK  Name = ZINC35457719
REMARK  8 active torsions:
REMARK  status: ('A' for Active; 'I' for Inactive)
REMARK    1  A    between atoms: C_1  and  C_2
REMARK    2  A    between atoms: C_2  and  C_3
REMARK    3  A    between atoms: C_7  and  C_12
REMARK    4  A    between atoms: C_12  and  C_13
REMARK    5  A    between atoms: C_13  and  C_14
REMARK    6  A    between atoms: N_16  and  C_17
REMARK    7  A    between atoms: N_20  and  C_23
REMARK    8  A    between atoms: C_23  and  C_24
REMARK                            x       y       z     vdW  Elec       q    Type
REMARK                         _______ _______ _______ _____ _____    ______ ____
ROOT
ATOM      1  C   UNL     1       6.933  -0.274   2.736  0.00  0.00    +0.103 C 
ENDROOT
BRANCH   1   2
ATOM      2  C   UNL     1       8.364  -0.590   3.085  0.00  0.00    +0.214 C 
ATOM      3  O   UNL     1       8.806  -1.702   2.887  0.00  0.00    -0.276 OA
ATOM      4  N   UNL     1       9.153   0.363   3.619  0.00  0.00    -0.313 N 
ATOM      5  H   UNL     1       8.800   1.253   3.778  0.00  0.00    +0.149 HD
BRANCH   4   6
ATOM      6  C   UNL     1      10.545   0.057   3.959  0.00  0.00    +0.069 C 
ATOM      7  C   UNL     1      10.606  -0.558   5.360  0.00  0.00    +0.003 C 
ATOM      8  C   UNL     1      12.068  -0.803   5.741  0.00  0.00    -0.077 C 
ATOM      9  N   UNL     1      12.799   0.470   5.731  0.00  0.00    +0.382 N 
ATOM     10  C   UNL     1      12.806   1.030   4.374  0.00  0.00    -0.077 C 
ATOM     11  C   UNL     1      11.373   1.345   3.941  0.00  0.00    +0.003 C 
ATOM     12  H   UNL     1      12.351   1.119   6.359  0.00  0.00    -0.081 HD
BRANCH   9  13
ATOM     13  C   UNL     1      14.182   0.242   6.172  0.00  0.00    -0.043 C 
BRANCH  13  14
ATOM     14  C   UNL     1      14.899   1.563   6.280  0.00  0.00    -0.064 A 
ATOM     15  C   UNL     1      15.571   2.076   5.186  0.00  0.00    +0.002 A 
ATOM     16  C   UNL     1      16.229   3.288   5.286  0.00  0.00    +0.000 A 
ATOM     17  C   UNL     1      16.214   3.986   6.478  0.00  0.00    +0.000 A 
ATOM     18  C   UNL     1      15.541   3.474   7.571  0.00  0.00    +0.000 A 
ATOM     19  C   UNL     1      14.880   2.264   7.471  0.00  0.00    +0.002 A 
ENDBRANCH  13  14
ENDBRANCH   9  13
ENDBRANCH   4   6
ENDBRANCH   1   2
BRANCH   1  20
ATOM     20  C   UNL     1       6.264  -1.520   2.151  0.00  0.00    +0.085 C 
BRANCH  20  25
ATOM     21  C   UNL     1       0.842  -0.444   1.175  0.00  0.00    +0.096 A 
ATOM     22  C   UNL     1       2.289  -0.642   1.176  0.00  0.00    +0.104 A 
ATOM     23  C   UNL     1       3.315  -0.457   0.233  0.00  0.00    +0.138 A 
ATOM     24  N   UNL     1       4.561  -0.750   0.592  0.00  0.00    -0.216 NA
ATOM     25  C   UNL     1       4.832  -1.204   1.801  0.00  0.00    +0.135 A 
ATOM     26  N   UNL     1       3.903  -1.393   2.714  0.00  0.00    -0.195 NA
ATOM     27  C   UNL     1       2.627  -1.127   2.451  0.00  0.00    +0.263 A 
ATOM     28  O   UNL     1       1.486  -1.214   3.154  0.00  0.00    -0.334 OA
ATOM     29  N   UNL     1       0.405  -0.784   2.351  0.00  0.00    -0.080 NA
ATOM     30  N   UNL     1       3.035   0.017  -1.033  0.00  0.00    -0.314 N 
ATOM     31  C   UNL     1       3.129   1.452  -1.333  0.00  0.00    +0.106 C 
ATOM     32  C   UNL     1       4.047   1.644  -2.544  0.00  0.00    +0.019 C 
ATOM     33  C   UNL     1       3.534   0.791  -3.707  0.00  0.00    +0.003 C 
ATOM     34  C   UNL     1       3.561  -0.686  -3.309  0.00  0.00    +0.019 C 
ATOM     35  C   UNL     1       2.644  -0.905  -2.108  0.00  0.00    +0.106 C 
BRANCH  21  37
ATOM     36  C   UNL     1      -0.203   1.573   0.180  0.00  0.00    +0.010 C 
ATOM     37  C   UNL     1       0.011   0.065   0.026  0.00  0.00    +0.056 C 
ENDBRANCH  21  37
ENDBRANCH  20  25
ENDBRANCH   1  20
TORSDOF 7
