REMARK  Name = ZINC37427896
REMARK  15 active torsions:
REMARK  status: ('A' for Active; 'I' for Inactive)
REMARK    1  A    between atoms: C_1  and  C_2
REMARK    2  A    between atoms: C_5  and  N_8
REMARK    3  A    between atoms: C_11  and  C_13
REMARK    4  A    between atoms: C_13  and  C_14
REMARK    5  A    between atoms: C_13  and  C_15
REMARK    6  A    between atoms: C_13  and  C_16
REMARK    7  A    between atoms: C_17  and  C_33
REMARK    8  A    between atoms: N_23  and  C_24
REMARK    9  A    between atoms: C_24  and  C_25
REMARK   10  A    between atoms: N_27  and  C_28
REMARK   11  A    between atoms: C_28  and  C_29
REMARK   12  A    between atoms: C_29  and  C_30
REMARK   13  A    between atoms: C_30  and  O_31
REMARK   14  A    between atoms: O_31  and  C_32
REMARK   15  A    between atoms: C_37  and  C_39
REMARK                            x       y       z     vdW  Elec       q    Type
REMARK                         _______ _______ _______ _____ _____    ______ ____
ROOT
ATOM      1  N   UNL     1      -1.606  -9.638   1.511  0.00  0.00    -0.218 N 
ATOM      2  C   UNL     1      -1.498 -10.659   0.628  0.00  0.00    +0.136 A 
ATOM      3  C   UNL     1      -1.611 -10.149  -0.620  0.00  0.00    +0.034 A 
ATOM      4  C   UNL     1      -1.791  -8.770  -0.505  0.00  0.00    +0.075 A 
ATOM      5  N   UNL     1      -1.795  -8.461   0.769  0.00  0.00    -0.169 NA
ATOM      6  C   UNL     1      -1.554 -10.960  -1.889  0.00  0.00    +0.112 C 
ATOM      7  S   UNL     1       0.178 -11.470  -2.178  0.00  0.00    -0.138 S 
ATOM      8  C   UNL     1       0.726 -11.908  -0.494  0.00  0.00    +0.166 C 
ATOM      9  C   UNL     1      -0.341 -12.671   0.230  0.00  0.00    +0.231 C 
ATOM     10  O   UNL     1      -0.337 -13.883   0.208  0.00  0.00    -0.274 OA
ATOM     11  N   UNL     1      -1.298 -12.020   0.901  0.00  0.00    -0.246 N 
ENDROOT
BRANCH   1  16
ATOM     12  C   UNL     1      -1.365 -10.043   7.167  0.00  0.00    +0.044 C 
ATOM     13  C   UNL     1      -1.429  -9.935   5.665  0.00  0.00    -0.050 A 
ATOM     14  C   UNL     1      -0.532 -10.640   4.884  0.00  0.00    +0.005 A 
ATOM     15  C   UNL     1      -0.588 -10.544   3.507  0.00  0.00    +0.028 A 
ATOM     16  C   UNL     1      -1.547  -9.738   2.908  0.00  0.00    +0.067 A 
ATOM     17  C   UNL     1      -2.446  -9.032   3.695  0.00  0.00    +0.028 A 
ATOM     18  C   UNL     1      -2.388  -9.136   5.071  0.00  0.00    +0.005 A 
ENDBRANCH   1  16
BRANCH   6  19
ATOM     19  C   UNL     1      -2.038 -10.124  -3.046  0.00  0.00    -0.030 A 
ATOM     20  C   UNL     1      -1.178  -9.814  -4.083  0.00  0.00    +0.005 A 
ATOM     21  C   UNL     1      -1.622  -9.047  -5.144  0.00  0.00    +0.001 A 
ATOM     22  C   UNL     1      -2.927  -8.591  -5.168  0.00  0.00    +0.003 A 
ATOM     23  C   UNL     1      -3.787  -8.901  -4.132  0.00  0.00    -0.050 A 
ATOM     24  C   UNL     1      -3.344  -9.672  -3.073  0.00  0.00    +0.008 A 
ATOM     25  C   UNL     1      -5.209  -8.403  -4.158  0.00  0.00    +0.044 C 
ENDBRANCH   6  19
BRANCH   4  26
ATOM     26  C   UNL     1      -1.959  -7.803  -1.649  0.00  0.00    +0.007 C 
ATOM     27  C   UNL     1      -3.448  -7.635  -1.960  0.00  0.00    +0.017 C 
ATOM     28  C   UNL     1      -1.363  -6.448  -1.263  0.00  0.00    +0.017 C 
ATOM     29  C   UNL     1      -1.238  -8.344  -2.885  0.00  0.00    +0.017 C 
ENDBRANCH   4  26
BRANCH  11  30
ATOM     30  C   UNL     1      -2.118 -12.713   1.897  0.00  0.00    +0.210 C 
BRANCH  30  31
ATOM     31  C   UNL     1      -3.266 -13.406   1.209  0.00  0.00    +0.231 C 
ATOM     32  O   UNL     1      -3.387 -13.328   0.004  0.00  0.00    -0.274 OA
ATOM     33  N   UNL     1      -4.159 -14.111   1.931  0.00  0.00    -0.314 N 
ATOM     34  H   UNL     1      -4.062 -14.174   2.894  0.00  0.00    +0.149 HD
BRANCH  33  35
ATOM     35  C   UNL     1      -5.275 -14.785   1.262  0.00  0.00    +0.106 C 
BRANCH  35  36
ATOM     36  C   UNL     1      -6.131 -15.508   2.303  0.00  0.00    +0.047 C 
BRANCH  36  37
ATOM     37  C   UNL     1      -7.297 -16.211   1.604  0.00  0.00    +0.161 C 
BRANCH  37  38
ATOM     38  O   UNL     1      -8.097 -16.887   2.576  0.00  0.00    -0.383 OA
ATOM     39  C   UNL     1      -9.219 -17.580   2.025  0.00  0.00    +0.193 C 
ENDBRANCH  37  38
ENDBRANCH  36  37
ENDBRANCH  35  36
ENDBRANCH  33  35
ENDBRANCH  30  31
ENDBRANCH  11  30
TORSDOF 9
