REMARK  Name = ZINC30857449
REMARK  15 active torsions:
REMARK  status: ('A' for Active; 'I' for Inactive)
REMARK    1  A    between atoms: C_1  and  C_2
REMARK    2  A    between atoms: C_2  and  O_3
REMARK    3  A    between atoms: O_3  and  C_4
REMARK    4  A    between atoms: C_7  and  S_10
REMARK    5  A    between atoms: S_10  and  N_13
REMARK    6  A    between atoms: N_13  and  C_14
REMARK    7  A    between atoms: N_13  and  C_29
REMARK    8  A    between atoms: C_14  and  C_15
REMARK    9  A    between atoms: N_17  and  C_18
REMARK   10  A    between atoms: C_18  and  C_19
REMARK   11  A    between atoms: C_22  and  O_25
REMARK   12  A    between atoms: O_25  and  C_26
REMARK   13  A    between atoms: C_26  and  C_27
REMARK   14  A    between atoms: C_26  and  C_28
REMARK   15  A    between atoms: C_32  and  C_35
REMARK                            x       y       z     vdW  Elec       q    Type
REMARK                         _______ _______ _______ _____ _____    ______ ____
ROOT
ATOM      1  N   UNL     1       0.678  -6.949  -2.166  0.00  0.00    -0.194 N 
ENDROOT
BRANCH   1   2
ATOM      2  C   UNL     1       1.746  -7.846  -2.248  0.00  0.00    +0.052 A 
ATOM      3  C   UNL     1       1.503  -9.208  -2.372  0.00  0.00    +0.025 A 
ATOM      4  C   UNL     1       2.561 -10.092  -2.457  0.00  0.00    +0.005 A 
ATOM      5  C   UNL     1       3.861  -9.623  -2.408  0.00  0.00    -0.050 A 
ATOM      6  C   UNL     1       4.106  -8.268  -2.279  0.00  0.00    +0.005 A 
ATOM      7  C   UNL     1       3.053  -7.379  -2.199  0.00  0.00    +0.025 A 
ATOM      8  C   UNL     1       5.013 -10.591  -2.496  0.00  0.00    +0.044 C 
ENDBRANCH   1   2
BRANCH   1   9
ATOM      9  S   UNL     1      -0.787  -7.457  -1.583  0.00  0.00    +0.075 S 
ATOM     10  O   UNL     1      -0.532  -8.612  -0.796  0.00  0.00    -0.150 OA
ATOM     11  O   UNL     1      -1.436  -6.306  -1.060  0.00  0.00    -0.150 OA
BRANCH   9  15
ATOM     12  C   UNL     1      -3.240  -8.825  -5.135  0.00  0.00    +0.121 A 
ATOM     13  C   UNL     1      -2.533  -9.750  -4.381  0.00  0.00    +0.047 A 
ATOM     14  C   UNL     1      -1.785  -9.330  -3.298  0.00  0.00    +0.032 A 
ATOM     15  C   UNL     1      -1.741  -7.989  -2.965  0.00  0.00    +0.109 A 
ATOM     16  C   UNL     1      -2.450  -7.065  -3.711  0.00  0.00    +0.032 A 
ATOM     17  C   UNL     1      -3.195  -7.479  -4.799  0.00  0.00    +0.047 A 
BRANCH  12  18
ATOM     18  O   UNL     1      -3.976  -9.235  -6.201  0.00  0.00    -0.492 OA
BRANCH  18  20
ATOM     19  C   UNL     1      -5.445  -8.875  -8.086  0.00  0.00    +0.048 C 
ATOM     20  C   UNL     1      -4.678  -8.227  -6.931  0.00  0.00    +0.225 C 
ENDBRANCH  18  20
ENDBRANCH  12  18
ENDBRANCH   9  15
ENDBRANCH   1   9
BRANCH   1  21
ATOM     21  C   UNL     1       0.854  -5.560  -2.596  0.00  0.00    +0.227 C 
BRANCH  21  22
ATOM     22  C   UNL     1       1.431  -4.752  -1.462  0.00  0.00    +0.232 C 
ATOM     23  O   UNL     1       1.671  -5.285  -0.399  0.00  0.00    -0.274 OA
ATOM     24  N   UNL     1       1.680  -3.438  -1.629  0.00  0.00    -0.310 N 
ATOM     25  H   UNL     1       1.462  -2.955  -2.593  0.00  0.00    +0.149 HD
BRANCH  24  26
ATOM     26  C   UNL     1       2.240  -2.653  -0.527  0.00  0.00    +0.139 C 
BRANCH  26  27
ATOM     27  C   UNL     1       2.421  -1.224  -0.969  0.00  0.00    -0.030 A 
ATOM     28  C   UNL     1       1.398  -0.312  -0.792  0.00  0.00    +0.009 A 
ATOM     29  C   UNL     1       1.561   0.999  -1.196  0.00  0.00    +0.046 A 
ATOM     30  C   UNL     1       2.754   1.400  -1.780  0.00  0.00    +0.121 A 
ATOM     31  C   UNL     1       3.780   0.483  -1.956  0.00  0.00    +0.046 A 
ATOM     32  C   UNL     1       3.611  -0.827  -1.551  0.00  0.00    +0.009 A 
BRANCH  30  33
ATOM     33  O   UNL     1       2.917   2.688  -2.179  0.00  0.00    -0.489 OA
BRANCH  33  34
ATOM     34  C   UNL     1       1.780   3.547  -2.080  0.00  0.00    +0.167 C 
ATOM     35  C   UNL     1       1.711   4.143  -0.672  0.00  0.00    +0.051 C 
ATOM     36  C   UNL     1       1.902   4.676  -3.106  0.00  0.00    +0.051 C 
ENDBRANCH  33  34
ENDBRANCH  30  33
ENDBRANCH  26  27
ENDBRANCH  24  26
ENDBRANCH  21  22
ENDBRANCH   1  21
TORSDOF 11
