REMARK  Name = ZINC63225455
REMARK  3 active torsions:
REMARK  status: ('A' for Active; 'I' for Inactive)
REMARK    1  A    between atoms: C_8  and  C_20
REMARK    2  A    between atoms: CA_11  and  C_17
REMARK    3  A    between atoms: C_25  and  O_26
REMARK                            x       y       z     vdW  Elec       q    Type
REMARK                         _______ _______ _______ _____ _____    ______ ____
ROOT
ATOM      1  C   UNL     1      -0.233   1.305  -0.095  0.00  0.00    +0.001 A 
ATOM      2  C   UNL     1       0.941   2.065   0.002  0.00  0.00    +0.002 A 
ATOM      3  C   UNL     1       2.166   1.504   0.087  0.00  0.00    +0.026 A 
ATOM      4  C   UNL     1       2.313   0.091   0.080  0.00  0.00    +0.043 A 
ATOM      5  N   UNL     1       3.380  -0.676   0.126  0.00  0.00    -0.376 N 
ATOM      6  C   UNL     1       2.946  -2.068   0.184  0.00  0.00    +0.128 C 
ATOM      7  C   UNL     1       3.543  -2.919  -0.940  0.00  0.00    +0.115 C 
ATOM      8  N   UNL     1       2.832  -4.207  -0.974  0.00  0.00    -0.295 NA
ATOM      9  CA  UNL     1       1.428  -4.081  -1.378  0.00  0.00    +0.172 C 
ATOM     10  C   UNL     1       0.644  -3.281  -0.321  0.00  0.00    +0.063 C 
ATOM     11  C   UNL     1       1.442  -2.029  -0.034  0.00  0.00    -0.035 C 
ATOM     12  C   UNL     1       1.087  -0.738  -0.030  0.00  0.00    -0.001 A 
ATOM     13  C   UNL     1      -0.206  -0.046  -0.114  0.00  0.00    +0.010 A 
ATOM     14  H   UNL     1       3.317  -4.873  -1.556  0.00  0.00    +0.123 HD
ATOM     15  H   UNL     1       4.300  -0.369   0.121  0.00  0.00    +0.160 HD
ENDROOT
BRANCH   7  16
ATOM     16  C   UNL     1       5.008  -3.155  -0.675  0.00  0.00    +0.015 A 
ATOM     17  C   UNL     1       5.961  -2.483  -1.417  0.00  0.00    +0.024 A 
ATOM     18  C   UNL     1       7.306  -2.698  -1.175  0.00  0.00    +0.019 A 
ATOM     19  C   UNL     1       7.700  -3.587  -0.190  0.00  0.00    +0.034 A 
ATOM     20  C   UNL     1       6.750  -4.261   0.554  0.00  0.00    +0.061 A 
ATOM     21  C   UNL     1       5.400  -4.041   0.316  0.00  0.00    +0.136 A 
ATOM     22 BR   UNL     1       7.289  -5.476   1.899  0.00  0.00    -0.046 Br
ATOM     23 BR   UNL     1       8.607  -1.778  -2.192  0.00  0.00    -0.050 Br
BRANCH  21  24
ATOM     24  O   UNL     1       4.464  -4.698   1.051  0.00  0.00    -0.505 OA
ATOM     25  H   UNL     1       4.250  -5.580   0.717  0.00  0.00    +0.292 HD
ENDBRANCH  21  24
ENDBRANCH   7  16
BRANCH   9  26
ATOM     26  C   UNL     1       1.351  -3.365  -2.701  0.00  0.00    +0.373 C 
ATOM     27  O   UNL     1       2.372  -3.111  -3.318  0.00  0.00    -0.245 OA
ATOM     28  OXT UNL     1       0.268  -3.039  -3.156  0.00  0.00    -0.245 OA
ENDBRANCH   9  26
TORSDOF 3
