REMARK  Name = ZINC40986097
REMARK  15 active torsions:
REMARK  status: ('A' for Active; 'I' for Inactive)
REMARK    1  A    between atoms: C_1  and  C_2
REMARK    2  A    between atoms: C_2  and  N_3
REMARK    3  A    between atoms: N_3  and  C_4
REMARK    4  A    between atoms: N_3  and  C_6
REMARK    5  A    between atoms: C_4  and  C_5
REMARK    6  A    between atoms: C_6  and  C_8
REMARK    7  A    between atoms: C_6  and  C_24
REMARK    8  A    between atoms: C_8  and  N_9
REMARK    9  A    between atoms: C_10  and  C_12
REMARK   10  A    between atoms: C_15  and  S_19
REMARK   11  A    between atoms: S_19  and  C_22
REMARK   12  A    between atoms: C_22  and  C_23
REMARK   13  A    between atoms: C_27  and  C_30
REMARK   14  A    between atoms: C_30  and  C_31
REMARK   15  A    between atoms: C_30  and  C_32
REMARK                            x       y       z     vdW  Elec       q    Type
REMARK                         _______ _______ _______ _____ _____    ______ ____
ROOT
ATOM      1  C   UNL     1       1.390  -0.061  -2.128  0.00  0.00    +0.094 C 
ENDROOT
BRANCH   1   2
ATOM      2  N   UNL     1       1.445   0.930  -1.050  0.00  0.00    -0.312 N 
ATOM      3  C   UNL     1       2.397   1.885  -1.060  0.00  0.00    +0.248 C 
ATOM      4  O   UNL     1       3.154   1.978  -2.007  0.00  0.00    -0.270 OA
ATOM      5  H   UNL     1       0.797   0.899  -0.329  0.00  0.00    +0.149 HD
BRANCH   3   6
ATOM      6  C   UNL     1       2.519   2.818   0.079  0.00  0.00    +0.092 A 
ATOM      7  C   UNL     1       1.735   2.659   1.227  0.00  0.00    +0.130 A 
ATOM      8  N   UNL     1       1.878   3.516   2.222  0.00  0.00    -0.219 NA
ATOM      9  C   UNL     1       2.742   4.509   2.145  0.00  0.00    +0.272 A 
ATOM     10  N   UNL     1       3.501   4.697   1.083  0.00  0.00    -0.199 NA
ATOM     11  C   UNL     1       3.428   3.884   0.042  0.00  0.00    +0.146 A 
ATOM     12 CL   UNL     1       4.437   4.137  -1.348  0.00  0.00    -0.061 Cl
BRANCH   9  13
ATOM     13  S   UNL     1       2.887   5.621   3.504  0.00  0.00    +0.032 S 
ATOM     14  O   UNL     1       3.359   6.833   2.932  0.00  0.00    -0.166 OA
ATOM     15  O   UNL     1       1.623   5.570   4.151  0.00  0.00    -0.166 OA
BRANCH  13  16
ATOM     16  C   UNL     1       4.163   4.893   4.568  0.00  0.00    +0.172 C 
ATOM     17  C   UNL     1       4.375   5.785   5.793  0.00  0.00    +0.028 C 
ENDBRANCH  13  16
ENDBRANCH   9  13
ENDBRANCH   3   6
ENDBRANCH   1   2
BRANCH   1  18
ATOM     18  C   UNL     1       0.154  -0.945  -1.946  0.00  0.00    -0.020 C 
BRANCH  18  19
ATOM     19  C   UNL     1       0.181  -2.060  -2.958  0.00  0.00    -0.059 A 
ATOM     20  C   UNL     1       1.386  -2.486  -3.486  0.00  0.00    +0.002 A 
ATOM     21  C   UNL     1       1.410  -3.510  -4.415  0.00  0.00    +0.004 A 
ATOM     22  C   UNL     1       0.230  -4.108  -4.815  0.00  0.00    -0.045 A 
ATOM     23  C   UNL     1      -0.975  -3.683  -4.287  0.00  0.00    +0.004 A 
ATOM     24  C   UNL     1      -0.999  -2.662  -3.355  0.00  0.00    +0.002 A 
BRANCH  22  25
ATOM     25  C   UNL     1       0.256  -5.223  -5.829  0.00  0.00    +0.013 C 
ATOM     26  C   UNL     1      -0.343  -6.488  -5.211  0.00  0.00    +0.012 C 
ATOM     27  C   UNL     1      -0.564  -4.817  -7.055  0.00  0.00    +0.012 C 
ENDBRANCH  22  25
ENDBRANCH  18  19
BRANCH  18  28
ATOM     28  N   UNL     1       0.154  -1.513  -0.591  0.00  0.00    +0.385 N 
ATOM     29  H   UNL     1       0.218  -0.767   0.086  0.00  0.00    -0.081 HD
BRANCH  28  31
ATOM     30  C   UNL     1      -2.278  -1.300  -0.394  0.00  0.00    -0.017 C 
ATOM     31  C   UNL     1      -1.090  -2.264  -0.376  0.00  0.00    -0.081 C 
ENDBRANCH  28  31
BRANCH  28  32
ATOM     32  C   UNL     1       1.303  -2.414  -0.437  0.00  0.00    -0.081 C 
ATOM     33  C   UNL     1       2.514  -1.618   0.053  0.00  0.00    -0.017 C 
ENDBRANCH  28  32
ENDBRANCH  18  28
ENDBRANCH   1  18
TORSDOF 10
