REMARK  Name = ZINC40398948
REMARK  9 active torsions:
REMARK  status: ('A' for Active; 'I' for Inactive)
REMARK    1  A    between atoms: C_1  and  C_2
REMARK    2  A    between atoms: C_2  and  C_3
REMARK    3  A    between atoms: C_3  and  C_4
REMARK    4  A    between atoms: C_4  and  C_5
REMARK    5  A    between atoms: C_5  and  C_6
REMARK    6  A    between atoms: C_6  and  N_7
REMARK    7  A    between atoms: C_27  and  S_29
REMARK    8  A    between atoms: S_29  and  C_30
REMARK    9  A    between atoms: C_30  and  C_31
REMARK                            x       y       z     vdW  Elec       q    Type
REMARK                         _______ _______ _______ _____ _____    ______ ____
ROOT
ATOM      1  N   UNL     1       2.232  -4.563   3.651  0.00  0.00    -0.315 N 
ATOM      2  C   UNL     1       3.579  -4.758   3.580  0.00  0.00    +0.091 A 
ATOM      3  C   UNL     1       4.302  -5.200   4.622  0.00  0.00    +0.046 A 
ATOM      4  C   UNL     1       3.636  -5.489   5.894  0.00  0.00    +0.078 A 
ATOM      5  C   UNL     1       2.232  -5.286   5.969  0.00  0.00    +0.066 A 
ATOM      6  C   UNL     1       1.531  -4.796   4.779  0.00  0.00    +0.261 A 
ATOM      7  O   UNL     1       0.329  -4.605   4.807  0.00  0.00    -0.267 OA
ATOM      8  C   UNL     1       1.559  -5.549   7.160  0.00  0.00    +0.030 A 
ATOM      9  C   UNL     1       2.311  -6.008   8.239  0.00  0.00    +0.066 A 
ATOM     10  C   UNL     1       3.712  -6.189   8.096  0.00  0.00    +0.078 A 
ATOM     11  N   UNL     1       4.317  -5.927   6.945  0.00  0.00    -0.246 NA
ATOM     12  C   UNL     1       4.464  -6.673   9.256  0.00  0.00    +0.047 A 
ATOM     13  C   UNL     1       3.818  -6.927  10.405  0.00  0.00    +0.100 A 
ATOM     14  N   UNL     1       2.470  -6.753  10.545  0.00  0.00    -0.252 N 
ATOM     15  C   UNL     1       1.695  -6.312   9.534  0.00  0.00    +0.267 A 
ATOM     16  O   UNL     1       0.497  -6.168   9.695  0.00  0.00    -0.267 OA
ATOM     17  C   UNL     1       1.878  -7.039  11.770  0.00  0.00    +0.234 A 
ATOM     18  N   UNL     1       2.515  -7.481  12.874  0.00  0.00    -0.243 N 
ATOM     19  H   UNL     1       3.465  -7.657  12.964  0.00  0.00    +0.192 HD
ATOM     20  N   UNL     1       1.533  -7.633  13.866  0.00  0.00    -0.144 NA
ATOM     21  C   UNL     1       0.389  -7.287  13.326  0.00  0.00    +0.211 A 
ATOM     22  N   UNL     1       0.601  -6.921  12.057  0.00  0.00    -0.185 NA
ENDROOT
BRANCH   1  23
ATOM     23  C   UNL     1       1.524  -4.077   2.464  0.00  0.00    +0.125 C 
BRANCH  23  24
ATOM     24  C   UNL     1       1.503  -2.548   2.473  0.00  0.00    +0.022 C 
BRANCH  24  25
ATOM     25  C   UNL     1       0.763  -2.041   1.233  0.00  0.00    +0.002 C 
BRANCH  25  26
ATOM     26  C   UNL     1       0.742  -0.511   1.242  0.00  0.00    -0.000 C 
BRANCH  26  28
ATOM     27  C   UNL     1      -0.019   1.526   0.010  0.00  0.00    +0.004 C 
ATOM     28  C   UNL     1       0.002  -0.004   0.002  0.00  0.00    -0.003 C 
ENDBRANCH  26  28
ENDBRANCH  25  26
ENDBRANCH  24  25
ENDBRANCH  23  24
ENDBRANCH   1  23
BRANCH  21  29
ATOM     29  S   UNL     1      -1.173  -7.295  14.142  0.00  0.00    -0.080 S 
BRANCH  29  30
ATOM     30  C   UNL     1      -0.789  -7.874  15.818  0.00  0.00    +0.112 C 
BRANCH  30  31
ATOM     31  C   UNL     1      -2.055  -7.928  16.633  0.00  0.00    -0.037 A 
ATOM     32  C   UNL     1      -2.462  -6.820  17.352  0.00  0.00    +0.004 A 
ATOM     33  C   UNL     1      -3.624  -6.870  18.100  0.00  0.00    +0.000 A 
ATOM     34  C   UNL     1      -4.379  -8.028  18.128  0.00  0.00    +0.000 A 
ATOM     35  C   UNL     1      -3.972  -9.136  17.408  0.00  0.00    +0.000 A 
ATOM     36  C   UNL     1      -2.813  -9.084  16.657  0.00  0.00    +0.004 A 
ENDBRANCH  30  31
ENDBRANCH  29  30
ENDBRANCH  21  29
TORSDOF 8
