REMARK  Name = ZINC35106740
REMARK  14 active torsions:
REMARK  status: ('A' for Active; 'I' for Inactive)
REMARK    1  A    between atoms: C_1  and  C_2
REMARK    2  A    between atoms: C_2  and  C_3
REMARK    3  A    between atoms: C_3  and  C_4
REMARK    4  A    between atoms: C_4  and  N_5
REMARK    5  A    between atoms: N_5  and  C_6
REMARK    6  A    between atoms: N_5  and  S_28
REMARK    7  A    between atoms: C_6  and  C_7
REMARK    8  A    between atoms: C_7  and  C_9
REMARK    9  A    between atoms: C_10  and  C_22
REMARK   10  A    between atoms: N_12  and  C_15
REMARK   11  A    between atoms: C_13  and  O_14
REMARK   12  A    between atoms: C_20  and  C_21
REMARK   13  A    between atoms: S_28  and  C_31
REMARK   14  A    between atoms: C_34  and  C_37
REMARK                            x       y       z     vdW  Elec       q    Type
REMARK                         _______ _______ _______ _____ _____    ______ ____
ROOT
ATOM      1  C   UNL     1       4.715  -4.215  -1.732  0.00  0.00    +0.108 A 
ATOM      2  C   UNL     1       5.175  -5.538  -1.286  0.00  0.00    +0.107 A 
ATOM      3  N   UNL     1       6.479  -5.559  -1.421  0.00  0.00    -0.162 NA
ATOM      4  N   UNL     1       6.915  -4.332  -1.929  0.00  0.00    -0.199 N 
ATOM      5  C   UNL     1       5.857  -3.520  -2.125  0.00  0.00    +0.227 A 
ENDROOT
BRANCH   4   6
ATOM      6  C   UNL     1       8.248  -3.999  -2.199  0.00  0.00    +0.072 A 
ATOM      7  C   UNL     1       8.590  -3.432  -3.420  0.00  0.00    +0.028 A 
ATOM      8  C   UNL     1       9.906  -3.104  -3.683  0.00  0.00    +0.002 A 
ATOM      9  C   UNL     1      10.882  -3.341  -2.732  0.00  0.00    +0.000 A 
ATOM     10  C   UNL     1      10.545  -3.906  -1.516  0.00  0.00    +0.005 A 
ATOM     11  C   UNL     1       9.230  -4.231  -1.245  0.00  0.00    -0.025 A 
ATOM     12  C   UNL     1       8.863  -4.841   0.083  0.00  0.00    +0.046 C 
ENDBRANCH   4   6
BRANCH   2  13
ATOM     13  C   UNL     1       4.324  -6.641  -0.779  0.00  0.00    +0.003 A 
ATOM     14  C   UNL     1       3.139  -6.969  -1.436  0.00  0.00    +0.010 A 
ATOM     15  C   UNL     1       2.351  -7.997  -0.959  0.00  0.00    +0.001 A 
ATOM     16  C   UNL     1       2.735  -8.701   0.168  0.00  0.00    +0.000 A 
ATOM     17  C   UNL     1       3.910  -8.381   0.823  0.00  0.00    +0.001 A 
ATOM     18  C   UNL     1       4.710  -7.359   0.352  0.00  0.00    +0.010 A 
ENDBRANCH   2  13
BRANCH   1  19
ATOM     19  C   UNL     1       3.380  -3.744  -1.763  0.00  0.00    +0.186 C 
ATOM     20  O   UNL     1       2.487  -4.419  -1.292  0.00  0.00    -0.290 OA
BRANCH  19  21
ATOM     21  C   UNL     1       3.068  -2.405  -2.380  0.00  0.00    +0.189 C 
BRANCH  21  22
ATOM     22  N   UNL     1       1.628  -2.149  -2.287  0.00  0.00    -0.169 NA
BRANCH  22  23
ATOM     23  S   UNL     1       0.637  -2.524  -3.561  0.00  0.00    +0.061 S 
ATOM     24  O   UNL     1       1.301  -3.534  -4.308  0.00  0.00    -0.153 OA
ATOM     25  O   UNL     1      -0.665  -2.706  -3.022  0.00  0.00    -0.153 OA
BRANCH  23  26
ATOM     26  C   UNL     1       0.559  -1.100  -4.596  0.00  0.00    +0.106 A 
ATOM     27  C   UNL     1      -0.413  -0.141  -4.380  0.00  0.00    +0.029 A 
ATOM     28  C   UNL     1      -0.474   0.976  -5.192  0.00  0.00    +0.005 A 
ATOM     29  C   UNL     1       0.437   1.134  -6.220  0.00  0.00    -0.050 A 
ATOM     30  C   UNL     1       1.409   0.175  -6.435  0.00  0.00    +0.005 A 
ATOM     31  C   UNL     1       1.473  -0.939  -5.620  0.00  0.00    +0.029 A 
ATOM     32  C   UNL     1       0.369   2.351  -7.106  0.00  0.00    +0.044 C 
ENDBRANCH  23  26
ENDBRANCH  22  23
BRANCH  22  33
ATOM     33  C   UNL     1       1.065  -1.562  -1.069  0.00  0.00    +0.110 C 
BRANCH  33  34
ATOM     34  C   UNL     1       1.183  -0.038  -1.136  0.00  0.00    +0.017 C 
BRANCH  34  36
ATOM     35  C   UNL     1       0.712   2.099   0.070  0.00  0.00    +0.004 C 
ATOM     36  C   UNL     1       0.594   0.575   0.137  0.00  0.00    -0.002 C 
ENDBRANCH  34  36
ENDBRANCH  33  34
ENDBRANCH  22  33
ENDBRANCH  21  22
ENDBRANCH  19  21
ENDBRANCH   1  19
BRANCH   5  37
ATOM     37  O   UNL     1       5.898  -2.258  -2.610  0.00  0.00    -0.492 OA
ATOM     38  H   UNL     1       6.001  -1.578  -1.931  0.00  0.00    +0.294 HD
ENDBRANCH   5  37
TORSDOF 11
