REMARK  Name = ZINC42015767
REMARK  4 active torsions:
REMARK  status: ('A' for Active; 'I' for Inactive)
REMARK    1  A    between atoms: C_6  and  N_7
REMARK    2  A    between atoms: C_8  and  C_12
REMARK    3  A    between atoms: C_14  and  N_19
REMARK    4  A    between atoms: C_16  and  N_18
REMARK                            x       y       z     vdW  Elec       q    Type
REMARK                         _______ _______ _______ _____ _____    ______ ____
ROOT
ATOM      1  N   UNL     1      -1.287  -0.620  -0.153  0.00  0.00    -0.193 N 
ATOM      2  C   UNL     1      -1.495  -1.859  -0.685  0.00  0.00    +0.187 A 
ATOM      3  N   UNL     1      -2.651  -2.285  -0.221  0.00  0.00    -0.108 NA
ATOM      4  N   UNL     1      -3.176  -1.408   0.556  0.00  0.00    -0.022 NA
ATOM      5  N   UNL     1      -2.411  -0.375   0.655  0.00  0.00    -0.039 NA
ENDROOT
BRANCH   1  11
ATOM      6  C   UNL     1       0.327   0.391  -1.640  0.00  0.00    +0.031 A 
ATOM      7  C   UNL     1       1.411   1.224  -1.846  0.00  0.00    +0.043 A 
ATOM      8  C   UNL     1       1.985   1.890  -0.777  0.00  0.00    +0.159 A 
ATOM      9  C   UNL     1       1.474   1.724   0.501  0.00  0.00    +0.160 A 
ATOM     10  C   UNL     1       0.389   0.893   0.710  0.00  0.00    +0.069 A 
ATOM     11  C   UNL     1      -0.187   0.224  -0.362  0.00  0.00    +0.072 A 
ATOM     12  F   UNL     1       2.036   2.375   1.543  0.00  0.00    -0.202 F 
ATOM     13  F   UNL     1       3.045   2.703  -0.980  0.00  0.00    -0.202 F 
ENDBRANCH   1  11
BRANCH   2  14
ATOM     14  C   UNL     1      -0.593  -2.584  -1.607  0.00  0.00    +0.025 A 
ATOM     15  C   UNL     1       0.786  -2.396  -1.529  0.00  0.00    +0.034 A 
ATOM     16  C   UNL     1       1.628  -3.078  -2.395  0.00  0.00    +0.027 A 
ATOM     17  C   UNL     1       1.099  -3.947  -3.339  0.00  0.00    +0.045 A 
ATOM     18  C   UNL     1      -0.274  -4.137  -3.420  0.00  0.00    +0.027 A 
ATOM     19  C   UNL     1      -1.121  -3.463  -2.553  0.00  0.00    +0.034 A 
BRANCH  18  20
ATOM     20  N   UNL     1      -0.803  -5.012  -4.372  0.00  0.00    -0.358 N 
ATOM     21  H   UNL     1      -0.210  -5.487  -4.976  0.00  0.00    +0.142 HD
ATOM     22  H   UNL     1      -1.762  -5.145  -4.429  0.00  0.00    +0.142 HD
ENDBRANCH  18  20
BRANCH  16  23
ATOM     23  N   UNL     1       3.010  -2.889  -2.317  0.00  0.00    -0.358 N 
ATOM     24  H   UNL     1       3.380  -2.281  -1.657  0.00  0.00    +0.142 HD
ATOM     25  H   UNL     1       3.600  -3.365  -2.922  0.00  0.00    +0.142 HD
ENDBRANCH  16  23
ENDBRANCH   2  14
TORSDOF 4
