REMARK  Name = ZINC61589821
REMARK  4 active torsions:
REMARK  status: ('A' for Active; 'I' for Inactive)
REMARK    1  A    between atoms: C_4  and  S_8
REMARK    2  A    between atoms: C_6  and  N_7
REMARK    3  A    between atoms: S_8  and  C_9
REMARK    4  A    between atoms: C_9  and  C_15
REMARK                            x       y       z     vdW  Elec       q    Type
REMARK                         _______ _______ _______ _____ _____    ______ ____
ROOT
ATOM      1  C   UNL     1      -0.877   0.327   0.840  0.00  0.00    +0.086 A 
ATOM      2  C   UNL     1       0.127   1.288   0.912  0.00  0.00    +0.122 A 
ATOM      3  N   UNL     1       1.393   0.916   0.733  0.00  0.00    -0.207 NA
ATOM      4  C   UNL     1       1.700  -0.349   0.488  0.00  0.00    +0.193 A 
ATOM      5  N   UNL     1       0.770  -1.290   0.412  0.00  0.00    -0.207 NA
ATOM      6  C   UNL     1      -0.516  -0.992   0.581  0.00  0.00    +0.122 A 
ATOM      7  N   UNL     1      -0.186   2.614   1.167  0.00  0.00    -0.343 N 
ATOM      8  H   UNL     1      -1.110   2.878   1.297  0.00  0.00    +0.144 HD
ATOM      9  H   UNL     1       0.520   3.278   1.216  0.00  0.00    +0.144 HD
ENDROOT
BRANCH   6  10
ATOM     10  N   UNL     1      -1.483  -1.982   0.501  0.00  0.00    -0.343 N 
ATOM     11  H   UNL     1      -2.419  -1.757   0.626  0.00  0.00    +0.144 HD
ATOM     12  H   UNL     1      -1.224  -2.899   0.321  0.00  0.00    +0.144 HD
ENDBRANCH   6  10
BRANCH   4  13
ATOM     13  S   UNL     1       3.389  -0.793   0.257  0.00  0.00    -0.067 S 
BRANCH  13  14
ATOM     14  C   UNL     1       3.337  -2.581  -0.044  0.00  0.00    +0.134 C 
ATOM     15  C   UNL     1       4.753  -3.098  -0.275  0.00  0.00    +0.031 C 
ATOM     16  C   UNL     1       4.728  -4.529  -0.805  0.00  0.00    +0.013 C 
ATOM     17  C   UNL     1       4.293  -5.490   0.305  0.00  0.00    +0.069 C 
ATOM     18  S   UNL     1       2.601  -5.063   0.815  0.00  0.00    -0.159 S 
ATOM     19  C   UNL     1       2.716  -3.283   1.168  0.00  0.00    +0.098 C 
BRANCH  14  20
ATOM     20  C   UNL     1       2.499  -2.859  -1.266  0.00  0.00    +0.373 C 
ATOM     21  O   UNL     1       2.799  -2.359  -2.337  0.00  0.00    -0.245 OA
ATOM     22  O   UNL     1       1.522  -3.583  -1.184  0.00  0.00    -0.245 OA
ENDBRANCH  14  20
ENDBRANCH  13  14
ENDBRANCH   4  13
TORSDOF 4
