REMARK  Name = ZINC36005193
REMARK  13 active torsions:
REMARK  status: ('A' for Active; 'I' for Inactive)
REMARK    1  A    between atoms: C_1  and  C_2
REMARK    2  A    between atoms: C_2  and  O_3
REMARK    3  A    between atoms: O_3  and  C_4
REMARK    4  A    between atoms: C_4  and  C_6
REMARK    5  A    between atoms: C_7  and  C_25
REMARK    6  A    between atoms: N_8  and  C_24
REMARK    7  A    between atoms: C_12  and  C_14
REMARK    8  A    between atoms: C_17  and  C_20
REMARK    9  A    between atoms: C_20  and  C_21
REMARK   10  A    between atoms: C_20  and  C_22
REMARK   11  A    between atoms: C_20  and  C_23
REMARK   12  A    between atoms: C_25  and  N_26
REMARK   13  A    between atoms: C_32  and  C_34
REMARK                            x       y       z     vdW  Elec       q    Type
REMARK                         _______ _______ _______ _____ _____    ______ ____
ROOT
ATOM      1  C   UNL     1       1.342  -2.337  -2.523  0.00  0.00    +0.080 C 
ATOM      2  C   UNL     1       1.628  -3.654  -2.615  0.00  0.00    +0.041 C 
ATOM      3  N   UNL     1       2.339  -4.149  -3.670  0.00  0.00    -0.260 N 
ATOM      4  C   UNL     1       2.802  -3.393  -4.674  0.00  0.00    +0.307 C 
ATOM      5  O   UNL     1       3.427  -3.924  -5.571  0.00  0.00    -0.252 OA
ATOM      6  N   UNL     1       2.598  -2.062  -4.722  0.00  0.00    -0.288 N 
ATOM      7  C   UNL     1       1.834  -1.430  -3.632  0.00  0.00    +0.144 C 
ATOM      8  C   UNL     1       2.613  -5.588  -3.706  0.00  0.00    +0.139 C 
ATOM      9  H   UNL     1       2.942  -1.532  -5.458  0.00  0.00    +0.151 HD
ENDROOT
BRANCH   7  10
ATOM     10  C   UNL     1       2.708  -0.370  -3.013  0.00  0.00    -0.022 A 
ATOM     11  C   UNL     1       4.022  -0.657  -2.693  0.00  0.00    +0.006 A 
ATOM     12  C   UNL     1       4.824   0.315  -2.125  0.00  0.00    +0.004 A 
ATOM     13  C   UNL     1       4.311   1.574  -1.876  0.00  0.00    -0.042 A 
ATOM     14  C   UNL     1       2.998   1.862  -2.196  0.00  0.00    +0.004 A 
ATOM     15  C   UNL     1       2.197   0.891  -2.768  0.00  0.00    +0.006 A 
BRANCH  13  16
ATOM     16  C   UNL     1       5.185   2.634  -1.256  0.00  0.00    -0.013 C 
ATOM     17  C   UNL     1       6.389   2.897  -2.162  0.00  0.00    +0.015 C 
ATOM     18  C   UNL     1       4.381   3.925  -1.088  0.00  0.00    +0.015 C 
ATOM     19  C   UNL     1       5.672   2.155   0.114  0.00  0.00    +0.015 C 
ENDBRANCH  13  16
ENDBRANCH   7  10
BRANCH   1  20
ATOM     20  C   UNL     1       0.605  -1.824  -1.431  0.00  0.00    +0.339 C 
ATOM     21  O   UNL     1      -0.577  -1.563  -1.563  0.00  0.00    -0.245 OA
BRANCH  20  22
ATOM     22  O   UNL     1       1.211  -1.623  -0.242  0.00  0.00    -0.462 OA
BRANCH  22  24
ATOM     23  C   UNL     1       1.260  -0.943   2.077  0.00  0.00    +0.048 C 
ATOM     24  C   UNL     1       0.405  -1.102   0.817  0.00  0.00    +0.229 C 
ENDBRANCH  22  24
ENDBRANCH  20  22
ENDBRANCH   1  20
BRANCH   2  25
ATOM     25  C   UNL     1       1.153  -4.593  -1.536  0.00  0.00    +0.136 C 
BRANCH  25  26
ATOM     26  N   UNL     1       0.182  -5.539  -2.102  0.00  0.00    -0.294 NA
ATOM     27  C   UNL     1      -1.039  -4.845  -2.533  0.00  0.00    +0.104 C 
ATOM     28  C   UNL     1      -1.946  -5.831  -3.278  0.00  0.00    +0.123 C 
ATOM     29  N   UNL     1      -2.167  -7.003  -2.419  0.00  0.00    -0.299 N 
ATOM     30  C   UNL     1      -0.994  -7.671  -1.836  0.00  0.00    +0.123 C 
ATOM     31  C   UNL     1      -0.124  -6.613  -1.147  0.00  0.00    +0.104 C 
ATOM     32  C   UNL     1      -3.413  -7.455  -2.172  0.00  0.00    +0.219 C 
ATOM     33  O   UNL     1      -4.370  -6.892  -2.662  0.00  0.00    -0.275 OA
BRANCH  32  34
ATOM     34  C   UNL     1      -3.618  -8.658  -1.288  0.00  0.00    +0.075 C 
ATOM     35  C   UNL     1      -2.960  -9.899  -1.925  0.00  0.00    +0.013 C 
ATOM     36  C   UNL     1      -3.930 -11.059  -1.588  0.00  0.00    +0.001 C 
ATOM     37  C   UNL     1      -5.321 -10.392  -1.729  0.00  0.00    +0.001 C 
ATOM     38  C   UNL     1      -5.119  -8.971  -1.163  0.00  0.00    +0.013 C 
ENDBRANCH  32  34
ENDBRANCH  25  26
ENDBRANCH   2  25
TORSDOF 8
