REMARK  Name = ZINC40008608
REMARK  13 active torsions:
REMARK  status: ('A' for Active; 'I' for Inactive)
REMARK    1  A    between atoms: C_1  and  C_2
REMARK    2  A    between atoms: C_2  and  C_3
REMARK    3  A    between atoms: C_3  and  O_4
REMARK    4  A    between atoms: O_4  and  C_5
REMARK    5  A    between atoms: C_8  and  C_11
REMARK    6  A    between atoms: N_26  and  C_27
REMARK    7  A    between atoms: C_27  and  C_28
REMARK    8  A    between atoms: C_28  and  C_29
REMARK    9  A    between atoms: C_29  and  N_30
REMARK   10  A    between atoms: N_30  and  C_31
REMARK   11  A    between atoms: N_30  and  C_33
REMARK   12  A    between atoms: C_31  and  C_32
REMARK   13  A    between atoms: C_33  and  C_34
REMARK                            x       y       z     vdW  Elec       q    Type
REMARK                         _______ _______ _______ _____ _____    ______ ____
ROOT
ATOM      1  C   UNL     1       3.449  -4.424  -5.843  0.00  0.00    +0.144 C 
ATOM      2  C   UNL     1       4.765  -5.008  -5.447  0.00  0.00    +0.072 A 
ATOM      3  C   UNL     1       6.029  -4.370  -5.063  0.00  0.00    +0.199 A 
ATOM      4  O   UNL     1       6.134  -3.177  -4.843  0.00  0.00    -0.287 OA
ATOM      5  C   UNL     1       7.168  -5.318  -4.968  0.00  0.00    +0.065 A 
ATOM      6  C   UNL     1       8.470  -4.844  -4.809  0.00  0.00    +0.030 A 
ATOM      7  C   UNL     1       9.515  -5.738  -4.728  0.00  0.00    +0.019 A 
ATOM      8  C   UNL     1       9.270  -7.103  -4.804  0.00  0.00    +0.019 A 
ATOM      9  C   UNL     1       7.990  -7.582  -4.959  0.00  0.00    +0.048 A 
ATOM     10  C   UNL     1       6.914  -6.698  -5.041  0.00  0.00    +0.140 A 
ATOM     11  O   UNL     1       5.665  -7.196  -5.183  0.00  0.00    -0.450 OA
ATOM     12  C   UNL     1       4.648  -6.368  -5.493  0.00  0.00    +0.199 A 
ATOM     13  C   UNL     1       3.277  -6.700  -5.919  0.00  0.00    +0.283 C 
ATOM     14  O   UNL     1       2.846  -7.827  -6.064  0.00  0.00    -0.267 OA
ATOM     15  N   UNL     1       2.568  -5.569  -6.126  0.00  0.00    -0.284 N 
ATOM     16 BR   UNL     1      11.284  -5.105  -4.513  0.00  0.00    -0.050 Br
ENDROOT
BRANCH   1  20
ATOM     17  C   UNL     1       1.848  -2.091  -2.641  0.00  0.00    +0.121 A 
ATOM     18  C   UNL     1       2.447  -1.465  -3.724  0.00  0.00    +0.046 A 
ATOM     19  C   UNL     1       2.965  -2.221  -4.758  0.00  0.00    +0.009 A 
ATOM     20  C   UNL     1       2.884  -3.601  -4.714  0.00  0.00    -0.022 A 
ATOM     21  C   UNL     1       2.287  -4.227  -3.635  0.00  0.00    +0.009 A 
ATOM     22  C   UNL     1       1.774  -3.475  -2.596  0.00  0.00    +0.046 A 
BRANCH  17  23
ATOM     23  O   UNL     1       1.339  -1.349  -1.622  0.00  0.00    -0.492 OA
BRANCH  23  24
ATOM     24  C   UNL     1       1.450   0.072  -1.736  0.00  0.00    +0.229 C 
BRANCH  24  26
ATOM     25  C   UNL     1       0.945   2.252  -0.626  0.00  0.00    +0.007 C 
ATOM     26  C   UNL     1       0.826   0.732  -0.504  0.00  0.00    +0.038 C 
ENDBRANCH  24  26
ENDBRANCH  23  24
ENDBRANCH  17  23
ENDBRANCH   1  20
BRANCH  15  27
ATOM     27  C   UNL     1       1.170  -5.494  -6.556  0.00  0.00    +0.107 C 
BRANCH  27  28
ATOM     28  C   UNL     1       1.108  -5.453  -8.085  0.00  0.00    +0.000 C 
BRANCH  28  29
ATOM     29  C   UNL     1      -0.353  -5.375  -8.534  0.00  0.00    -0.077 C 
BRANCH  29  30
ATOM     30  N   UNL     1      -0.408  -5.204  -9.992  0.00  0.00    +0.379 N 
ATOM     31  H   UNL     1       0.149  -4.406 -10.258  0.00  0.00    -0.082 HD
BRANCH  30  32
ATOM     32  C   UNL     1       0.118  -6.409 -10.646  0.00  0.00    -0.082 C 
ATOM     33  C   UNL     1       0.177  -6.183 -12.159  0.00  0.00    -0.017 C 
ENDBRANCH  30  32
BRANCH  30  34
ATOM     34  C   UNL     1      -1.801  -4.990 -10.407  0.00  0.00    -0.082 C 
ATOM     35  C   UNL     1      -2.304  -3.661  -9.840  0.00  0.00    -0.017 C 
ENDBRANCH  30  34
ENDBRANCH  29  30
ENDBRANCH  28  29
ENDBRANCH  27  28
ENDBRANCH  15  27
TORSDOF 10
