REMARK  Name = ZINC45680723
REMARK  10 active torsions:
REMARK  status: ('A' for Active; 'I' for Inactive)
REMARK    1  A    between atoms: C_1  and  C_2
REMARK    2  A    between atoms: C_3  and  N_9
REMARK    3  A    between atoms: C_10  and  C_12
REMARK    4  A    between atoms: C_12  and  N_13
REMARK    5  A    between atoms: C_14  and  C_16
REMARK    6  A    between atoms: C_16  and  O_17
REMARK    7  A    between atoms: O_17  and  C_18
REMARK    8  A    between atoms: C_18  and  C_20
REMARK    9  A    between atoms: C_22  and  C_30
REMARK   10  A    between atoms: C_26  and  C_29
REMARK                            x       y       z     vdW  Elec       q    Type
REMARK                         _______ _______ _______ _____ _____    ______ ____
ROOT
ATOM      1  C   UNL     1       0.365  -1.407  -8.442  0.00  0.00    +0.328 C 
ENDROOT
BRANCH   1   3
ATOM      2  N   UNL     1       0.128  -0.912  -6.030  0.00  0.00    -0.304 N 
ATOM      3  C   UNL     1       0.243  -0.444  -7.288  0.00  0.00    +0.251 C 
ATOM      4  O   UNL     1       0.249   0.751  -7.493  0.00  0.00    -0.272 OA
ATOM      5  H   UNL     1       0.123  -1.868  -5.866  0.00  0.00    +0.149 HD
BRANCH   2   6
ATOM      6  C   UNL     1       0.009   0.024  -4.909  0.00  0.00    +0.200 C 
BRANCH   6   8
ATOM      7  N   UNL     1      -0.226  -0.091  -2.449  0.00  0.00    -0.284 N 
ATOM      8  C   UNL     1      -0.106  -0.748  -3.620  0.00  0.00    +0.234 C 
ATOM      9  O   UNL     1      -0.090  -1.961  -3.636  0.00  0.00    -0.274 OA
ATOM     10  H   UNL     1      -0.319   0.874  -2.442  0.00  0.00    +0.155 HD
BRANCH   7  13
ATOM     11  C   UNL     1      -1.487   1.084  -0.185  0.00  0.00    +0.047 C 
ATOM     12  C   UNL     1      -0.820  -0.265  -0.115  0.00  0.00    -0.011 A 
ATOM     13  C   UNL     1      -0.216  -0.802  -1.244  0.00  0.00    +0.038 A 
ATOM     14  C   UNL     1       0.397  -2.046  -1.175  0.00  0.00    +0.023 A 
ATOM     15  C   UNL     1       0.405  -2.746   0.016  0.00  0.00    +0.003 A 
ATOM     16  C   UNL     1      -0.197  -2.210   1.139  0.00  0.00    +0.020 A 
ATOM     17  C   UNL     1      -0.804  -0.968   1.076  0.00  0.00    +0.046 A 
ATOM     18 CL   UNL     1      -1.552  -0.294   2.490  0.00  0.00    -0.083 Cl
ENDBRANCH   7  13
ENDBRANCH   6   8
ENDBRANCH   2   6
ENDBRANCH   1   3
BRANCH   1  19
ATOM     19  O   UNL     1       0.474  -0.674  -9.664  0.00  0.00    -0.452 OA
BRANCH  19  20
ATOM     20  C   UNL     1       0.591  -1.391 -10.798  0.00  0.00    +0.341 C 
ATOM     21  O   UNL     1       0.601  -2.605 -10.751  0.00  0.00    -0.245 OA
BRANCH  20  22
ATOM     22  C   UNL     1       0.708  -0.701 -12.101  0.00  0.00    +0.075 A 
ATOM     23  C   UNL     1       0.171   0.568 -12.290  0.00  0.00    +0.044 A 
ATOM     24  C   UNL     1       0.306   1.184 -13.540  0.00  0.00    +0.082 A 
ATOM     25  N   UNL     1       0.934   0.583 -14.542  0.00  0.00    -0.209 NA
ATOM     26  C   UNL     1       1.462  -0.623 -14.414  0.00  0.00    +0.260 A 
ATOM     27  C   UNL     1       1.374  -1.307 -13.188  0.00  0.00    +0.077 A 
ATOM     28  C   UNL     1       2.051  -2.588 -13.374  0.00  0.00    +0.091 A 
ATOM     29  N   UNL     1       2.488  -2.622 -14.597  0.00  0.00    -0.080 NA
ATOM     30  O   UNL     1       2.133  -1.428 -15.263  0.00  0.00    -0.334 OA
ATOM     31  C   UNL     1       2.213  -3.670 -12.338  0.00  0.00    +0.070 C 
BRANCH  24  32
ATOM     32  C   UNL     1      -0.262   2.530 -13.747  0.00  0.00    +0.038 A 
ATOM     33  C   UNL     1      -0.252   3.308 -14.877  0.00  0.00    +0.017 A 
ATOM     34  C   UNL     1      -0.853   4.545 -14.833  0.00  0.00    +0.008 A 
ATOM     35  C   UNL     1      -1.437   4.957 -13.677  0.00  0.00    +0.046 A 
ATOM     36  S   UNL     1      -1.149   3.566 -12.595  0.00  0.00    -0.095 S 
ENDBRANCH  24  32
ENDBRANCH  20  22
ENDBRANCH  19  20
ENDBRANCH   1  19
TORSDOF 8
