REMARK  Name = ZINC09211954
REMARK  13 active torsions:
REMARK  status: ('A' for Active; 'I' for Inactive)
REMARK    1  A    between atoms: C_1  and  C_2
REMARK    2  A    between atoms: C_5  and  S_8
REMARK    3  A    between atoms: S_8  and  C_9
REMARK    4  A    between atoms: C_9  and  C_10
REMARK    5  A    between atoms: C_11  and  C_36
REMARK    6  A    between atoms: C_13  and  C_15
REMARK    7  A    between atoms: C_18  and  C_21
REMARK    8  A    between atoms: N_23  and  C_24
REMARK    9  A    between atoms: C_24  and  C_25
REMARK   10  A    between atoms: C_25  and  C_26
REMARK   11  A    between atoms: C_26  and  N_72
REMARK   12  A    between atoms: C_28  and  C_35
REMARK   13  A    between atoms: C_31  and  C_34
REMARK                            x       y       z     vdW  Elec       q    Type
REMARK                         _______ _______ _______ _____ _____    ______ ____
ROOT
ATOM      1  C   UNL     1       0.838   2.719 -10.552  0.00  0.00    +0.037 A 
ATOM      2  C   UNL     1       1.917   1.868 -10.798  0.00  0.00    +0.014 A 
ATOM      3  C   UNL     1       2.510   1.189  -9.758  0.00  0.00    +0.014 A 
ATOM      4  C   UNL     1       2.032   1.351  -8.455  0.00  0.00    +0.037 A 
ATOM      5  C   UNL     1       0.948   2.198  -8.210  0.00  0.00    +0.014 A 
ATOM      6  C   UNL     1       0.359   2.881  -9.249  0.00  0.00    +0.014 A 
ENDROOT
BRANCH   1  10
ATOM      7  C   UNL     1      -1.113   4.739 -12.786  0.00  0.00    +0.093 A 
ATOM      8  C   UNL     1      -0.254   4.184 -13.662  0.00  0.00    +0.127 A 
ATOM      9  O   UNL     1       0.570   3.382 -12.960  0.00  0.00    -0.440 OA
ATOM     10  C   UNL     1       0.201   3.448 -11.668  0.00  0.00    +0.228 A 
ATOM     11  N   UNL     1      -0.815   4.272 -11.565  0.00  0.00    -0.213 NA
ATOM     12  C   UNL     1      -0.217   4.421 -15.149  0.00  0.00    +0.088 C 
BRANCH   7  13
ATOM     13  C   UNL     1      -2.215   5.712 -13.118  0.00  0.00    +0.133 C 
BRANCH  13  14
ATOM     14  S   UNL     1      -1.575   7.407 -13.017  0.00  0.00    -0.119 S 
BRANCH  14  19
ATOM     15  C   UNL     1      -6.331  10.848 -14.423  0.00  0.00    +0.044 C 
ATOM     16  C   UNL     1      -5.144   9.989 -14.072  0.00  0.00    -0.050 A 
ATOM     17  C   UNL     1      -3.929  10.580 -13.772  0.00  0.00    +0.004 A 
ATOM     18  C   UNL     1      -2.839   9.795 -13.450  0.00  0.00    +0.015 A 
ATOM     19  C   UNL     1      -2.964   8.411 -13.427  0.00  0.00    +0.008 A 
ATOM     20  C   UNL     1      -4.184   7.822 -13.734  0.00  0.00    +0.015 A 
ATOM     21  C   UNL     1      -5.271   8.612 -14.050  0.00  0.00    +0.004 A 
ENDBRANCH  14  19
ENDBRANCH  13  14
ENDBRANCH   7  13
ENDBRANCH   1  10
BRANCH   4  22
ATOM     22  C   UNL     1       2.668   0.623  -7.339  0.00  0.00    +0.244 C 
ATOM     23  O   UNL     1       3.608  -0.118  -7.553  0.00  0.00    -0.270 OA
ATOM     24  N   UNL     1       2.207   0.779  -6.082  0.00  0.00    -0.311 N 
ATOM     25  H   UNL     1       1.457   1.370  -5.911  0.00  0.00    +0.149 HD
BRANCH  24  26
ATOM     26  C   UNL     1       2.837   0.057  -4.975  0.00  0.00    +0.102 C 
BRANCH  26  27
ATOM     27  C   UNL     1       2.128   0.410  -3.666  0.00  0.00    +0.000 C 
BRANCH  27  28
ATOM     28  C   UNL     1       2.787  -0.345  -2.509  0.00  0.00    -0.077 C 
BRANCH  28  36
ATOM     29  C   UNL     1       2.851  -0.519  -0.096  0.00  0.00    -0.076 C 
ATOM     30  C   UNL     1       2.194  -0.026   1.196  0.00  0.00    -0.031 C 
ATOM     31  C   UNL     1       0.743  -0.512   1.242  0.00  0.00    +0.003 C 
ATOM     32  C   UNL     1       0.002  -0.004   0.002  0.00  0.00    -0.031 C 
ATOM     33  C   UNL     1       0.723  -0.498  -1.254  0.00  0.00    -0.076 C 
ATOM     34  C   UNL     1      -0.019   1.526   0.010  0.00  0.00    +0.005 C 
ATOM     35  C   UNL     1       2.957  -0.579   2.401  0.00  0.00    +0.005 C 
ATOM     36  N   UNL     1       2.106   0.024  -1.251  0.00  0.00    +0.380 N 
ATOM     37  H   UNL     1       2.075   1.047  -1.176  0.00  0.00    -0.082 HD
ENDBRANCH  28  36
ENDBRANCH  27  28
ENDBRANCH  26  27
ENDBRANCH  24  26
ENDBRANCH   4  22
TORSDOF 9
