REMARK  Name = ZINC07194299
REMARK  5 active torsions:
REMARK  status: ('A' for Active; 'I' for Inactive)
REMARK    1  A    between atoms: C_1  and  C_2
REMARK    2  A    between atoms: C_3  and  C_7
REMARK    3  A    between atoms: C_10  and  S_12
REMARK    4  A    between atoms: S_12  and  C_13
REMARK    5  A    between atoms: C_13  and  C_14
REMARK                            x       y       z     vdW  Elec       q    Type
REMARK                         _______ _______ _______ _____ _____    ______ ____
ROOT
ATOM      1  S   UNL     1       4.420   1.909   5.086  0.00  0.00    -0.061 S 
ENDROOT
BRANCH   1   5
ATOM      2  C   UNL     1       1.304   1.711   2.784  0.00  0.00    +0.253 A 
ATOM      3  N   UNL     1       2.259   1.316   1.978  0.00  0.00    -0.106 NA
ATOM      4  N   UNL     1       3.381   1.327   2.608  0.00  0.00    -0.101 NA
ATOM      5  C   UNL     1       3.187   1.730   3.841  0.00  0.00    +0.278 A 
ATOM      6  O   UNL     1       1.871   1.986   3.979  0.00  0.00    -0.411 OA
BRANCH   2   9
ATOM      7  C   UNL     1      -0.013   1.086   0.008  0.00  0.00    +0.087 C 
ATOM      8  C   UNL     1      -0.718   1.572   1.248  0.00  0.00    +0.114 A 
ATOM      9  C   UNL     1      -0.130   1.839   2.446  0.00  0.00    +0.079 A 
ATOM     10  C   UNL     1      -1.214   2.279   3.333  0.00  0.00    +0.054 A 
ATOM     11  C   UNL     1      -2.336   2.236   2.595  0.00  0.00    +0.196 A 
ATOM     12  O   UNL     1      -2.031   1.820   1.357  0.00  0.00    -0.467 OA
ENDBRANCH   2   9
ENDBRANCH   1   5
BRANCH   1  13
ATOM     13  C   UNL     1       5.885   1.395   4.154  0.00  0.00    +0.114 C 
BRANCH  13  14
ATOM     14  C   UNL     1       7.098   1.470   5.043  0.00  0.00    -0.029 A 
ATOM     15  C   UNL     1       7.830   2.616   5.107  0.00  0.00    +0.005 A 
ATOM     16  C   UNL     1       8.951   2.707   5.929  0.00  0.00    +0.001 A 
ATOM     17  C   UNL     1       9.355   1.648   6.683  0.00  0.00    +0.008 A 
ATOM     18  C   UNL     1       8.629   0.446   6.639  0.00  0.00    -0.018 A 
ATOM     19  C   UNL     1       7.484   0.356   5.807  0.00  0.00    -0.014 A 
ATOM     20  C   UNL     1       6.758  -0.847   5.763  0.00  0.00    +0.009 A 
ATOM     21  C   UNL     1       7.163  -1.906   6.516  0.00  0.00    +0.001 A 
ATOM     22  C   UNL     1       8.288  -1.817   7.333  0.00  0.00    +0.001 A 
ATOM     23  C   UNL     1       9.016  -0.669   7.402  0.00  0.00    +0.008 A 
ENDBRANCH  13  14
ENDBRANCH   1  13
TORSDOF 4
