REMARK  Name = ZINC00623838
REMARK  7 active torsions:
REMARK  status: ('A' for Active; 'I' for Inactive)
REMARK    1  A    between atoms: C_1  and  C_2
REMARK    2  A    between atoms: C_7  and  C_8
REMARK    3  A    between atoms: N_10  and  C_11
REMARK    4  A    between atoms: C_11  and  N_13
REMARK    5  A    between atoms: N_13  and  C_14
REMARK    6  A    between atoms: C_15  and  C_25
REMARK    7  A    between atoms: C_20  and  C_24
REMARK                            x       y       z     vdW  Elec       q    Type
REMARK                         _______ _______ _______ _____ _____    ______ ____
ROOT
ATOM      1  N   UNL     1       4.782  -0.145  -4.186  0.00  0.00    -0.291 N 
ATOM      2  H   UNL     1       4.525  -0.356  -5.098  0.00  0.00    +0.154 HD
ENDROOT
BRANCH   1   3
ATOM      3  C   UNL     1       3.857  -0.259  -3.162  0.00  0.00    +0.084 A 
ATOM      4  C   UNL     1       2.528  -0.655  -3.239  0.00  0.00    +0.068 A 
ATOM      5  C   UNL     1       1.765  -0.690  -2.003  0.00  0.00    -0.023 A 
ATOM      6  C   UNL     1       2.447  -0.327  -0.895  0.00  0.00    -0.004 A 
ATOM      7  S   UNL     1       4.076   0.058  -1.472  0.00  0.00    -0.077 S 
ATOM      8  C   UNL     1       1.926  -0.268   0.508  0.00  0.00    +0.046 C 
ATOM      9  C   UNL     1       0.601  -1.041   0.564  0.00  0.00    -0.009 C 
ATOM     10  C   UNL     1      -0.283  -0.592  -0.603  0.00  0.00    +0.008 C 
ATOM     11  C   UNL     1       0.300  -1.100  -1.923  0.00  0.00    +0.037 C 
ATOM     12  C   UNL     1      -0.107  -0.749   1.889  0.00  0.00    +0.008 C 
BRANCH   4  13
ATOM     13  C   UNL     1       1.919  -1.024  -4.519  0.00  0.00    +0.244 C 
ATOM     14  O   UNL     1       1.956  -2.180  -4.901  0.00  0.00    -0.270 OA
ATOM     15  N   UNL     1       1.317  -0.085  -5.275  0.00  0.00    -0.325 N 
ATOM     16  H   UNL     1       1.287   0.836  -4.972  0.00  0.00    +0.145 HD
ATOM     17  H   UNL     1       0.913  -0.329  -6.123  0.00  0.00    +0.145 HD
ENDBRANCH   4  13
ENDBRANCH   1   3
BRANCH   1  18
ATOM     18  C   UNL     1       6.039   0.259  -3.917  0.00  0.00    +0.141 C 
ATOM     19  S   UNL     1       6.493   0.631  -2.309  0.00  0.00    -0.018 S 
BRANCH  18  22
ATOM     20  C   UNL     1       8.197   0.774  -4.645  0.00  0.00    +0.250 C 
ATOM     21  O   UNL     1       8.519   1.038  -3.503  0.00  0.00    -0.270 OA
ATOM     22  N   UNL     1       6.939   0.370  -4.914  0.00  0.00    -0.264 N 
ATOM     23  H   UNL     1       6.683   0.159  -5.825  0.00  0.00    +0.157 HD
BRANCH  20  30
ATOM     24  C   UNL     1      10.802   1.910  -4.100  0.00  0.00    +0.044 C 
ATOM     25  C   UNL     1      10.444   1.442  -5.487  0.00  0.00    -0.038 A 
ATOM     26  C   UNL     1      11.363   1.547  -6.511  0.00  0.00    +0.004 A 
ATOM     27  C   UNL     1      11.034   1.124  -7.786  0.00  0.00    +0.000 A 
ATOM     28  C   UNL     1       9.784   0.587  -8.043  0.00  0.00    +0.001 A 
ATOM     29  C   UNL     1       8.858   0.470  -7.027  0.00  0.00    +0.013 A 
ATOM     30  C   UNL     1       9.184   0.896  -5.738  0.00  0.00    +0.040 A 
ENDBRANCH  20  30
ENDBRANCH  18  22
ENDBRANCH   1  18
TORSDOF 5
