REMARK  Name = ZINC54862278
REMARK  2 active torsions:
REMARK  status: ('A' for Active; 'I' for Inactive)
REMARK    1  A    between atoms: C_1  and  C_2
REMARK    2  A    between atoms: C_2  and  C_4
REMARK                            x       y       z     vdW  Elec       q    Type
REMARK                         _______ _______ _______ _____ _____    ______ ____
ROOT
ATOM      1  C   UNL     1       0.000  -0.701  -1.221  0.00  0.00    +0.075 A 
ATOM      2  C   UNL     1      -0.013  -0.211  -2.525  0.00  0.00    +0.132 A 
ATOM      3  N   UNL     1      -0.011  -1.104  -3.479  0.00  0.00    -0.232 NA
ATOM      4  C   UNL     1       0.003  -2.400  -3.213  0.00  0.00    +0.161 A 
ATOM      5  S   UNL     1       0.021  -2.460  -1.532  0.00  0.00    -0.049 S 
ATOM      6  N   UNL     1       0.006  -3.451  -4.102  0.00  0.00    -0.307 N 
ATOM      7  C   UNL     1       0.015  -4.825  -3.599  0.00  0.00    +0.129 C 
ATOM      8  C   UNL     1      -1.290  -5.524  -3.994  0.00  0.00    +0.185 C 
ATOM      9  S   UNL     1      -1.456  -5.476  -5.803  0.00  0.00    -0.028 S 
ATOM     10  O   UNL     1      -0.342  -6.144  -6.377  0.00  0.00    -0.174 OA
ATOM     11  O   UNL     1      -2.769  -5.897  -6.147  0.00  0.00    -0.174 OA
ATOM     12  C   UNL     1      -1.307  -3.698  -6.152  0.00  0.00    +0.185 C 
ATOM     13  C   UNL     1      -0.006  -3.183  -5.541  0.00  0.00    +0.129 C 
ENDROOT
BRANCH   1  15
ATOM     14  C   UNL     1      -0.018   1.503   0.010  0.00  0.00    +0.092 C 
ATOM     15  C   UNL     1       0.002  -0.004   0.002  0.00  0.00    +0.168 C 
ATOM     16  O   UNL     1       0.020  -0.617   1.051  0.00  0.00    -0.292 OA
ENDBRANCH   1  15
TORSDOF 1
