REMARK  Name = ZINC39950171
REMARK  5 active torsions:
REMARK  status: ('A' for Active; 'I' for Inactive)
REMARK    1  A    between atoms: C_4  and  S_7
REMARK    2  A    between atoms: S_7  and  N_10
REMARK    3  A    between atoms: N_10  and  C_11
REMARK    4  A    between atoms: C_17  and  C_21
REMARK    5  A    between atoms: N_23  and  C_24
REMARK                            x       y       z     vdW  Elec       q    Type
REMARK                         _______ _______ _______ _____ _____    ______ ____
ROOT
ATOM      1  C   UNL     1       3.856  -1.879   2.320  0.00  0.00    +0.224 C 
ATOM      2  N   UNL     1       3.850  -1.549   3.752  0.00  0.00    -0.318 N 
ATOM      3  C   UNL     1       4.375  -2.485   4.632  0.00  0.00    +0.043 A 
ATOM      4  C   UNL     1       4.452  -2.336   6.032  0.00  0.00    +0.025 A 
ATOM      5  C   UNL     1       4.988  -3.315   6.825  0.00  0.00    +0.015 A 
ATOM      6  C   UNL     1       5.481  -4.500   6.271  0.00  0.00    +0.038 A 
ATOM      7  C   UNL     1       5.416  -4.670   4.883  0.00  0.00    +0.029 A 
ATOM      8  C   UNL     1       4.876  -3.681   4.100  0.00  0.00    +0.033 A 
ATOM      9  S   UNL     1       4.630  -3.546   2.342  0.00  0.00    -0.084 S 
ATOM     10  H   UNL     1       3.493  -0.706   4.070  0.00  0.00    +0.148 HD
ENDROOT
BRANCH   6  11
ATOM     11  C   UNL     1       6.058  -5.550   7.132  0.00  0.00    +0.248 C 
ATOM     12  O   UNL     1       6.482  -6.576   6.637  0.00  0.00    -0.270 OA
ATOM     13  N   UNL     1       6.114  -5.372   8.466  0.00  0.00    -0.282 N 
ATOM     14  H   UNL     1       5.843  -4.525   8.855  0.00  0.00    +0.155 HD
BRANCH  13  15
ATOM     15  C   UNL     1       6.559  -6.398   9.284  0.00  0.00    +0.034 C 
ATOM     16  C   UNL     1       7.633  -6.193  10.139  0.00  0.00    +0.029 C 
ATOM     17  C   UNL     1       8.029  -7.316  10.874  0.00  0.00    -0.016 C 
ATOM     18  C   UNL     1       8.587  -7.463  12.093  0.00  0.00    +0.025 C 
ATOM     19  C   UNL     1       8.521  -8.816  12.476  0.00  0.00    +0.106 C 
ATOM     20  N   UNL     1       8.035  -9.574  11.530  0.00  0.00    -0.279 NA
ATOM     21  C   UNL     1       7.821  -8.732  10.362  0.00  0.00    +0.158 C 
ATOM     22  C   UNL     1       6.447  -8.808   9.767  0.00  0.00    +0.006 C 
ATOM     23  C   UNL     1       5.894  -7.705   9.255  0.00  0.00    +0.021 C 
ENDBRANCH  13  15
ENDBRANCH   6  11
BRANCH   1  24
ATOM     24  N   UNL     1       4.673  -0.928   1.563  0.00  0.00    -0.160 NA
ATOM     25  H   UNL     1       5.404  -0.463   1.998  0.00  0.00    +0.151 HD
BRANCH  24  26
ATOM     26  S   UNL     1       4.349  -0.648  -0.037  0.00  0.00    +0.061 S 
ATOM     27  O   UNL     1       4.230  -1.922  -0.656  0.00  0.00    -0.153 OA
ATOM     28  O   UNL     1       5.283   0.328  -0.476  0.00  0.00    -0.153 OA
BRANCH  26  32
ATOM     29  C   UNL     1       0.261   1.283  -0.258  0.00  0.00    +0.000 A 
ATOM     30  C   UNL     1       1.391   2.070  -0.137  0.00  0.00    +0.002 A 
ATOM     31  C   UNL     1       2.640   1.480  -0.069  0.00  0.00    +0.028 A 
ATOM     32  C   UNL     1       2.758   0.104  -0.122  0.00  0.00    +0.105 A 
ATOM     33  C   UNL     1       1.627  -0.683  -0.243  0.00  0.00    +0.028 A 
ATOM     34  C   UNL     1       0.379  -0.093  -0.312  0.00  0.00    +0.002 A 
ENDBRANCH  26  32
ENDBRANCH  24  26
ENDBRANCH   1  24
TORSDOF 5
