REMARK  Name = ZINC20219855
REMARK  15 active torsions:
REMARK  status: ('A' for Active; 'I' for Inactive)
REMARK    1  A    between atoms: C_1  and  C_2
REMARK    2  A    between atoms: C_2  and  N_3
REMARK    3  A    between atoms: N_3  and  C_4
REMARK    4  A    between atoms: N_3  and  C_6
REMARK    5  A    between atoms: C_4  and  C_5
REMARK    6  A    between atoms: C_6  and  C_7
REMARK    7  A    between atoms: C_7  and  N_8
REMARK    8  A    between atoms: C_9  and  C_29
REMARK    9  A    between atoms: C_11  and  C_16
REMARK   10  A    between atoms: C_16  and  C_18
REMARK   11  A    between atoms: C_24  and  O_27
REMARK   12  A    between atoms: O_27  and  C_28
REMARK   13  A    between atoms: C_32  and  C_35
REMARK   14  A    between atoms: C_35  and  C_36
REMARK   15  A    between atoms: C_35  and  C_37
REMARK                            x       y       z     vdW  Elec       q    Type
REMARK                         _______ _______ _______ _____ _____    ______ ____
ROOT
ATOM      1  N   UNL     1      -1.204   1.924   0.029  0.00  0.00    -0.285 N 
ATOM      2  C   UNL     1      -0.718   3.309   0.051  0.00  0.00    +0.145 C 
ATOM      3  C   UNL     1       0.791   3.224   0.049  0.00  0.00    +0.079 C 
ATOM      4  C   UNL     1       1.108   1.909   0.032  0.00  0.00    +0.249 C 
ATOM      5  C   UNL     1      -0.134   1.110   0.024  0.00  0.00    +0.288 C 
ATOM      6  O   UNL     1      -0.182  -0.104   0.009  0.00  0.00    -0.266 OA
ATOM      7  O   UNL     1       2.365   1.405   0.025  0.00  0.00    -0.282 OA
ENDROOT
BRANCH   2   8
ATOM      8  C   UNL     1      -1.195   4.011   1.296  0.00  0.00    -0.022 A 
ATOM      9  C   UNL     1      -1.103   3.382   2.523  0.00  0.00    +0.006 A 
ATOM     10  C   UNL     1      -1.536   4.028   3.666  0.00  0.00    +0.004 A 
ATOM     11  C   UNL     1      -2.072   5.300   3.579  0.00  0.00    -0.045 A 
ATOM     12  C   UNL     1      -2.169   5.927   2.351  0.00  0.00    +0.004 A 
ATOM     13  C   UNL     1      -1.731   5.283   1.210  0.00  0.00    +0.006 A 
BRANCH  11  14
ATOM     14  C   UNL     1      -2.550   6.002   4.824  0.00  0.00    +0.013 C 
ATOM     15  C   UNL     1      -3.659   5.177   5.481  0.00  0.00    +0.012 C 
ATOM     16  C   UNL     1      -1.384   6.158   5.802  0.00  0.00    +0.012 C 
ENDBRANCH  11  14
ENDBRANCH   2   8
BRANCH   3  17
ATOM     17  C   UNL     1       1.730   4.351   0.062  0.00  0.00    +0.230 C 
ATOM     18  O   UNL     1       2.461   4.523   1.022  0.00  0.00    -0.283 OA
BRANCH  17  19
ATOM     19  C   UNL     1       1.791   5.271  -1.082  0.00  0.00    +0.176 A 
ATOM     20  C   UNL     1       2.684   6.288  -1.223  0.00  0.00    +0.062 A 
ATOM     21  C   UNL     1       2.371   6.926  -2.500  0.00  0.00    +0.025 A 
ATOM     22  C   UNL     1       2.910   8.006  -3.208  0.00  0.00    +0.012 A 
ATOM     23  C   UNL     1       2.375   8.363  -4.412  0.00  0.00    +0.004 A 
ATOM     24  C   UNL     1       1.300   7.663  -4.941  0.00  0.00    +0.049 A 
ATOM     25  C   UNL     1       0.751   6.593  -4.260  0.00  0.00    +0.163 A 
ATOM     26  C   UNL     1       1.281   6.211  -3.028  0.00  0.00    +0.177 A 
ATOM     27  O   UNL     1       0.973   5.232  -2.154  0.00  0.00    -0.448 OA
BRANCH  25  28
ATOM     28  O   UNL     1      -0.302   5.915  -4.789  0.00  0.00    -0.491 OA
ATOM     29  C   UNL     1      -0.792   6.362  -6.054  0.00  0.00    +0.277 C 
ENDBRANCH  25  28
ENDBRANCH  17  19
ENDBRANCH   3  17
BRANCH   1  30
ATOM     30  C   UNL     1      -2.608   1.504   0.018  0.00  0.00    +0.090 C 
BRANCH  30  31
ATOM     31  C   UNL     1      -3.103   1.341   1.456  0.00  0.00    -0.060 C 
BRANCH  31  32
ATOM     32  N   UNL     1      -4.510   0.919   1.444  0.00  0.00    +0.380 N 
ATOM     33  H   UNL     1      -5.068   1.620   0.805  0.00  0.00    -0.082 HD
BRANCH  32  35
ATOM     34  C   UNL     1      -3.945  -1.441   1.771  0.00  0.00    -0.017 C 
ATOM     35  C   UNL     1      -4.652  -0.426   0.871  0.00  0.00    -0.082 C 
ENDBRANCH  32  35
BRANCH  32  36
ATOM     36  C   UNL     1      -5.089   0.980   2.793  0.00  0.00    -0.082 C 
ATOM     37  C   UNL     1      -6.614   0.905   2.698  0.00  0.00    -0.017 C 
ENDBRANCH  32  36
ENDBRANCH  31  32
ENDBRANCH  30  31
ENDBRANCH   1  30
TORSDOF 10
