REMARK  Name = ZINC44861067
REMARK  9 active torsions:
REMARK  status: ('A' for Active; 'I' for Inactive)
REMARK    1  A    between atoms: C_1  and  C_2
REMARK    2  A    between atoms: C_2  and  C_3
REMARK    3  A    between atoms: C_3  and  C_4
REMARK    4  A    between atoms: C_4  and  C_6
REMARK    5  A    between atoms: C_4  and  C_10
REMARK    6  A    between atoms: N_7  and  O_8
REMARK    7  A    between atoms: N_12  and  C_13
REMARK    8  A    between atoms: C_14  and  C_21
REMARK    9  A    between atoms: C_18  and  C_19
REMARK                            x       y       z     vdW  Elec       q    Type
REMARK                         _______ _______ _______ _____ _____    ______ ____
ROOT
ATOM      1  C   UNL     1      -2.672  -2.881  -0.765  0.00  0.00    +0.228 C 
ATOM      2  O   UNL     1      -3.459  -2.382  -1.542  0.00  0.00    -0.275 OA
ATOM      3  N   UNL     1      -3.045  -3.935  -0.011  0.00  0.00    -0.284 N 
ATOM      4  H   UNL     1      -2.401  -4.364   0.574  0.00  0.00    +0.155 HD
ENDROOT
BRANCH   3   5
ATOM      5  C   UNL     1      -4.360  -4.409  -0.073  0.00  0.00    +0.039 A 
ATOM      6  C   UNL     1      -5.424  -3.532   0.096  0.00  0.00    -0.028 A 
ATOM      7  C   UNL     1      -6.721  -4.003   0.034  0.00  0.00    +0.020 A 
ATOM      8  C   UNL     1      -6.961  -5.346  -0.196  0.00  0.00    +0.018 A 
ATOM      9  C   UNL     1      -5.903  -6.221  -0.364  0.00  0.00    +0.020 A 
ATOM     10  C   UNL     1      -4.604  -5.755  -0.309  0.00  0.00    -0.028 A 
ATOM     11  C   UNL     1      -3.452  -6.708  -0.498  0.00  0.00    +0.046 C 
ATOM     12 BR   UNL     1      -8.738  -5.987  -0.279  0.00  0.00    -0.050 Br
ATOM     13  C   UNL     1      -5.163  -2.069   0.346  0.00  0.00    +0.046 C 
ENDBRANCH   3   5
BRANCH   1  14
ATOM     14  C   UNL     1      -1.278  -2.322  -0.642  0.00  0.00    +0.141 C 
BRANCH  14  15
ATOM     15  C   UNL     1      -1.045  -1.859   0.773  0.00  0.00    +0.144 C 
ATOM     16  N   UNL     1      -2.047  -1.519   1.514  0.00  0.00    -0.076 NA
ATOM     17  N   UNL     1       0.236  -1.797   1.275  0.00  0.00    -0.343 N 
ATOM     18  H   UNL     1       0.988  -2.052   0.719  0.00  0.00    +0.144 HD
ATOM     19  H   UNL     1       0.386  -1.499   2.186  0.00  0.00    +0.144 HD
BRANCH  16  20
ATOM     20  O   UNL     1      -1.828  -1.083   2.844  0.00  0.00    -0.408 OA
ATOM     21  H   UNL     1      -2.637  -0.851   3.319  0.00  0.00    +0.328 HD
ENDBRANCH  16  20
ENDBRANCH  14  15
BRANCH  14  22
ATOM     22  C   UNL     1      -1.116  -1.140  -1.599  0.00  0.00    +0.020 C 
BRANCH  22  24
ATOM     23  C   UNL     1       0.495   0.530  -2.524  0.00  0.00    +0.004 C 
ATOM     24  C   UNL     1       0.334  -0.652  -1.567  0.00  0.00    -0.002 C 
ENDBRANCH  22  24
ENDBRANCH  14  22
ENDBRANCH   1  14
TORSDOF 6
