REMARK  Name = ZINC15946690
REMARK  12 active torsions:
REMARK  status: ('A' for Active; 'I' for Inactive)
REMARK    1  A    between atoms: C_1  and  C_2
REMARK    2  A    between atoms: C_2  and  C_3
REMARK    3  A    between atoms: C_9  and  C_10
REMARK    4  A    between atoms: C_9  and  N_75
REMARK    5  A    between atoms: N_12  and  C_13
REMARK    6  A    between atoms: C_14  and  C_27
REMARK    7  A    between atoms: C_19  and  C_23
REMARK    8  A    between atoms: C_23  and  C_24
REMARK    9  A    between atoms: C_23  and  C_25
REMARK   10  A    between atoms: C_23  and  C_26
REMARK   11  A    between atoms: N_29  and  C_30
REMARK   12  A    between atoms: C_34  and  N_36
REMARK                            x       y       z     vdW  Elec       q    Type
REMARK                         _______ _______ _______ _____ _____    ______ ____
ROOT
ATOM      1  C   UNL     1      -0.626   7.515  -1.644  0.00  0.00    +0.084 A 
ATOM      2  C   UNL     1      -0.554   6.753  -0.486  0.00  0.00    +0.069 A 
ATOM      3  C   UNL     1      -0.361   7.457   0.770  0.00  0.00    -0.023 A 
ATOM      4  C   UNL     1      -0.277   8.802   0.669  0.00  0.00    -0.004 A 
ATOM      5  S   UNL     1      -0.451   9.137  -1.061  0.00  0.00    -0.077 S 
ATOM      6  C   UNL     1      -0.080   9.781   1.785  0.00  0.00    +0.046 C 
ATOM      7  C   UNL     1       0.390   9.010   3.027  0.00  0.00    -0.000 C 
ATOM      8  C   UNL     1      -0.518   7.793   3.224  0.00  0.00    +0.009 C 
ATOM      9  C   UNL     1      -0.256   6.764   2.123  0.00  0.00    +0.037 C 
ENDROOT
BRANCH   1  12
ATOM     10  C   UNL     1      -0.846   7.979  -3.956  0.00  0.00    +0.201 C 
ATOM     11  O   UNL     1      -0.736   9.163  -3.718  0.00  0.00    -0.278 OA
ATOM     12  N   UNL     1      -0.799   7.083  -2.950  0.00  0.00    -0.281 N 
ATOM     13  H   UNL     1      -0.887   6.136  -3.140  0.00  0.00    +0.155 HD
BRANCH  10  14
ATOM     14  C   UNL     1      -1.034   7.510  -5.375  0.00  0.00    +0.019 C 
BRANCH  14  20
ATOM     15  C   UNL     1      -2.149   9.583  -5.939  0.00  0.00    -0.068 C 
ATOM     16  C   UNL     1      -2.225  10.700  -6.983  0.00  0.00    -0.015 C 
ATOM     17  C   UNL     1      -0.896  11.459  -7.009  0.00  0.00    -0.003 C 
ATOM     18  C   UNL     1       0.238  10.476  -7.315  0.00  0.00    -0.019 C 
ATOM     19  C   UNL     1       0.242   9.366  -6.261  0.00  0.00    -0.078 C 
ATOM     20  N   UNL     1      -1.055   8.659  -6.304  0.00  0.00    +0.387 N 
ATOM     21  H   UNL     1      -1.215   8.314  -7.258  0.00  0.00    -0.081 HD
BRANCH  15  23
ATOM     22  C   UNL     1      -4.601   9.740  -5.485  0.00  0.00    +0.002 C 
ATOM     23  C   UNL     1      -3.469   8.809  -5.924  0.00  0.00    -0.019 C 
ENDBRANCH  15  23
ENDBRANCH  14  20
ENDBRANCH  10  14
ENDBRANCH   1  12
BRANCH   7  24
ATOM     24  C   UNL     1       0.306   9.917   4.256  0.00  0.00    -0.035 C 
ATOM     25  C   UNL     1      -1.141  10.371   4.456  0.00  0.00    +0.011 C 
ATOM     26  C   UNL     1       0.774   9.147   5.492  0.00  0.00    +0.011 C 
ATOM     27  C   UNL     1       1.201  11.141   4.048  0.00  0.00    +0.011 C 
ENDBRANCH   7  24
BRANCH   2  28
ATOM     28  C   UNL     1      -0.662   5.292  -0.530  0.00  0.00    +0.251 C 
ATOM     29  O   UNL     1      -1.752   4.759  -0.429  0.00  0.00    -0.270 OA
ATOM     30  N   UNL     1       0.445   4.538  -0.682  0.00  0.00    -0.281 N 
ATOM     31  H   UNL     1       1.320   4.957  -0.686  0.00  0.00    +0.155 HD
BRANCH  30  32
ATOM     32  C   UNL     1       0.333   3.152  -0.834  0.00  0.00    +0.036 A 
ATOM     33  C   UNL     1      -0.762   2.612  -1.496  0.00  0.00    +0.023 A 
ATOM     34  C   UNL     1      -0.867   1.243  -1.649  0.00  0.00    +0.004 A 
ATOM     35  C   UNL     1       0.110   0.411  -1.134  0.00  0.00    +0.033 A 
ATOM     36  C   UNL     1       1.200   0.946  -0.474  0.00  0.00    +0.128 A 
ATOM     37  C   UNL     1       1.315   2.314  -0.323  0.00  0.00    +0.056 A 
BRANCH  36  38
ATOM     38  N   UNL     1       2.247   0.052   0.071  0.00  0.00    +0.056 N 
ATOM     39  O   UNL     1       2.146  -1.155  -0.062  0.00  0.00    -0.126 OA
ATOM     40  O   UNL     1       3.208   0.523   0.653  0.00  0.00    -0.126 OA
ENDBRANCH  36  38
ENDBRANCH  30  32
ENDBRANCH   2  28
TORSDOF 8
