REMARK  Name = ZINC63529318
REMARK  10 active torsions:
REMARK  status: ('A' for Active; 'I' for Inactive)
REMARK    1  A    between atoms: C_1  and  C_2
REMARK    2  A    between atoms: C_4  and  C_17
REMARK    3  A    between atoms: C_7  and  O_12
REMARK    4  A    between atoms: O_12  and  C_13
REMARK    5  A    between atoms: C_17  and  C_18
REMARK    6  A    between atoms: C_18  and  N_19
REMARK    7  A    between atoms: N_19  and  S_20
REMARK    8  A    between atoms: S_20  and  C_23
REMARK    9  A    between atoms: C_26  and  O_33
REMARK   10  A    between atoms: O_33  and  C_34
REMARK                            x       y       z     vdW  Elec       q    Type
REMARK                         _______ _______ _______ _____ _____    ______ ____
ROOT
ATOM      1  C   UNL     1      -3.729  -1.286  -0.509  0.00  0.00    +0.110 C 
ENDROOT
BRANCH   1   2
ATOM      2  N   UNL     1      -4.721  -1.041  -1.559  0.00  0.00    -0.190 NA
ATOM      3  H   UNL     1      -4.590  -0.317  -2.192  0.00  0.00    +0.148 HD
BRANCH   2   4
ATOM      4  S   UNL     1      -6.067  -2.000  -1.667  0.00  0.00    +0.059 S 
ATOM      5  O   UNL     1      -6.624  -2.065  -0.361  0.00  0.00    -0.153 OA
ATOM      6  O   UNL     1      -6.806  -1.538  -2.788  0.00  0.00    -0.153 OA
BRANCH   4   7
ATOM      7  C   UNL     1      -5.517  -3.627  -2.062  0.00  0.00    +0.115 A 
ATOM      8  C   UNL     1      -5.717  -4.648  -1.183  0.00  0.00    +0.033 A 
ATOM      9  C   UNL     1      -5.290  -5.940  -1.478  0.00  0.00    +0.050 A 
ATOM     10  C   UNL     1      -4.658  -6.220  -2.656  0.00  0.00    +0.146 A 
ATOM     11  C   UNL     1      -4.433  -5.187  -3.590  0.00  0.00    +0.114 A 
ATOM     12  C   UNL     1      -4.876  -3.876  -3.286  0.00  0.00    +0.030 A 
ATOM     13  C   UNL     1      -4.656  -2.848  -4.221  0.00  0.00    +0.013 A 
ATOM     14  C   UNL     1      -4.027  -3.164  -5.391  0.00  0.00    +0.020 A 
ATOM     15  C   UNL     1      -3.622  -4.476  -5.630  0.00  0.00    +0.111 A 
ATOM     16  N   UNL     1      -3.818  -5.429  -4.751  0.00  0.00    -0.251 NA
BRANCH  10  17
ATOM     17  O   UNL     1      -4.247  -7.486  -2.926  0.00  0.00    -0.493 OA
ATOM     18  C   UNL     1      -4.509  -8.479  -1.933  0.00  0.00    +0.277 C 
ENDBRANCH  10  17
ENDBRANCH   4   7
ENDBRANCH   2   4
ENDBRANCH   1   2
BRANCH   1  19
ATOM     19  C   UNL     1      -2.424  -0.570  -0.864  0.00  0.00    +0.050 C 
BRANCH  19  22
ATOM     20  C   UNL     1       0.237   0.982   0.143  0.00  0.00    +0.035 C 
ATOM     21  C   UNL     1       0.098  -0.541   0.106  0.00  0.00    +0.103 C 
ATOM     22  C   UNL     1      -1.363  -0.931   0.143  0.00  0.00    -0.037 C 
ATOM     23  C   UNL     1      -1.525  -1.670   1.265  0.00  0.00    +0.003 A 
ATOM     24  C   UNL     1      -2.690  -2.334   1.860  0.00  0.00    +0.056 A 
ATOM     25  C   UNL     1      -2.546  -3.019   3.020  0.00  0.00    +0.131 A 
ATOM     26  C   UNL     1      -1.311  -3.122   3.683  0.00  0.00    +0.048 A 
ATOM     27  C   UNL     1      -0.184  -2.546   3.214  0.00  0.00    +0.029 A 
ATOM     28  C   UNL     1      -0.224  -1.779   1.965  0.00  0.00    +0.043 A 
ATOM     29  N   UNL     1       0.706  -1.134   1.302  0.00  0.00    -0.378 N 
ATOM     30  H   UNL     1       1.638  -1.060   1.559  0.00  0.00    +0.160 HD
BRANCH  25  31
ATOM     31  O   UNL     1      -3.634  -3.629   3.560  0.00  0.00    -0.406 OA
BRANCH  31  32
ATOM     32  C   UNL     1      -3.438  -4.341   4.783  0.00  0.00    +0.575 C 
ATOM     33  F   UNL     1      -2.974  -3.461   5.766  0.00  0.00    -0.133 F 
ATOM     34  F   UNL     1      -4.651  -4.903   5.196  0.00  0.00    -0.133 F 
ATOM     35  F   UNL     1      -2.497  -5.357   4.585  0.00  0.00    -0.133 F 
ENDBRANCH  31  32
ENDBRANCH  25  31
ENDBRANCH  19  22
ENDBRANCH   1  19
TORSDOF 8
