REMARK  Name = ZINC46810942
REMARK  7 active torsions:
REMARK  status: ('A' for Active; 'I' for Inactive)
REMARK    1  A    between atoms: C_3  and  C_29
REMARK    2  A    between atoms: C_11  and  C_14
REMARK    3  A    between atoms: N_16  and  C_17
REMARK    4  A    between atoms: C_17  and  C_18
REMARK    5  A    between atoms: C_18  and  C_19
REMARK    6  A    between atoms: C_22  and  S_25
REMARK    7  A    between atoms: S_25  and  N_28
REMARK                            x       y       z     vdW  Elec       q    Type
REMARK                         _______ _______ _______ _____ _____    ______ ____
ROOT
ATOM      1  C   UNL     1       4.851  -4.022   0.541  0.00  0.00    +0.218 C 
ATOM      2  O   UNL     1       4.290  -4.604  -0.363  0.00  0.00    -0.275 OA
ATOM      3  N   UNL     1       5.659  -4.699   1.380  0.00  0.00    -0.315 N 
ATOM      4  H   UNL     1       6.107  -4.233   2.103  0.00  0.00    +0.149 HD
ENDROOT
BRANCH   1  15
ATOM      5  C   UNL     1      -0.051   1.296   0.141  0.00  0.00    +0.020 A 
ATOM      6  C   UNL     1       0.456   1.092  -1.135  0.00  0.00    +0.017 A 
ATOM      7  C   UNL     1       1.684   0.470  -1.266  0.00  0.00    +0.095 A 
ATOM      8  C   UNL     1       2.366   0.071  -0.121  0.00  0.00    +0.133 A 
ATOM      9  N   UNL     1       1.848   0.283   1.079  0.00  0.00    -0.240 NA
ATOM     10  C   UNL     1       0.679   0.874   1.234  0.00  0.00    +0.113 A 
ATOM     11  N   UNL     1       3.601  -0.556  -0.238  0.00  0.00    -0.314 N 
ATOM     12  C   UNL     1       4.842   0.231  -0.248  0.00  0.00    +0.106 C 
ATOM     13  C   UNL     1       5.782  -0.317   0.830  0.00  0.00    +0.020 C 
ATOM     14  C   UNL     1       5.987  -1.817   0.609  0.00  0.00    +0.016 C 
ATOM     15  C   UNL     1       4.643  -2.541   0.727  0.00  0.00    +0.092 C 
ATOM     16  C   UNL     1       3.690  -2.018  -0.347  0.00  0.00    +0.119 C 
BRANCH   7  17
ATOM     17  C   UNL     1       2.275   0.227  -2.631  0.00  0.00    +0.421 C 
ATOM     18  F   UNL     1       1.405   0.716  -3.610  0.00  0.00    -0.166 F 
ATOM     19  F   UNL     1       3.506   0.885  -2.730  0.00  0.00    -0.166 F 
ATOM     20  F   UNL     1       2.465  -1.147  -2.819  0.00  0.00    -0.166 F 
ENDBRANCH   7  17
ENDBRANCH   1  15
BRANCH   3  21
ATOM     21  C   UNL     1       5.861  -6.139   1.200  0.00  0.00    +0.109 C 
BRANCH  21  22
ATOM     22  C   UNL     1       6.816  -6.659   2.276  0.00  0.00    +0.054 C 
BRANCH  22  23
ATOM     23  C   UNL     1       7.024  -8.140   2.091  0.00  0.00    -0.046 A 
ATOM     24  C   UNL     1       6.184  -9.040   2.721  0.00  0.00    +0.005 A 
ATOM     25  C   UNL     1       6.375 -10.398   2.550  0.00  0.00    +0.029 A 
ATOM     26  C   UNL     1       7.405 -10.857   1.750  0.00  0.00    +0.105 A 
ATOM     27  C   UNL     1       8.243  -9.957   1.120  0.00  0.00    +0.029 A 
ATOM     28  C   UNL     1       8.050  -8.598   1.287  0.00  0.00    +0.005 A 
BRANCH  26  29
ATOM     29  S   UNL     1       7.648 -12.588   1.534  0.00  0.00    +0.056 S 
ATOM     30  O   UNL     1       9.012 -12.765   1.177  0.00  0.00    -0.153 OA
ATOM     31  O   UNL     1       7.069 -13.224   2.665  0.00  0.00    -0.153 OA
BRANCH  29  32
ATOM     32  N   UNL     1       6.751 -13.049   0.221  0.00  0.00    -0.204 NA
ATOM     33  H   UNL     1       7.043 -13.792  -0.330  0.00  0.00    +0.144 HD
ATOM     34  H   UNL     1       5.933 -12.575   0.002  0.00  0.00    +0.144 HD
ENDBRANCH  29  32
ENDBRANCH  26  29
ENDBRANCH  22  23
ENDBRANCH  21  22
ENDBRANCH   3  21
TORSDOF 7
