REMARK  Name = ZINC49404253
REMARK  5 active torsions:
REMARK  status: ('A' for Active; 'I' for Inactive)
REMARK    1  A    between atoms: C_8  and  S_12
REMARK    2  A    between atoms: S_12  and  C_13
REMARK    3  A    between atoms: C_13  and  C_14
REMARK    4  A    between atoms: N_16  and  C_17
REMARK    5  A    between atoms: C_17  and  C_18
REMARK                            x       y       z     vdW  Elec       q    Type
REMARK                         _______ _______ _______ _____ _____    ______ ____
ROOT
ATOM      1  C   UNL     1       5.267  -5.540  -0.070  0.00  0.00    +0.171 C 
ENDROOT
BRANCH   1   2
ATOM      2  C   UNL     1       6.693  -6.028  -0.081  0.00  0.00    +0.224 C 
ATOM      3  O   UNL     1       7.607  -5.231  -0.080  0.00  0.00    -0.275 OA
ATOM      4  N   UNL     1       6.953  -7.351  -0.092  0.00  0.00    -0.311 N 
ATOM      5  H   UNL     1       6.222  -7.989  -0.093  0.00  0.00    +0.149 HD
BRANCH   4   6
ATOM      6  C   UNL     1       8.339  -7.825  -0.103  0.00  0.00    +0.139 C 
BRANCH   6   7
ATOM      7  C   UNL     1       8.354  -9.332  -0.114  0.00  0.00    -0.030 A 
ATOM      8  C   UNL     1       8.361 -10.032   1.079  0.00  0.00    +0.006 A 
ATOM      9  C   UNL     1       8.375 -11.414   1.069  0.00  0.00    +0.020 A 
ATOM     10  C   UNL     1       8.381 -12.097  -0.134  0.00  0.00    +0.041 A 
ATOM     11  C   UNL     1       8.374 -11.396  -1.327  0.00  0.00    +0.020 A 
ATOM     12  C   UNL     1       8.354 -10.014  -1.316  0.00  0.00    +0.006 A 
ATOM     13 CL   UNL     1       8.399 -13.833  -0.146  0.00  0.00    -0.084 Cl
ENDBRANCH   6   7
ENDBRANCH   4   6
ENDBRANCH   1   2
BRANCH   1  14
ATOM     14  S   UNL     1       5.249  -3.727  -0.057  0.00  0.00    -0.096 S 
BRANCH  14  22
ATOM     15  C   UNL     1      -0.016   1.348   0.009  0.00  0.00    +0.041 A 
ATOM     16  C   UNL     1       1.309   1.798  -0.001  0.00  0.00    +0.135 A 
ATOM     17  N   UNL     1       2.099   0.755  -0.014  0.00  0.00    -0.173 NA
ATOM     18  N   UNL     1       1.303  -0.398  -0.013  0.00  0.00    -0.222 N 
ATOM     19  C   UNL     1       0.002  -0.004   0.002  0.00  0.00    +0.116 A 
ATOM     20  C   UNL     1       1.764  -1.715  -0.024  0.00  0.00    +0.158 A 
ATOM     21  C   UNL     1       3.126  -1.985  -0.033  0.00  0.00    +0.083 A 
ATOM     22  C   UNL     1       3.535  -3.317  -0.045  0.00  0.00    +0.103 A 
ATOM     23  N   UNL     1       2.611  -4.277  -0.047  0.00  0.00    -0.229 NA
ATOM     24  C   UNL     1       1.329  -3.978  -0.039  0.00  0.00    +0.224 A 
ATOM     25  N   UNL     1       0.904  -2.731  -0.022  0.00  0.00    -0.217 NA
ENDBRANCH  14  22
ENDBRANCH   1  14
TORSDOF 5
