REMARK  Name = ZINC36307804
REMARK  17 active torsions:
REMARK  status: ('A' for Active; 'I' for Inactive)
REMARK    1  A    between atoms: C_1  and  C_2
REMARK    2  A    between atoms: C_2  and  C_3
REMARK    3  A    between atoms: C_2  and  C_4
REMARK    4  A    between atoms: C_2  and  O_5
REMARK    5  A    between atoms: O_5  and  C_6
REMARK    6  A    between atoms: C_6  and  C_7
REMARK    7  A    between atoms: C_7  and  C_9
REMARK    8  A    between atoms: C_7  and  O_36
REMARK    9  A    between atoms: C_9  and  N_10
REMARK   10  A    between atoms: N_10  and  C_11
REMARK   11  A    between atoms: N_10  and  C_32
REMARK   12  A    between atoms: C_11  and  C_12
REMARK   13  A    between atoms: C_13  and  C_26
REMARK   14  A    between atoms: N_15  and  C_25
REMARK   15  A    between atoms: C_16  and  O_17
REMARK   16  A    between atoms: O_17  and  C_18
REMARK   17  A    between atoms: C_32  and  C_33
REMARK                            x       y       z     vdW  Elec       q    Type
REMARK                         _______ _______ _______ _____ _____    ______ ____
ROOT
ATOM      1  C   UNL     1       5.668  -0.944  -1.727  0.00  0.00    +0.025 A 
ATOM      2  C   UNL     1       6.094  -2.266  -1.960  0.00  0.00    +0.098 A 
ATOM      3  N   UNL     1       6.013  -2.927  -0.825  0.00  0.00    -0.168 NA
ATOM      4  N   UNL     1       5.537  -2.053   0.161  0.00  0.00    -0.235 N 
ATOM      5  C   UNL     1       5.338  -0.839  -0.415  0.00  0.00    +0.221 A 
ATOM      6  C   UNL     1       5.301  -2.388   1.567  0.00  0.00    +0.176 C 
ENDROOT
BRANCH   2   7
ATOM      7  C   UNL     1       6.553  -2.817  -3.259  0.00  0.00    +0.002 A 
ATOM      8  C   UNL     1       5.881  -2.490  -4.434  0.00  0.00    +0.010 A 
ATOM      9  C   UNL     1       6.313  -3.005  -5.639  0.00  0.00    +0.001 A 
ATOM     10  C   UNL     1       7.410  -3.846  -5.682  0.00  0.00    +0.000 A 
ATOM     11  C   UNL     1       8.081  -4.175  -4.517  0.00  0.00    +0.001 A 
ATOM     12  C   UNL     1       7.661  -3.660  -3.307  0.00  0.00    +0.010 A 
ENDBRANCH   2   7
BRANCH   1  13
ATOM     13  C   UNL     1       5.599   0.159  -2.751  0.00  0.00    -0.035 C 
BRANCH  13  14
ATOM     14  N   UNL     1       4.240   0.229  -3.305  0.00  0.00    +0.384 N 
ATOM     15  H   UNL     1       3.971  -0.680  -3.651  0.00  0.00    -0.081 HD
BRANCH  14  16
ATOM     16  C   UNL     1       3.304   0.650  -2.254  0.00  0.00    -0.044 C 
BRANCH  16  17
ATOM     17  C   UNL     1       1.870   0.543  -2.776  0.00  0.00    +0.124 C 
BRANCH  17  18
ATOM     18  O   UNL     1       1.661   1.520  -3.797  0.00  0.00    -0.391 OA
ATOM     19  H   UNL     1       1.789   2.432  -3.501  0.00  0.00    +0.210 HD
ENDBRANCH  17  18
BRANCH  17  20
ATOM     20  C   UNL     1       0.890   0.788  -1.627  0.00  0.00    +0.189 C 
BRANCH  20  21
ATOM     21  O   UNL     1      -0.446   0.573  -2.086  0.00  0.00    -0.372 OA
BRANCH  21  23
ATOM     22  C   UNL     1      -1.369   2.217  -0.574  0.00  0.00    +0.041 C 
ATOM     23  C   UNL     1      -1.445   0.777  -1.085  0.00  0.00    +0.061 C 
ATOM     24  C   UNL     1      -1.207  -0.190   0.077  0.00  0.00    +0.041 C 
ATOM     25  C   UNL     1      -2.829   0.522  -1.686  0.00  0.00    +0.041 C 
ENDBRANCH  21  23
ENDBRANCH  20  21
ENDBRANCH  17  20
ENDBRANCH  16  17
ENDBRANCH  14  16
BRANCH  14  26
ATOM     26  C   UNL     1       4.210   1.201  -4.406  0.00  0.00    -0.075 C 
BRANCH  26  27
ATOM     27  C   UNL     1       5.143   0.734  -5.525  0.00  0.00    -0.028 C 
ATOM     28  C   UNL     1       6.361   1.606  -5.839  0.00  0.00    +0.002 C 
ATOM     29  C   UNL     1       5.178   1.566  -6.809  0.00  0.00    +0.002 C 
ENDBRANCH  26  27
ENDBRANCH  14  26
ENDBRANCH  13  14
ENDBRANCH   1  13
BRANCH   5  30
ATOM     30  O   UNL     1       4.886   0.278   0.210  0.00  0.00    -0.438 OA
BRANCH  30  31
ATOM     31  C   UNL     1       5.803   1.119   0.756  0.00  0.00    +0.131 A 
ATOM     32  C   UNL     1       7.158   0.881   0.575  0.00  0.00    +0.049 A 
ATOM     33  C   UNL     1       8.089   1.737   1.131  0.00  0.00    +0.042 A 
ATOM     34  C   UNL     1       7.671   2.831   1.870  0.00  0.00    +0.124 A 
ATOM     35  C   UNL     1       6.319   3.069   2.052  0.00  0.00    +0.042 A 
ATOM     36  C   UNL     1       5.386   2.219   1.492  0.00  0.00    +0.049 A 
ATOM     37  F   UNL     1       8.583   3.666   2.414  0.00  0.00    -0.205 F 
ENDBRANCH  30  31
ENDBRANCH   5  30
TORSDOF 13
