REMARK  Name = ZINC34835831
REMARK  10 active torsions:
REMARK  status: ('A' for Active; 'I' for Inactive)
REMARK    1  A    between atoms: C_1  and  C_2
REMARK    2  A    between atoms: C_2  and  N_3
REMARK    3  A    between atoms: N_6  and  C_7
REMARK    4  A    between atoms: N_6  and  C_29
REMARK    5  A    between atoms: C_7  and  C_8
REMARK    6  A    between atoms: C_9  and  C_28
REMARK    7  A    between atoms: N_11  and  C_21
REMARK    8  A    between atoms: C_12  and  N_13
REMARK    9  A    between atoms: N_16  and  C_19
REMARK   10  A    between atoms: C_19  and  C_20
REMARK                            x       y       z     vdW  Elec       q    Type
REMARK                         _______ _______ _______ _____ _____    ______ ____
ROOT
ATOM      1  C   UNL     1       0.694  -3.787  -3.070  0.00  0.00    +0.032 A 
ATOM      2  C   UNL     1      -0.694  -3.789  -3.235  0.00  0.00    +0.067 A 
ATOM      3  N   UNL     1      -0.959  -3.840  -4.516  0.00  0.00    -0.170 NA
ATOM      4  N   UNL     1       0.252  -3.873  -5.218  0.00  0.00    -0.218 N 
ATOM      5  C   UNL     1       1.262  -3.834  -4.307  0.00  0.00    +0.130 A 
ATOM      6  C   UNL     1      -1.713  -3.741  -2.126  0.00  0.00    +0.068 C 
ENDROOT
BRANCH   5   7
ATOM      7  N   UNL     1       2.625  -3.844  -4.587  0.00  0.00    -0.318 N 
ATOM      8  C   UNL     1       3.339  -5.107  -4.829  0.00  0.00    +0.088 C 
ATOM      9  C   UNL     1       4.138  -4.973  -6.129  0.00  0.00    -0.060 C 
ATOM     10  N   UNL     1       5.007  -3.792  -6.049  0.00  0.00    +0.382 N 
ATOM     11  C   UNL     1       4.189  -2.575  -5.960  0.00  0.00    -0.060 C 
ATOM     12  C   UNL     1       3.392  -2.590  -4.656  0.00  0.00    +0.088 C 
ATOM     13  H   UNL     1       5.593  -3.862  -5.231  0.00  0.00    -0.082 HD
BRANCH  10  14
ATOM     14  C   UNL     1       5.851  -3.725  -7.249  0.00  0.00    -0.082 C 
ATOM     15  C   UNL     1       6.843  -2.568  -7.111  0.00  0.00    -0.017 C 
ENDBRANCH  10  14
ENDBRANCH   5   7
BRANCH   4  16
ATOM     16  C   UNL     1       0.398  -3.930  -6.611  0.00  0.00    +0.070 A 
ATOM     17  C   UNL     1       1.248  -3.043  -7.258  0.00  0.00    +0.028 A 
ATOM     18  C   UNL     1       1.391  -3.101  -8.631  0.00  0.00    +0.005 A 
ATOM     19  C   UNL     1       0.689  -4.041  -9.362  0.00  0.00    +0.038 A 
ATOM     20  C   UNL     1      -0.159  -4.928  -8.720  0.00  0.00    +0.125 A 
ATOM     21  C   UNL     1      -0.302  -4.878  -7.345  0.00  0.00    +0.066 A 
ATOM     22  F   UNL     1      -0.844  -5.846  -9.437  0.00  0.00    -0.205 F 
ENDBRANCH   4  16
BRANCH   1  23
ATOM     23  C   UNL     1       1.431  -3.736  -1.756  0.00  0.00    +0.150 C 
BRANCH  23  27
ATOM     24  N   UNL     1       0.559  -0.508  -0.231  0.00  0.00    -0.299 N 
ATOM     25  C   UNL     1       0.529  -1.815  -0.559  0.00  0.00    +0.303 C 
ATOM     26  O   UNL     1      -0.393  -2.514  -0.186  0.00  0.00    -0.253 OA
ATOM     27  N   UNL     1       1.521  -2.346  -1.301  0.00  0.00    -0.278 N 
ATOM     28  H   UNL     1       1.328   0.034  -0.467  0.00  0.00    +0.150 HD
BRANCH  27  29
ATOM     29  C   UNL     1       2.688  -1.534  -1.652  0.00  0.00    +0.078 C 
ATOM     30  C   UNL     1       4.071  -2.155  -1.439  0.00  0.00    +0.024 C 
ATOM     31  C   UNL     1       3.579  -1.045  -0.508  0.00  0.00    +0.024 C 
ENDBRANCH  27  29
BRANCH  24  33
ATOM     32  C   UNL     1      -0.285   1.577   0.730  0.00  0.00    +0.024 C 
ATOM     33  C   UNL     1      -0.571   0.095   0.481  0.00  0.00    +0.102 C 
ENDBRANCH  24  33
ENDBRANCH  23  27
ENDBRANCH   1  23
TORSDOF 7
