REMARK  Name = ZINC44875859
REMARK  13 active torsions:
REMARK  status: ('A' for Active; 'I' for Inactive)
REMARK    1  A    between atoms: C_1  and  C_2
REMARK    2  A    between atoms: C_2  and  O_3
REMARK    3  A    between atoms: O_3  and  C_4
REMARK    4  A    between atoms: C_7  and  N_10
REMARK    5  A    between atoms: N_10  and  C_11
REMARK    6  A    between atoms: N_10  and  S_30
REMARK    7  A    between atoms: C_11  and  C_12
REMARK    8  A    between atoms: N_14  and  C_15
REMARK    9  A    between atoms: C_15  and  C_16
REMARK   10  A    between atoms: C_19  and  C_22
REMARK   11  A    between atoms: C_22  and  N_23
REMARK   12  A    between atoms: C_26  and  C_29
REMARK   13  A    between atoms: S_30  and  C_33
REMARK                            x       y       z     vdW  Elec       q    Type
REMARK                         _______ _______ _______ _____ _____    ______ ____
ROOT
ATOM      1  C   UNL     1       1.837  -6.540   4.002  0.00  0.00    +0.232 C 
ATOM      2  O   UNL     1       0.750  -6.122   4.343  0.00  0.00    -0.274 OA
ATOM      3  N   UNL     1       2.693  -7.021   4.925  0.00  0.00    -0.310 N 
ATOM      4  H   UNL     1       3.562  -7.354   4.653  0.00  0.00    +0.149 HD
ENDROOT
BRANCH   1   5
ATOM      5  C   UNL     1       2.229  -6.521   2.547  0.00  0.00    +0.226 C 
BRANCH   5   6
ATOM      6  N   UNL     1       1.135  -5.956   1.754  0.00  0.00    -0.199 N 
BRANCH   6  10
ATOM      7  C   UNL     1       0.802  -1.825   1.306  0.00  0.00    +0.121 A 
ATOM      8  C   UNL     1       0.259  -2.672   0.351  0.00  0.00    +0.047 A 
ATOM      9  C   UNL     1       0.369  -4.041   0.498  0.00  0.00    +0.028 A 
ATOM     10  C   UNL     1       1.024  -4.569   1.603  0.00  0.00    +0.052 A 
ATOM     11  C   UNL     1       1.567  -3.721   2.559  0.00  0.00    +0.028 A 
ATOM     12  C   UNL     1       1.461  -2.352   2.407  0.00  0.00    +0.047 A 
BRANCH   7  13
ATOM     13  O   UNL     1       0.693  -0.477   1.160  0.00  0.00    -0.492 OA
BRANCH  13  15
ATOM     14  C   UNL     1      -0.019   1.526   0.010  0.00  0.00    +0.048 C 
ATOM     15  C   UNL     1       0.002  -0.004   0.002  0.00  0.00    +0.225 C 
ENDBRANCH  13  15
ENDBRANCH   7  13
ENDBRANCH   6  10
BRANCH   6  16
ATOM     16  S   UNL     1       0.030  -6.958   1.035  0.00  0.00    +0.043 S 
ATOM     17  O   UNL     1      -0.036  -8.094   1.886  0.00  0.00    -0.155 OA
ATOM     18  O   UNL     1      -1.114  -6.144   0.822  0.00  0.00    -0.155 OA
ATOM     19  C   UNL     1       0.778  -7.412  -0.555  0.00  0.00    +0.218 C 
ENDBRANCH   6  16
ENDBRANCH   5   6
ENDBRANCH   1   5
BRANCH   3  20
ATOM     20  C   UNL     1       2.312  -7.039   6.339  0.00  0.00    +0.139 C 
BRANCH  20  21
ATOM     21  C   UNL     1       3.437  -7.620   7.156  0.00  0.00    -0.030 A 
ATOM     22  C   UNL     1       3.493  -8.982   7.386  0.00  0.00    +0.005 A 
ATOM     23  C   UNL     1       4.525  -9.515   8.135  0.00  0.00    +0.002 A 
ATOM     24  C   UNL     1       5.502  -8.686   8.653  0.00  0.00    -0.064 A 
ATOM     25  C   UNL     1       5.448  -7.325   8.422  0.00  0.00    +0.002 A 
ATOM     26  C   UNL     1       4.418  -6.792   7.670  0.00  0.00    +0.005 A 
BRANCH  24  27
ATOM     27  C   UNL     1       6.627  -9.268   9.470  0.00  0.00    -0.043 C 
BRANCH  27  28
ATOM     28  N   UNL     1       7.744  -9.622   8.584  0.00  0.00    +0.382 N 
ATOM     29  C   UNL     1       8.287  -8.403   7.972  0.00  0.00    -0.078 C 
ATOM     30  C   UNL     1       9.397  -8.774   6.986  0.00  0.00    -0.016 C 
ATOM     31  C   UNL     1      10.511  -9.511   7.735  0.00  0.00    -0.018 C 
ATOM     32  C   UNL     1       9.919 -10.740   8.431  0.00  0.00    -0.016 C 
ATOM     33  C   UNL     1       8.790 -10.296   9.363  0.00  0.00    -0.078 C 
ATOM     34  C   UNL     1      11.588  -9.955   6.742  0.00  0.00    +0.007 C 
ATOM     35  H   UNL     1       7.413 -10.241   7.860  0.00  0.00    -0.081 HD
ENDBRANCH  27  28
ENDBRANCH  24  27
ENDBRANCH  20  21
ENDBRANCH   3  20
TORSDOF 10
