REMARK  Name = ZINC12924703
REMARK  5 active torsions:
REMARK  status: ('A' for Active; 'I' for Inactive)
REMARK    1  A    between atoms: C_3  and  N_10
REMARK    2  A    between atoms: C_6  and  C_7
REMARK    3  A    between atoms: C_11  and  C_13
REMARK    4  A    between atoms: N_16  and  S_19
REMARK    5  A    between atoms: S_19  and  C_22
REMARK                            x       y       z     vdW  Elec       q    Type
REMARK                         _______ _______ _______ _____ _____    ______ ____
ROOT
ATOM      1  C   UNL     1      -4.710  -0.437   3.655  0.00  0.00    +0.078 C 
ATOM      2  C   UNL     1      -5.226   0.585   2.640  0.00  0.00    +0.030 C 
ATOM      3  C   UNL     1      -4.040   1.338   2.031  0.00  0.00    +0.110 C 
ATOM      4  N   UNL     1      -3.094   0.361   1.475  0.00  0.00    -0.177 NA
ATOM      5  C   UNL     1      -2.609  -0.723   2.340  0.00  0.00    +0.110 C 
ATOM      6  C   UNL     1      -3.808  -1.450   2.947  0.00  0.00    +0.030 C 
ENDROOT
BRANCH   1   8
ATOM      7  N   UNL     1      -5.663  -2.108   5.210  0.00  0.00    -0.285 N 
ATOM      8  C   UNL     1      -5.878  -1.156   4.281  0.00  0.00    +0.220 C 
ATOM      9  O   UNL     1      -7.010  -0.879   3.948  0.00  0.00    -0.275 OA
ATOM     10  H   UNL     1      -4.757  -2.385   5.421  0.00  0.00    +0.155 HD
BRANCH   7  13
ATOM     11  C   UNL     1      -7.741  -4.615   6.903  0.00  0.00    +0.015 A 
ATOM     12  C   UNL     1      -6.677  -4.032   6.253  0.00  0.00    +0.024 A 
ATOM     13  C   UNL     1      -6.742  -2.696   5.869  0.00  0.00    +0.033 A 
ATOM     14  C   UNL     1      -7.880  -1.944   6.146  0.00  0.00    +0.024 A 
ATOM     15  C   UNL     1      -8.949  -2.523   6.791  0.00  0.00    +0.015 A 
ATOM     16  C   UNL     1      -8.887  -3.864   7.178  0.00  0.00    +0.037 A 
BRANCH  16  17
ATOM     17  C   UNL     1     -10.030  -4.486   7.875  0.00  0.00    +0.242 C 
ATOM     18  O   UNL     1      -9.975  -5.653   8.211  0.00  0.00    -0.270 OA
ATOM     19  N   UNL     1     -11.134  -3.760   8.139  0.00  0.00    -0.325 N 
ATOM     20  H   UNL     1     -11.178  -2.829   7.872  0.00  0.00    +0.145 HD
ATOM     21  H   UNL     1     -11.885  -4.169   8.597  0.00  0.00    +0.145 HD
ENDBRANCH  16  17
ENDBRANCH   7  13
ENDBRANCH   1   8
BRANCH   4  22
ATOM     22  S   UNL     1      -2.590   0.474  -0.098  0.00  0.00    +0.061 S 
ATOM     23  O   UNL     1      -3.595   1.198  -0.795  0.00  0.00    -0.153 OA
ATOM     24  O   UNL     1      -2.181  -0.829  -0.489  0.00  0.00    -0.153 OA
BRANCH  22  25
ATOM     25  C   UNL     1      -1.144   1.481  -0.111  0.00  0.00    +0.106 A 
ATOM     26  C   UNL     1       0.103   0.902   0.032  0.00  0.00    +0.029 A 
ATOM     27  C   UNL     1       1.236   1.692   0.015  0.00  0.00    +0.006 A 
ATOM     28  C   UNL     1       1.126   3.064  -0.137  0.00  0.00    -0.044 A 
ATOM     29  C   UNL     1      -0.121   3.644  -0.274  0.00  0.00    -0.042 A 
ATOM     30  C   UNL     1      -1.256   2.850  -0.257  0.00  0.00    +0.032 A 
ATOM     31  C   UNL     1       0.025   5.143  -0.424  0.00  0.00    +0.036 C 
ATOM     32  C   UNL     1       1.504   5.369  -0.803  0.00  0.00    +0.009 C 
ATOM     33  C   UNL     1       2.196   4.134  -0.187  0.00  0.00    +0.036 C 
ENDBRANCH  22  25
ENDBRANCH   4  22
TORSDOF 5
