REMARK  Name = ZINC40755946
REMARK  8 active torsions:
REMARK  status: ('A' for Active; 'I' for Inactive)
REMARK    1  A    between atoms: C_1  and  C_2
REMARK    2  A    between atoms: C_2  and  C_4
REMARK    3  A    between atoms: C_2  and  N_10
REMARK    4  A    between atoms: C_12  and  N_26
REMARK    5  A    between atoms: C_13  and  N_17
REMARK    6  A    between atoms: N_17  and  C_18
REMARK    7  A    between atoms: C_18  and  C_19
REMARK    8  A    between atoms: C_19  and  C_20
REMARK                            x       y       z     vdW  Elec       q    Type
REMARK                         _______ _______ _______ _____ _____    ______ ____
ROOT
ATOM      1  N   UNL     1       0.711  -0.489   1.189  0.00  0.00    -0.321 N 
ATOM      2  C   UNL     1       0.031  -0.638   2.392  0.00  0.00    +0.145 A 
ATOM      3  C   UNL     1       0.697  -1.094   3.531  0.00  0.00    +0.105 A 
ATOM      4  C   UNL     1      -0.034  -1.225   4.713  0.00  0.00    +0.145 A 
ATOM      5  N   UNL     1      -1.327  -0.912   4.710  0.00  0.00    -0.219 NA
ATOM      6  C   UNL     1      -1.918  -0.485   3.612  0.00  0.00    +0.225 A 
ATOM      7  N   UNL     1      -1.264  -0.342   2.477  0.00  0.00    -0.219 NA
ATOM      8  H   UNL     1       1.654  -0.707   1.135  0.00  0.00    +0.148 HD
ENDROOT
BRANCH   3   9
ATOM      9  N   UNL     1       2.064  -1.413   3.488  0.00  0.00    -0.353 N 
ATOM     10  H   UNL     1       2.558  -1.318   2.659  0.00  0.00    +0.143 HD
ATOM     11  H   UNL     1       2.513  -1.729   4.288  0.00  0.00    +0.143 HD
ENDBRANCH   3   9
BRANCH   1  13
ATOM     12  C   UNL     1      -0.019   1.526   0.010  0.00  0.00    +0.033 C 
ATOM     13  C   UNL     1       0.002  -0.004   0.002  0.00  0.00    +0.099 C 
BRANCH  13  14
ATOM     14  C   UNL     1       0.707  -0.490  -1.238  0.00  0.00    -0.028 A 
ATOM     15  C   UNL     1       2.089  -0.511  -1.284  0.00  0.00    +0.005 A 
ATOM     16  C   UNL     1       2.736  -0.957  -2.421  0.00  0.00    +0.000 A 
ATOM     17  C   UNL     1       2.002  -1.382  -3.512  0.00  0.00    +0.000 A 
ATOM     18  C   UNL     1       0.620  -1.362  -3.466  0.00  0.00    +0.000 A 
ATOM     19  C   UNL     1      -0.027  -0.920  -2.327  0.00  0.00    +0.005 A 
ENDBRANCH  13  14
ENDBRANCH   1  13
BRANCH   4  20
ATOM     20  N   UNL     1       0.581  -1.675   5.876  0.00  0.00    -0.327 N 
ATOM     21  H   UNL     1       1.524  -1.901   5.870  0.00  0.00    +0.148 HD
BRANCH  20  22
ATOM     22  C   UNL     1      -0.196  -1.808   7.111  0.00  0.00    +0.107 C 
BRANCH  22  23
ATOM     23  C   UNL     1       0.711  -2.318   8.232  0.00  0.00    +0.049 C 
BRANCH  23  24
ATOM     24  C   UNL     1      -0.088  -2.455   9.502  0.00  0.00    -0.072 C 
ATOM     25  C   UNL     1      -0.584  -3.617   9.785  0.00  0.00    -0.028 C 
ATOM     26  C   UNL     1      -1.409  -3.904  11.006  0.00  0.00    +0.027 C 
ATOM     27  C   UNL     1      -1.222  -2.793  12.041  0.00  0.00    +0.004 C 
ATOM     28  C   UNL     1      -1.415  -1.441  11.343  0.00  0.00    +0.005 C 
ATOM     29  C   UNL     1      -0.255  -1.237  10.363  0.00  0.00    +0.030 C 
ENDBRANCH  23  24
ENDBRANCH  22  23
ENDBRANCH  20  22
ENDBRANCH   4  20
TORSDOF 7
