REMARK  Name = ZINC63941174
REMARK  10 active torsions:
REMARK  status: ('A' for Active; 'I' for Inactive)
REMARK    1  A    between atoms: C_1  and  C_2
REMARK    2  A    between atoms: C_8  and  C_11
REMARK    3  A    between atoms: C_11  and  C_12
REMARK    4  A    between atoms: C_12  and  N_13
REMARK    5  A    between atoms: C_15  and  C_20
REMARK    6  A    between atoms: N_22  and  C_23
REMARK    7  A    between atoms: C_27  and  C_30
REMARK    8  A    between atoms: C_30  and  C_31
REMARK    9  A    between atoms: C_34  and  O_37
REMARK   10  A    between atoms: O_37  and  C_38
REMARK                            x       y       z     vdW  Elec       q    Type
REMARK                         _______ _______ _______ _____ _____    ______ ____
ROOT
ATOM      1  C   UNL     1      -1.510  -3.541   9.136  0.00  0.00    +0.220 C 
ATOM      2  O   UNL     1      -2.226  -4.509   8.994  0.00  0.00    -0.275 OA
ATOM      3  N   UNL     1      -1.294  -3.036  10.367  0.00  0.00    -0.290 N 
ATOM      4  H   UNL     1      -0.722  -2.262  10.480  0.00  0.00    +0.151 HD
ENDROOT
BRANCH   3   5
ATOM      5  C   UNL     1      -1.925  -3.658  11.534  0.00  0.00    +0.216 C 
ATOM      6  N   UNL     1      -1.362  -3.119  12.812  0.00  0.00    -0.227 NA
ATOM      7  N   UNL     1      -2.303  -3.339  13.904  0.00  0.00    -0.241 NA
ATOM      8  C   UNL     1      -3.676  -2.882  13.552  0.00  0.00    +0.134 C 
ATOM      9  S   UNL     1      -3.679  -3.113  11.722  0.00  0.00    -0.101 S 
ATOM     10  H   UNL     1      -1.135  -2.140  12.722  0.00  0.00    +0.143 HD
ATOM     11  H   UNL     1      -2.306  -4.307  14.188  0.00  0.00    +0.142 HD
BRANCH   8  12
ATOM     12  C   UNL     1      -4.736  -3.761  14.218  0.00  0.00    +0.066 C 
BRANCH  12  13
ATOM     13  C   UNL     1      -6.109  -3.268  13.839  0.00  0.00    -0.045 A 
ATOM     14  C   UNL     1      -6.737  -2.312  14.615  0.00  0.00    +0.007 A 
ATOM     15  C   UNL     1      -7.996  -1.859  14.270  0.00  0.00    +0.046 A 
ATOM     16  C   UNL     1      -8.629  -2.363  13.143  0.00  0.00    +0.120 A 
ATOM     17  C   UNL     1      -7.995  -3.321  12.366  0.00  0.00    +0.046 A 
ATOM     18  C   UNL     1      -6.735  -3.768  12.712  0.00  0.00    +0.007 A 
BRANCH  16  19
ATOM     19  O   UNL     1      -9.867  -1.919  12.802  0.00  0.00    -0.495 OA
ATOM     20  C   UNL     1     -10.457  -2.482  11.629  0.00  0.00    +0.277 C 
ENDBRANCH  16  19
ENDBRANCH  12  13
ENDBRANCH   8  12
ENDBRANCH   3   5
BRANCH   1  23
ATOM     21  N   UNL     1      -1.377  -2.600   5.613  0.00  0.00    -0.300 N 
ATOM     22  C   UNL     1      -1.248  -3.644   6.637  0.00  0.00    +0.121 C 
ATOM     23  C   UNL     1      -0.861  -2.901   7.936  0.00  0.00    +0.101 C 
ATOM     24  C   UNL     1      -1.441  -1.492   7.677  0.00  0.00    +0.110 C 
ATOM     25  C   UNL     1      -1.487  -1.381   6.169  0.00  0.00    +0.216 C 
ATOM     26  O   UNL     1      -1.608  -0.345   5.552  0.00  0.00    -0.276 OA
BRANCH  21  27
ATOM     27  C   UNL     1      -1.379  -2.854   4.170  0.00  0.00    +0.112 C 
BRANCH  27  28
ATOM     28  C   UNL     1       0.055  -2.799   3.641  0.00  0.00    +0.052 C 
BRANCH  28  36
ATOM     29  C   UNL     1      -0.018   1.503   0.010  0.00  0.00    +0.044 C 
ATOM     30  C   UNL     1       0.002  -0.004   0.002  0.00  0.00    -0.050 A 
ATOM     31  C   UNL     1       0.005  -0.680  -1.226  0.00  0.00    +0.005 A 
ATOM     32  C   UNL     1       0.023  -2.026  -1.317  0.00  0.00    +0.026 A 
ATOM     33  C   UNL     1       0.039  -2.826  -0.141  0.00  0.00    +0.043 A 
ATOM     34  N   UNL     1       0.057  -4.126   0.030  0.00  0.00    -0.380 N 
ATOM     35  C   UNL     1       0.067  -4.408   1.470  0.00  0.00    +0.144 C 
ATOM     36  C   UNL     1       0.052  -3.060   2.156  0.00  0.00    -0.040 C 
ATOM     37  C   UNL     1       0.036  -2.137   1.168  0.00  0.00    -0.001 A 
ATOM     38  C   UNL     1       0.022  -0.669   1.180  0.00  0.00    +0.013 A 
ATOM     39  H   UNL     1       0.062  -4.790  -0.677  0.00  0.00    +0.160 HD
ENDBRANCH  28  36
ENDBRANCH  27  28
ENDBRANCH  21  27
ENDBRANCH   1  23
TORSDOF 8
