REMARK  Name = ZINC22583041
REMARK  12 active torsions:
REMARK  status: ('A' for Active; 'I' for Inactive)
REMARK    1  A    between atoms: C_1  and  C_2
REMARK    2  A    between atoms: C_2  and  C_3
REMARK    3  A    between atoms: C_2  and  C_4
REMARK    4  A    between atoms: C_4  and  C_6
REMARK    5  A    between atoms: C_4  and  S_12
REMARK    6  A    between atoms: S_12  and  C_13
REMARK    7  A    between atoms: N_26  and  C_27
REMARK    8  A    between atoms: C_27  and  C_28
REMARK    9  A    between atoms: C_28  and  C_29
REMARK   10  A    between atoms: C_29  and  N_30
REMARK   11  A    between atoms: N_30  and  C_31
REMARK   12  A    between atoms: N_30  and  C_32
REMARK                            x       y       z     vdW  Elec       q    Type
REMARK                         _______ _______ _______ _____ _____    ______ ____
ROOT
ATOM      1  C   UNL     1      -5.165   0.737  -0.552  0.00  0.00    +0.173 A 
ATOM      2  N   UNL     1      -4.963  -0.487  -0.108  0.00  0.00    -0.216 NA
ATOM      3  C   UNL     1      -5.971  -1.343   0.010  0.00  0.00    +0.117 A 
ATOM      4  C   UNL     1      -7.289  -0.995  -0.329  0.00  0.00    +0.076 A 
ATOM      5  C   UNL     1      -8.294  -2.045  -0.147  0.00  0.00    -0.023 A 
ATOM      6  C   UNL     1      -7.860  -3.232   0.323  0.00  0.00    -0.004 A 
ATOM      7  S   UNL     1      -6.114  -3.027   0.550  0.00  0.00    -0.073 S 
ATOM      8  C   UNL     1      -8.682  -4.456   0.594  0.00  0.00    +0.043 C 
ATOM      9  C   UNL     1     -10.163  -4.052   0.608  0.00  0.00    +0.005 C 
ATOM     10  C   UNL     1     -10.448  -3.187  -0.624  0.00  0.00    +0.005 C 
ATOM     11  C   UNL     1      -9.769  -1.825  -0.470  0.00  0.00    +0.037 C 
ATOM     12  C   UNL     1      -7.479   0.340  -0.808  0.00  0.00    +0.263 A 
ATOM     13  O   UNL     1      -8.589   0.730  -1.125  0.00  0.00    -0.267 OA
ATOM     14  N   UNL     1      -6.416   1.159  -0.898  0.00  0.00    -0.287 N 
ENDROOT
BRANCH   1  15
ATOM     15  S   UNL     1      -3.803   1.847  -0.694  0.00  0.00    -0.075 S 
BRANCH  15  16
ATOM     16  C   UNL     1      -2.495   0.833   0.038  0.00  0.00    +0.143 C 
BRANCH  16  17
ATOM     17  C   UNL     1      -1.163   1.508  -0.165  0.00  0.00    +0.234 C 
ATOM     18  O   UNL     1      -1.109   2.710  -0.316  0.00  0.00    -0.274 OA
ATOM     19  N   UNL     1      -0.031   0.776  -0.180  0.00  0.00    -0.239 N 
ATOM     20  C   UNL     1       1.159   1.379  -0.367  0.00  0.00    +0.303 C 
ATOM     21  O   UNL     1       1.213   2.584  -0.518  0.00  0.00    -0.253 OA
ATOM     22  N   UNL     1       2.290   0.647  -0.387  0.00  0.00    -0.313 N 
ATOM     23  H   UNL     1      -0.080  -0.314  -0.038  0.00  0.00    +0.159 HD
ATOM     24  H   UNL     1       3.262   1.139  -0.540  0.00  0.00    +0.146 HD
ATOM     25  H   UNL     1       2.242  -0.444  -0.251  0.00  0.00    +0.146 HD
ENDBRANCH  16  17
BRANCH  16  27
ATOM     26  C   UNL     1      -1.732  -0.303   2.129  0.00  0.00    +0.009 C 
ATOM     27  C   UNL     1      -2.758   0.665   1.536  0.00  0.00    +0.005 C 
ATOM     28  C   UNL     1      -2.637   2.023   2.231  0.00  0.00    +0.009 C 
ENDBRANCH  16  27
ENDBRANCH  15  16
ENDBRANCH   1  15
BRANCH  14  29
ATOM     29  C   UNL     1      -6.604   2.529  -1.383  0.00  0.00    +0.125 C 
BRANCH  29  30
ATOM     30  C   UNL     1      -6.445   2.558  -2.904  0.00  0.00    +0.003 C 
BRANCH  30  31
ATOM     31  C   UNL     1      -6.641   3.989  -3.410  0.00  0.00    -0.078 C 
BRANCH  31  32
ATOM     32  N   UNL     1      -6.489   4.017  -4.871  0.00  0.00    +0.376 N 
ATOM     33  C   UNL     1      -7.567   3.263  -5.527  0.00  0.00    -0.097 C 
ATOM     34  C   UNL     1      -6.435   5.398  -5.369  0.00  0.00    -0.097 C 
ATOM     35  H   UNL     1      -5.535   3.529  -5.121  0.00  0.00    -0.083 HD
ENDBRANCH  31  32
ENDBRANCH  30  31
ENDBRANCH  29  30
ENDBRANCH  14  29
TORSDOF 8
