REMARK  Name = ZINC35094535
REMARK  14 active torsions:
REMARK  status: ('A' for Active; 'I' for Inactive)
REMARK    1  A    between atoms: C_1  and  C_2
REMARK    2  A    between atoms: C_2  and  C_3
REMARK    3  A    between atoms: C_3  and  C_5
REMARK    4  A    between atoms: C_3  and  N_24
REMARK    5  A    between atoms: N_15  and  C_16
REMARK    6  A    between atoms: C_21  and  O_22
REMARK    7  A    between atoms: O_22  and  C_23
REMARK    8  A    between atoms: N_24  and  C_25
REMARK    9  A    between atoms: C_25  and  C_26
REMARK   10  A    between atoms: C_26  and  C_27
REMARK   11  A    between atoms: C_26  and  C_28
REMARK   12  A    between atoms: N_31  and  C_32
REMARK   13  A    between atoms: C_37  and  O_38
REMARK   14  A    between atoms: O_38  and  C_39
REMARK                            x       y       z     vdW  Elec       q    Type
REMARK                         _______ _______ _______ _____ _____    ______ ____
ROOT
ATOM      1  C   UNL     1      -1.492  -0.431  -0.081  0.00  0.00    +0.144 C 
ENDROOT
BRANCH   1   2
ATOM      2  C   UNL     1      -1.385  -1.915  -0.320  0.00  0.00    +0.138 A 
ATOM      3  N   UNL     1      -0.791  -2.642   0.578  0.00  0.00    -0.231 NA
ATOM      4  C   UNL     1      -0.657  -3.984   0.431  0.00  0.00    +0.078 A 
ATOM      5  C   UNL     1      -0.018  -4.766   1.397  0.00  0.00    +0.028 A 
ATOM      6  C   UNL     1       0.095  -6.125   1.207  0.00  0.00    +0.002 A 
ATOM      7  C   UNL     1      -0.419  -6.729   0.067  0.00  0.00    +0.001 A 
ATOM      8  C   UNL     1      -1.053  -5.979  -0.899  0.00  0.00    +0.015 A 
ATOM      9  C   UNL     1      -1.178  -4.602  -0.727  0.00  0.00    +0.065 A 
ATOM     10  C   UNL     1      -1.845  -3.752  -1.723  0.00  0.00    +0.266 A 
ATOM     11  O   UNL     1      -2.315  -4.222  -2.743  0.00  0.00    -0.267 OA
ATOM     12  N   UNL     1      -1.920  -2.426  -1.461  0.00  0.00    -0.259 N 
BRANCH  12  13
ATOM     13  C   UNL     1      -2.551  -1.571  -2.376  0.00  0.00    +0.093 A 
ATOM     14  C   UNL     1      -1.839  -1.053  -3.448  0.00  0.00    +0.030 A 
ATOM     15  C   UNL     1      -2.463  -0.211  -4.348  0.00  0.00    +0.002 A 
ATOM     16  C   UNL     1      -3.796   0.118  -4.184  0.00  0.00    +0.004 A 
ATOM     17  C   UNL     1      -4.511  -0.394  -3.118  0.00  0.00    +0.048 A 
ATOM     18  C   UNL     1      -3.895  -1.245  -2.214  0.00  0.00    +0.144 A 
BRANCH  18  19
ATOM     19  O   UNL     1      -4.599  -1.754  -1.168  0.00  0.00    -0.493 OA
ATOM     20  C   UNL     1      -5.973  -1.375  -1.066  0.00  0.00    +0.277 C 
ENDBRANCH  18  19
ENDBRANCH  12  13
ENDBRANCH   1   2
BRANCH   1  21
ATOM     21  N   UNL     1      -2.336  -0.184   1.090  0.00  0.00    -0.275 N 
ATOM     22  C   UNL     1      -3.466   0.541   0.966  0.00  0.00    +0.307 C 
ATOM     23  O   UNL     1      -3.784   0.990  -0.118  0.00  0.00    -0.252 OA
ATOM     24  N   UNL     1      -4.242   0.768   2.044  0.00  0.00    -0.266 N 
ATOM     25  H   UNL     1      -4.031   0.346   2.892  0.00  0.00    +0.156 HD
BRANCH  24  26
ATOM     26  C   UNL     1      -5.356   1.613   1.940  0.00  0.00    +0.077 A 
ATOM     27  C   UNL     1      -5.399   2.588   0.954  0.00  0.00    +0.027 A 
ATOM     28  C   UNL     1      -6.497   3.421   0.854  0.00  0.00    +0.002 A 
ATOM     29  C   UNL     1      -7.555   3.284   1.734  0.00  0.00    +0.004 A 
ATOM     30  C   UNL     1      -7.519   2.315   2.719  0.00  0.00    +0.047 A 
ATOM     31  C   UNL     1      -6.424   1.473   2.823  0.00  0.00    +0.141 A 
BRANCH  31  32
ATOM     32  O   UNL     1      -6.390   0.515   3.787  0.00  0.00    -0.493 OA
ATOM     33  C   UNL     1      -7.520   0.429   4.657  0.00  0.00    +0.277 C 
ENDBRANCH  31  32
ENDBRANCH  24  26
BRANCH  21  34
ATOM     34  C   UNL     1      -1.953  -0.725   2.397  0.00  0.00    +0.113 C 
BRANCH  34  35
ATOM     35  C   UNL     1      -1.077   0.291   3.132  0.00  0.00    +0.000 C 
ATOM     36  C   UNL     1      -1.899   1.545   3.439  0.00  0.00    +0.009 C 
ATOM     37  C   UNL     1      -0.575  -0.322   4.441  0.00  0.00    +0.009 C 
ENDBRANCH  34  35
ENDBRANCH  21  34
ENDBRANCH   1  21
BRANCH   1  39
ATOM     38  C   UNL     1      -0.190   1.671   0.277  0.00  0.00    +0.006 C 
ATOM     39  C   UNL     1      -0.097   0.148   0.164  0.00  0.00    +0.027 C 
ENDBRANCH   1  39
TORSDOF 9
