REMARK  Name = ZINC32795544
REMARK  1 active torsions:
REMARK  status: ('A' for Active; 'I' for Inactive)
REMARK    1  A    between atoms: C_9  and  C_11
REMARK                            x       y       z     vdW  Elec       q    Type
REMARK                         _______ _______ _______ _____ _____    ______ ____
ROOT
ATOM      1  C   UNL     1       2.406   0.021  -0.021  0.00  0.00    +0.001 A 
ATOM      2  C   UNL     1       1.221  -0.684  -0.013  0.00  0.00    +0.010 A 
ATOM      3  C   UNL     1       0.002  -0.004   0.002  0.00  0.00    +0.004 A 
ATOM      4  C   UNL     1      -1.397  -0.420   0.014  0.00  0.00    -0.019 A 
ATOM      5  C   UNL     1      -2.147   0.698   0.027  0.00  0.00    +0.020 A 
ATOM      6  N   UNL     1      -1.332   1.795   0.030  0.00  0.00    -0.357 N 
ATOM      7  H   UNL     1      -1.769   2.804   0.047  0.00  0.00    +0.166 HD
ATOM      8  C   UNL     1      -0.017   1.404   0.010  0.00  0.00    +0.059 A 
ATOM      9  C   UNL     1       1.198   2.107   0.002  0.00  0.00    +0.061 A 
ATOM     10  C   UNL     1       2.402   1.404  -0.013  0.00  0.00    +0.015 A 
ATOM     11  C   UNL     1      -3.659   0.692   0.041  0.00  0.00    +0.053 C 
ATOM     12  C   UNL     1      -4.144  -0.699  -0.382  0.00  0.00    +0.006 C 
ATOM     13  C   UNL     1      -3.419  -1.767   0.442  0.00  0.00    +0.005 C 
ATOM     14  C   UNL     1      -1.947  -1.823   0.015  0.00  0.00    +0.037 C 
ENDROOT
BRANCH   9  15
ATOM     15  C   UNL     1       1.202   3.582   0.010  0.00  0.00    +0.252 C 
ATOM     16  O   UNL     1       0.150   4.192   0.023  0.00  0.00    -0.270 OA
ATOM     17  N   UNL     1       2.370   4.253   0.002  0.00  0.00    -0.261 N 
ATOM     18  C   UNL     1       2.373   5.634   0.009  0.00  0.00    +0.156 C 
ATOM     19  N   UNL     1       3.408   6.412   0.004  0.00  0.00    -0.262 NA
ATOM     20  C   UNL     1       3.287   7.851   0.012  0.00  0.00    +0.155 C 
ATOM     21  C   UNL     1       1.817   8.327   0.029  0.00  0.00    +0.100 C 
ATOM     22  S   UNL     1       0.952   6.710   0.021  0.00  0.00    -0.089 S 
ATOM     23  H   UNL     1       3.321   3.701  -0.010  0.00  0.00    +0.157 HD
ENDBRANCH   9  15
TORSDOF 1
