REMARK  Name = ZINC01103148
REMARK  4 active torsions:
REMARK  status: ('A' for Active; 'I' for Inactive)
REMARK    1  A    between atoms: C_1  and  C_2
REMARK    2  A    between atoms: C_3  and  C_18
REMARK    3  A    between atoms: C_10  and  C_15
REMARK    4  A    between atoms: N_20  and  C_21
REMARK                            x       y       z     vdW  Elec       q    Type
REMARK                         _______ _______ _______ _____ _____    ______ ____
ROOT
ATOM      1  C   UNL     1      -1.127   0.379  -1.177  0.00  0.00    +0.061 C 
ATOM      2  C   UNL     1      -0.746  -0.815  -0.341  0.00  0.00    +0.014 C 
ATOM      3  C   UNL     1      -1.688  -1.434   0.391  0.00  0.00    +0.039 C 
ATOM      4  C   UNL     1      -1.345  -2.656   1.203  0.00  0.00    +0.019 C 
ATOM      5  C   UNL     1      -1.473  -3.904   0.326  0.00  0.00    +0.013 C 
ATOM      6  C   UNL     1      -1.121  -5.144   1.151  0.00  0.00    +0.001 C 
ATOM      7  C   UNL     1      -2.080  -5.255   2.338  0.00  0.00    +0.000 C 
ATOM      8  C   UNL     1      -1.954  -4.007   3.214  0.00  0.00    +0.001 C 
ATOM      9  C   UNL     1      -2.305  -2.767   2.389  0.00  0.00    +0.013 C 
ATOM     10  C   UNL     1       0.091  -2.540   1.718  0.00  0.00    +0.137 C 
ATOM     11  C   UNL     1       0.994  -2.114   0.589  0.00  0.00    +0.066 C 
ATOM     12  S   UNL     1       2.481  -2.694   0.495  0.00  0.00    -0.039 S 
ATOM     13  N   UNL     1       0.551  -1.252  -0.345  0.00  0.00    -0.315 N 
ATOM     14  H   UNL     1       1.160  -0.932  -1.029  0.00  0.00    +0.152 HD
ENDROOT
BRANCH  10  15
ATOM     15  C   UNL     1       0.148  -1.516   2.822  0.00  0.00    +0.221 C 
ATOM     16  O   UNL     1      -0.087  -0.351   2.581  0.00  0.00    -0.275 OA
ATOM     17  N   UNL     1       0.461  -1.895   4.077  0.00  0.00    -0.329 N 
ATOM     18  H   UNL     1       0.649  -2.826   4.270  0.00  0.00    +0.145 HD
ATOM     19  H   UNL     1       0.498  -1.235   4.788  0.00  0.00    +0.145 HD
ENDBRANCH  10  15
BRANCH   3  20
ATOM     20  C   UNL     1      -3.013  -0.934   0.399  0.00  0.00    +0.246 C 
ATOM     21  O   UNL     1      -3.849  -1.412  -0.347  0.00  0.00    -0.270 OA
ATOM     22  N   UNL     1      -3.349   0.071   1.232  0.00  0.00    -0.282 N 
ATOM     23  H   UNL     1      -2.666   0.510   1.763  0.00  0.00    +0.155 HD
BRANCH  22  24
ATOM     24  C   UNL     1      -4.682   0.482   1.330  0.00  0.00    +0.034 A 
ATOM     25  C   UNL     1      -5.481   0.528   0.195  0.00  0.00    +0.023 A 
ATOM     26  C   UNL     1      -6.798   0.934   0.295  0.00  0.00    +0.002 A 
ATOM     27  C   UNL     1      -7.320   1.295   1.524  0.00  0.00    +0.000 A 
ATOM     28  C   UNL     1      -6.526   1.251   2.656  0.00  0.00    +0.002 A 
ATOM     29  C   UNL     1      -5.211   0.840   2.563  0.00  0.00    +0.023 A 
ENDBRANCH  22  24
ENDBRANCH   3  20
TORSDOF 3
