REMARK  Name = ZINC29496551
REMARK  9 active torsions:
REMARK  status: ('A' for Active; 'I' for Inactive)
REMARK    1  A    between atoms: C_1  and  C_2
REMARK    2  A    between atoms: C_2  and  C_3
REMARK    3  A    between atoms: C_2  and  C_4
REMARK    4  A    between atoms: C_4  and  N_5
REMARK    5  A    between atoms: C_6  and  S_8
REMARK    6  A    between atoms: S_8  and  C_9
REMARK    7  A    between atoms: C_9  and  C_10
REMARK    8  A    between atoms: C_14  and  C_23
REMARK    9  A    between atoms: N_25  and  C_26
REMARK                            x       y       z     vdW  Elec       q    Type
REMARK                         _______ _______ _______ _____ _____    ______ ____
ROOT
ATOM      1  C   UNL     1      -2.167   3.759   4.526  0.00  0.00    +0.230 C 
ATOM      2  O   UNL     1      -1.485   3.187   3.702  0.00  0.00    -0.274 OA
ATOM      3  N   UNL     1      -2.212   5.106   4.546  0.00  0.00    -0.264 N 
ATOM      4  C   UNL     1      -2.936   5.828   5.606  0.00  0.00    +0.168 C 
ATOM      5  C   UNL     1      -2.061   7.023   6.027  0.00  0.00    +0.276 C 
ATOM      6  O   UNL     1      -1.825   7.844   4.881  0.00  0.00    -0.476 OA
ATOM      7  C   UNL     1      -1.391   7.236   3.745  0.00  0.00    +0.143 A 
ATOM      8  C   UNL     1      -1.575   5.870   3.553  0.00  0.00    +0.078 A 
ATOM      9  C   UNL     1      -1.133   5.264   2.388  0.00  0.00    +0.027 A 
ATOM     10  C   UNL     1      -0.504   6.020   1.415  0.00  0.00    +0.002 A 
ATOM     11  C   UNL     1      -0.319   7.377   1.604  0.00  0.00    +0.004 A 
ATOM     12  C   UNL     1      -0.759   7.986   2.765  0.00  0.00    +0.047 A 
ENDROOT
BRANCH   5  13
ATOM     13  C   UNL     1      -2.774   7.825   7.085  0.00  0.00    +0.255 C 
ATOM     14  O   UNL     1      -3.135   8.959   6.846  0.00  0.00    -0.272 OA
ATOM     15  N   UNL     1      -3.012   7.284   8.296  0.00  0.00    -0.315 N 
ATOM     16  C   UNL     1      -3.705   8.064   9.324  0.00  0.00    +0.128 C 
ATOM     17  H   UNL     1      -2.685   6.256   8.512  0.00  0.00    +0.148 HD
ENDBRANCH   5  13
BRANCH   1  18
ATOM     18  C   UNL     1      -2.964   2.963   5.527  0.00  0.00    +0.173 C 
BRANCH  18  19
ATOM     19  S   UNL     1      -2.815   1.199   5.152  0.00  0.00    -0.084 S 
BRANCH  19  21
ATOM     20  N   UNL     1      -4.390   1.320   7.299  0.00  0.00    -0.368 N 
ATOM     21  C   UNL     1      -3.814   0.527   6.439  0.00  0.00    +0.126 C 
ATOM     22  N   UNL     1      -3.985  -0.835   6.537  0.00  0.00    -0.339 N 
ATOM     23  H   UNL     1      -3.498  -1.504   5.812  0.00  0.00    +0.144 HD
ATOM     24  H   UNL     1      -4.608  -1.254   7.341  0.00  0.00    +0.144 HD
ATOM     25  H   UNL     1      -4.326   2.411   7.170  0.00  0.00    +0.161 HD
BRANCH  20  26
ATOM     26  C   UNL     1      -5.124   0.759   8.436  0.00  0.00    +0.117 C 
BRANCH  26  28
ATOM     27  C   UNL     1      -4.479   2.659   9.925  0.00  0.00    +0.009 C 
ATOM     28  C   UNL     1      -4.417   1.141   9.738  0.00  0.00    +0.002 C 
ATOM     29  C   UNL     1      -5.110   0.453  10.916  0.00  0.00    +0.009 C 
ENDBRANCH  26  28
ENDBRANCH  20  26
ENDBRANCH  19  21
ENDBRANCH  18  19
ENDBRANCH   1  18
TORSDOF 6
