REMARK  Name = ZINC55165658
REMARK  4 active torsions:
REMARK  status: ('A' for Active; 'I' for Inactive)
REMARK    1  A    between atoms: C_5  and  O_17
REMARK    2  A    between atoms: C_6  and  N_7
REMARK    3  A    between atoms: C_8  and  C_10
REMARK    4  A    between atoms: O_17  and  C_18
REMARK                            x       y       z     vdW  Elec       q    Type
REMARK                         _______ _______ _______ _____ _____    ______ ____
ROOT
ATOM      1  N   UNL     1      -1.200  -0.722   0.010  0.00  0.00    -0.276 N 
ATOM      2  C   UNL     1      -2.262  -0.251   0.693  0.00  0.00    +0.287 C 
ATOM      3  O   UNL     1      -2.207   0.841   1.226  0.00  0.00    -0.266 OA
ATOM      4  H   UNL     1      -1.266  -1.563  -0.469  0.00  0.00    +0.155 HD
ENDROOT
BRANCH   2   5
ATOM      5  C   UNL     1      -3.495  -1.061   0.793  0.00  0.00    +0.238 A 
ATOM      6  N   UNL     1      -4.617  -0.700   1.438  0.00  0.00    -0.190 NA
ATOM      7  C   UNL     1      -5.514  -1.651   1.329  0.00  0.00    +0.209 A 
ATOM      8  N   UNL     1      -4.975  -2.656   0.601  0.00  0.00    -0.246 N 
ATOM      9  H   UNL     1      -5.405  -3.491   0.357  0.00  0.00    +0.192 HD
ATOM     10  N   UNL     1      -3.675  -2.250   0.262  0.00  0.00    -0.146 NA
ATOM     11  N   UNL     1      -6.788  -1.630   1.866  0.00  0.00    -0.328 N 
ATOM     12  H   UNL     1      -7.087  -0.862   2.376  0.00  0.00    +0.145 HD
ATOM     13  H   UNL     1      -7.383  -2.385   1.732  0.00  0.00    +0.145 HD
ENDBRANCH   2   5
BRANCH   1  19
ATOM     14  C   UNL     1      -0.027   1.388  -0.003  0.00  0.00    +0.047 A 
ATOM     15  C   UNL     1       1.159   2.102  -0.019  0.00  0.00    +0.044 A 
ATOM     16  C   UNL     1       2.370   1.435  -0.040  0.00  0.00    +0.039 A 
ATOM     17  C   UNL     1       2.403   0.051  -0.045  0.00  0.00    +0.063 A 
ATOM     18  C   UNL     1       1.219  -0.670  -0.028  0.00  0.00    +0.162 A 
ATOM     19  C   UNL     1      -0.001   0.002  -0.007  0.00  0.00    +0.079 A 
ATOM     20 BR   UNL     1       4.062  -0.856  -0.074  0.00  0.00    -0.046 Br
ATOM     21 CL   UNL     1       1.125   3.837  -0.014  0.00  0.00    -0.083 Cl
BRANCH  18  22
ATOM     22  O   UNL     1       1.250  -2.029  -0.033  0.00  0.00    -0.431 OA
BRANCH  22  23
ATOM     23  C   UNL     1       1.284  -2.682   1.237  0.00  0.00    +0.541 C 
ATOM     24  F   UNL     1       2.429  -2.283   1.935  0.00  0.00    -0.166 F 
ATOM     25  F   UNL     1       0.145  -2.334   1.972  0.00  0.00    -0.166 F 
ENDBRANCH  22  23
ENDBRANCH  18  22
ENDBRANCH   1  19
TORSDOF 4
