REMARK  Name = ZINC04029782
REMARK  6 active torsions:
REMARK  status: ('A' for Active; 'I' for Inactive)
REMARK    1  A    between atoms: C_1  and  C_2
REMARK    2  A    between atoms: C_6  and  N_8
REMARK    3  A    between atoms: N_11  and  CA_12
REMARK    4  A    between atoms: CA_12  and  CB_14
REMARK    5  A    between atoms: CA_12  and  C_25
REMARK    6  A    between atoms: CB_14  and  CG_15
REMARK                            x       y       z     vdW  Elec       q    Type
REMARK                         _______ _______ _______ _____ _____    ______ ____
ROOT
ATOM      1  CA  TRP A   1       2.316   8.023   0.333  0.00  0.00    +0.192 C 
ENDROOT
BRANCH   1   5
ATOM      2  N   UNK A   0      -0.069   5.242   0.029  0.00  0.00    -0.269 N 
ATOM      3  C   UNK A   0       1.085   5.931   0.123  0.00  0.00    +0.305 C 
ATOM      4  O   UNK A   0       2.148   5.341   0.110  0.00  0.00    -0.252 OA
ATOM      5  N   TRP A   1       1.061   7.274   0.231  0.00  0.00    -0.286 N 
ATOM      6  H   UNK A   0      -0.913   5.716  -0.038  0.00  0.00    +0.156 HD
ATOM      7  H   TRP A   1       0.213   7.745   0.241  0.00  0.00    +0.151 HD
BRANCH   2  13
ATOM      8  C   UNK A   0      -1.980   0.984  -1.518  0.00  0.00    +0.044 C 
ATOM      9  C   UNK A   0      -0.965   1.753  -0.712  0.00  0.00    -0.049 A 
ATOM     10  C   UNK A   0      -0.014   1.076   0.028  0.00  0.00    +0.003 A 
ATOM     11  C   UNK A   0       0.923   1.778   0.764  0.00  0.00    +0.002 A 
ATOM     12  C   UNK A   0       0.907   3.159   0.767  0.00  0.00    +0.023 A 
ATOM     13  C   UNK A   0      -0.051   3.842   0.029  0.00  0.00    +0.035 A 
ATOM     14  C   UNK A   0      -0.990   3.134  -0.710  0.00  0.00    +0.026 A 
ENDBRANCH   2  13
ENDBRANCH   1   5
BRANCH   1  15
ATOM     15  C   TRP A   1       2.764   8.060   1.772  0.00  0.00    +0.376 C 
ATOM     16  O   TRP A   1       2.102   7.516   2.624  0.00  0.00    -0.244 OA
ATOM     17  OXT TRP A   1       3.897   8.697   2.106  0.00  0.00    -0.244 OA
ENDBRANCH   1  15
BRANCH   1  18
ATOM     18  CB  TRP A   1       2.100   9.452  -0.170  0.00  0.00    +0.071 C 
BRANCH  18  19
ATOM     19  CG  TRP A   1       1.772   9.422  -1.641  0.00  0.00    -0.020 A 
ATOM     20  CD1 TRP A   1       2.636   9.582  -2.655  0.00  0.00    +0.087 A 
ATOM     21  NE1 TRP A   1       1.976   9.490  -3.850  0.00  0.00    -0.360 N 
ATOM     22  HE1 TRP A   1       2.390   9.570  -4.723  0.00  0.00    +0.165 HD
ATOM     23  CE2 TRP A   1       0.635   9.272  -3.628  0.00  0.00    +0.047 A 
ATOM     24  CD2 TRP A   1       0.448   9.220  -2.234  0.00  0.00    +0.003 A 
ATOM     25  CE3 TRP A   1      -0.828   9.007  -1.710  0.00  0.00    +0.010 A 
ATOM     26  CZ3 TRP A   1      -1.891   8.850  -2.555  0.00  0.00    +0.001 A 
ATOM     27  CH2 TRP A   1      -1.712   8.900  -3.930  0.00  0.00    +0.002 A 
ATOM     28  CZ2 TRP A   1      -0.461   9.110  -4.469  0.00  0.00    +0.026 A 
ENDBRANCH  18  19
ENDBRANCH   1  18
TORSDOF 5
