REMARK  Name = ZINC20592279
REMARK  7 active torsions:
REMARK  status: ('A' for Active; 'I' for Inactive)
REMARK    1  A    between atoms: C_1  and  S_2
REMARK    2  A    between atoms: S_2  and  C_3
REMARK    3  A    between atoms: C_3  and  C_4
REMARK    4  A    between atoms: C_4  and  C_5
REMARK    5  A    between atoms: C_5  and  C_7
REMARK    6  A    between atoms: C_5  and  N_24
REMARK    7  A    between atoms: C_25  and  C_27
REMARK                            x       y       z     vdW  Elec       q    Type
REMARK                         _______ _______ _______ _____ _____    ______ ____
ROOT
ATOM      1  C   UNL     1       1.983  -3.777  -2.945  0.00  0.00    +0.236 C 
ATOM      2  O   UNL     1       1.606  -4.478  -3.861  0.00  0.00    -0.274 OA
ATOM      3  N   UNL     1       2.653  -4.323  -1.911  0.00  0.00    -0.300 N 
ATOM      4  C   UNL     1       3.012  -3.512  -0.740  0.00  0.00    +0.110 C 
ATOM      5  C   UNL     1       4.519  -3.642  -0.494  0.00  0.00    +0.047 C 
ATOM      6  C   UNL     1       4.886  -5.122  -0.372  0.00  0.00    +0.064 C 
ATOM      7  C   UNL     1       4.542  -5.849  -1.673  0.00  0.00    +0.047 C 
ATOM      8  C   UNL     1       3.031  -5.743  -1.930  0.00  0.00    +0.110 C 
ATOM      9  C   UNL     1       6.357  -5.259  -0.085  0.00  0.00    +0.057 A 
ATOM     10  C   UNL     1       6.858  -5.548   1.137  0.00  0.00    +0.039 A 
ATOM     11  N   UNL     1       8.187  -5.596   1.038  0.00  0.00    -0.349 N 
ATOM     12  C   UNL     1       8.533  -5.347  -0.199  0.00  0.00    +0.171 A 
ATOM     13  N   UNL     1       7.414  -5.130  -0.929  0.00  0.00    -0.348 N 
ATOM     14  H   UNL     1       7.375  -4.923  -1.876  0.00  0.00    +0.166 HD
ATOM     15  C   UNL     1       5.990  -5.762   2.353  0.00  0.00    +0.070 C 
ATOM     16  C   UNL     1       4.593  -5.208   2.038  0.00  0.00    +0.088 C 
ATOM     17  N   UNL     1       4.135  -5.724   0.741  0.00  0.00    -0.305 NA
ATOM     18  H   UNL     1       3.143  -5.584   0.626  0.00  0.00    +0.123 HD
ATOM     19  H   UNL     1       8.799  -5.786   1.766  0.00  0.00    +0.166 HD
ENDROOT
BRANCH   1  20
ATOM     20  C   UNL     1       1.703  -2.296  -2.964  0.00  0.00    +0.160 C 
BRANCH  20  21
ATOM     21  N   UNL     1       1.494  -1.857  -4.346  0.00  0.00    -0.297 N 
ATOM     22  C   UNL     1       1.726  -0.574  -4.687  0.00  0.00    +0.280 C 
ATOM     23  O   UNL     1       2.109   0.220  -3.848  0.00  0.00    -0.267 OA
ATOM     24  H   UNL     1       1.189  -2.489  -5.015  0.00  0.00    +0.150 HD
BRANCH  22  25
ATOM     25  C   UNL     1       1.517  -0.134  -6.070  0.00  0.00    +0.191 A 
ATOM     26  C   UNL     1       1.718   1.129  -6.549  0.00  0.00    +0.056 A 
ATOM     27  C   UNL     1       1.397   1.099  -7.914  0.00  0.00    +0.058 A 
ATOM     28  C   UNL     1       1.018  -0.167  -8.206  0.00  0.00    +0.171 A 
ATOM     29  O   UNL     1       1.097  -0.907  -7.093  0.00  0.00    -0.444 OA
ATOM     30 BR   UNL     1       0.474  -0.789  -9.907  0.00  0.00    -0.008 Br
ENDBRANCH  22  25
ENDBRANCH  20  21
BRANCH  20  31
ATOM     31  C   UNL     1       0.448  -2.004  -2.141  0.00  0.00    +0.042 C 
BRANCH  31  32
ATOM     32  C   UNL     1       0.243  -0.491  -2.042  0.00  0.00    +0.071 C 
BRANCH  32  34
ATOM     33  C   UNL     1      -1.345   1.667  -1.044  0.00  0.00    +0.084 C 
ATOM     34  S   UNL     1      -1.246  -0.145  -1.065  0.00  0.00    -0.164 S 
ENDBRANCH  32  34
ENDBRANCH  31  32
ENDBRANCH  20  31
ENDBRANCH   1  20
TORSDOF 6
