REMARK  Name = ZINC40338438
REMARK  4 active torsions:
REMARK  status: ('A' for Active; 'I' for Inactive)
REMARK    1  A    between atoms: C_4  and  C_7
REMARK    2  A    between atoms: C_5  and  N_6
REMARK    3  A    between atoms: N_12  and  S_15
REMARK    4  A    between atoms: S_15  and  N_18
REMARK                            x       y       z     vdW  Elec       q    Type
REMARK                         _______ _______ _______ _____ _____    ______ ____
ROOT
ATOM      1  C   UNL     1       1.623  -1.955  -0.024  0.00  0.00    +0.255 C 
ATOM      2  O   UNL     1       0.760  -2.808   0.083  0.00  0.00    -0.269 OA
ATOM      3  N   UNL     1       2.917  -2.317  -0.140  0.00  0.00    -0.295 N 
ATOM      4  C   UNL     1       3.980  -1.302  -0.140  0.00  0.00    +0.125 C 
ATOM      5  C   UNL     1       4.986  -1.647   0.965  0.00  0.00    +0.129 C 
ATOM      6  N   UNL     1       5.358  -3.063   0.837  0.00  0.00    -0.164 NA
ATOM      7  C   UNL     1       4.295  -4.077   0.836  0.00  0.00    +0.129 C 
ATOM      8  C   UNL     1       3.289  -3.733  -0.263  0.00  0.00    +0.125 C 
ENDROOT
BRANCH   1  12
ATOM      9  C   UNL     1       0.198   1.433   0.507  0.00  0.00    +0.031 A 
ATOM     10  C   UNL     1       0.994   2.009  -0.423  0.00  0.00    +0.048 A 
ATOM     11  S   UNL     1       1.927   0.744  -1.016  0.00  0.00    -0.090 S 
ATOM     12  C   UNL     1       1.269  -0.585  -0.027  0.00  0.00    +0.095 A 
ATOM     13  C   UNL     1       0.312   0.077   0.743  0.00  0.00    +0.044 A 
BRANCH  13  14
ATOM     14  N   UNL     1      -0.473  -0.584   1.684  0.00  0.00    -0.357 N 
ATOM     15  H   UNL     1      -1.128  -0.090   2.201  0.00  0.00    +0.142 HD
ATOM     16  H   UNL     1      -0.364  -1.538   1.823  0.00  0.00    +0.142 HD
ENDBRANCH  13  14
ENDBRANCH   1  12
BRANCH   6  17
ATOM     17  S   UNL     1       6.947  -3.507   0.694  0.00  0.00    +0.095 S 
ATOM     18  O   UNL     1       6.959  -4.772   0.048  0.00  0.00    -0.141 OA
ATOM     19  O   UNL     1       7.639  -2.380   0.174  0.00  0.00    -0.141 OA
BRANCH  17  20
ATOM     20  N   UNL     1       7.526  -3.752   2.226  0.00  0.00    -0.193 NA
ATOM     21  H   UNL     1       6.943  -3.627   2.991  0.00  0.00    +0.145 HD
ATOM     22  H   UNL     1       8.448  -4.021   2.359  0.00  0.00    +0.145 HD
ENDBRANCH  17  20
ENDBRANCH   6  17
TORSDOF 4
