REMARK  Name = ZINC39742936
REMARK  14 active torsions:
REMARK  status: ('A' for Active; 'I' for Inactive)
REMARK    1  A    between atoms: C_1  and  C_2
REMARK    2  A    between atoms: C_2  and  C_3
REMARK    3  A    between atoms: C_2  and  C_4
REMARK    4  A    between atoms: C_4  and  C_6
REMARK    5  A    between atoms: C_4  and  N_28
REMARK    6  A    between atoms: C_9  and  S_14
REMARK    7  A    between atoms: N_10  and  C_11
REMARK    8  A    between atoms: C_11  and  C_12
REMARK    9  A    between atoms: S_14  and  C_15
REMARK   10  A    between atoms: C_15  and  C_16
REMARK   11  A    between atoms: C_16  and  C_18
REMARK   12  A    between atoms: C_29  and  C_31
REMARK   13  A    between atoms: C_36  and  O_37
REMARK   14  A    between atoms: O_37  and  C_38
REMARK                            x       y       z     vdW  Elec       q    Type
REMARK                         _______ _______ _______ _____ _____    ______ ____
ROOT
ATOM      1  C   UNL     1      -2.162  -0.034  -1.208  0.00  0.00    +0.155 A 
ATOM      2  N   UNL     1      -2.017  -0.472  -2.427  0.00  0.00    -0.132 NA
ATOM      3  N   UNL     1      -2.792   0.174  -3.223  0.00  0.00    -0.122 NA
ATOM      4  C   UNL     1      -3.480   1.066  -2.549  0.00  0.00    +0.192 A 
ATOM      5  N   UNL     1      -3.103   0.958  -1.241  0.00  0.00    -0.301 N 
ENDROOT
BRANCH   1   6
ATOM      6  C   UNL     1      -1.433  -0.534   0.013  0.00  0.00    +0.144 C 
BRANCH   6   7
ATOM      7  N   UNL     1      -1.413  -1.998   0.005  0.00  0.00    -0.301 N 
ATOM      8  C   UNL     1      -1.292  -2.677   1.163  0.00  0.00    +0.248 C 
ATOM      9  O   UNL     1      -1.198  -2.074   2.214  0.00  0.00    -0.270 OA
ATOM     10  H   UNL     1      -1.488  -2.480  -0.834  0.00  0.00    +0.150 HD
BRANCH   8  11
ATOM     11  C   UNL     1      -1.272  -4.152   1.155  0.00  0.00    +0.078 A 
ATOM     12  C   UNL     1      -1.373  -4.850  -0.052  0.00  0.00    +0.017 A 
ATOM     13  C   UNL     1      -1.353  -6.228  -0.052  0.00  0.00    +0.001 A 
ATOM     14  C   UNL     1      -1.233  -6.926   1.138  0.00  0.00    +0.004 A 
ATOM     15  C   UNL     1      -1.132  -6.249   2.337  0.00  0.00    +0.046 A 
ATOM     16  C   UNL     1      -1.145  -4.862   2.356  0.00  0.00    +0.132 A 
BRANCH  16  17
ATOM     17  O   UNL     1      -1.040  -4.196   3.534  0.00  0.00    -0.494 OA
ATOM     18  C   UNL     1      -0.914  -4.986   4.717  0.00  0.00    +0.277 C 
ENDBRANCH  16  17
ENDBRANCH   8  11
ENDBRANCH   6   7
BRANCH   6  20
ATOM     19  C   UNL     1      -0.019   1.526   0.010  0.00  0.00    +0.009 C 
ATOM     20  C   UNL     1       0.002  -0.004   0.002  0.00  0.00    +0.011 C 
ATOM     21  C   UNL     1       0.742  -0.511   1.242  0.00  0.00    +0.009 C 
ENDBRANCH   6  20
ENDBRANCH   1   6
BRANCH   5  22
ATOM     22  C   UNL     1      -3.601   1.743  -0.109  0.00  0.00    +0.152 C 
BRANCH  22  23
ATOM     23  C   UNL     1      -2.749   2.974   0.062  0.00  0.00    -0.013 C 
ATOM     24  C   UNL     1      -3.306   4.160   0.071  0.00  0.00    +0.005 C 
ENDBRANCH  22  23
ENDBRANCH   5  22
BRANCH   4  25
ATOM     25  S   UNL     1      -4.669   2.188  -3.207  0.00  0.00    -0.078 S 
BRANCH  25  26
ATOM     26  C   UNL     1      -4.698   1.807  -4.980  0.00  0.00    +0.157 C 
BRANCH  26  27
ATOM     27  C   UNL     1      -5.688   2.708  -5.671  0.00  0.00    +0.173 C 
ATOM     28  O   UNL     1      -6.314   3.526  -5.031  0.00  0.00    -0.291 OA
BRANCH  27  29
ATOM     29  C   UNL     1      -5.897   2.595  -7.123  0.00  0.00    +0.019 A 
ATOM     30  C   UNL     1      -5.172   1.638  -7.861  0.00  0.00    +0.012 A 
ATOM     31  C   UNL     1      -5.348   1.516  -9.201  0.00  0.00    +0.009 A 
ATOM     32  C   UNL     1      -6.263   2.349  -9.871  0.00  0.00    -0.018 A 
ATOM     33  C   UNL     1      -6.461   2.240 -11.257  0.00  0.00    +0.008 A 
ATOM     34  C   UNL     1      -7.353   3.059 -11.879  0.00  0.00    +0.001 A 
ATOM     35  C   UNL     1      -8.076   4.010 -11.162  0.00  0.00    +0.001 A 
ATOM     36  C   UNL     1      -7.912   4.146  -9.818  0.00  0.00    +0.008 A 
ATOM     37  C   UNL     1      -6.999   3.317  -9.140  0.00  0.00    -0.017 A 
ATOM     38  C   UNL     1      -6.811   3.427  -7.755  0.00  0.00    +0.020 A 
ENDBRANCH  27  29
ENDBRANCH  26  27
ENDBRANCH  25  26
ENDBRANCH   4  25
TORSDOF 11
