REMARK  Name = ZINC30987202
REMARK  12 active torsions:
REMARK  status: ('A' for Active; 'I' for Inactive)
REMARK    1  A    between atoms: C_1  and  C_2
REMARK    2  A    between atoms: C_2  and  C_3
REMARK    3  A    between atoms: C_2  and  C_4
REMARK    4  A    between atoms: C_4  and  C_5
REMARK    5  A    between atoms: C_5  and  C_7
REMARK    6  A    between atoms: C_5  and  N_15
REMARK    7  A    between atoms: C_10  and  O_13
REMARK    8  A    between atoms: O_13  and  C_14
REMARK    9  A    between atoms: C_16  and  C_18
REMARK   10  A    between atoms: N_21  and  C_24
REMARK   11  A    between atoms: C_24  and  C_25
REMARK   12  A    between atoms: C_27  and  C_30
REMARK                            x       y       z     vdW  Elec       q    Type
REMARK                         _______ _______ _______ _____ _____    ______ ____
ROOT
ATOM      1  C   UNL     1      -5.727   0.768   2.259  0.00  0.00    +0.071 C 
ATOM      2  C   UNL     1      -5.224   1.495   3.509  0.00  0.00    -0.006 C 
ATOM      3  C   UNL     1      -6.421   1.917   4.364  0.00  0.00    -0.077 C 
ATOM      4  N   UNL     1      -7.196   0.730   4.745  0.00  0.00    +0.386 N 
ATOM      5  C   UNL     1      -7.729   0.042   3.562  0.00  0.00    -0.077 C 
ATOM      6  C   UNL     1      -6.571  -0.437   2.684  0.00  0.00    -0.006 C 
ATOM      7  H   UNL     1      -6.514   0.035   5.258  0.00  0.00    -0.081 HD
ENDROOT
BRANCH   1   9
ATOM      8  N   UNL     1      -3.666   1.190   0.958  0.00  0.00    -0.308 N 
ATOM      9  C   UNL     1      -4.551   0.296   1.443  0.00  0.00    +0.216 C 
ATOM     10  O   UNL     1      -4.401  -0.887   1.222  0.00  0.00    -0.276 OA
ATOM     11  H   UNL     1      -3.752   2.252   1.229  0.00  0.00    +0.149 HD
BRANCH   8  12
ATOM     12  C   UNL     1      -2.587   0.745   0.072  0.00  0.00    +0.103 C 
BRANCH  12  13
ATOM     13  C   UNL     1      -1.417   1.686   0.194  0.00  0.00    -0.027 A 
ATOM     14  C   UNL     1      -0.127   1.186   0.202  0.00  0.00    +0.009 A 
ATOM     15  C   UNL     1       0.948   2.047   0.307  0.00  0.00    +0.046 A 
ATOM     16  C   UNL     1       0.733   3.414   0.411  0.00  0.00    +0.120 A 
ATOM     17  C   UNL     1      -0.561   3.912   0.409  0.00  0.00    +0.046 A 
ATOM     18  C   UNL     1      -1.633   3.047   0.303  0.00  0.00    +0.009 A 
BRANCH  16  19
ATOM     19  O   UNL     1       1.789   4.263   0.515  0.00  0.00    -0.495 OA
ATOM     20  C   UNL     1       1.493   5.657   0.618  0.00  0.00    +0.277 C 
ENDBRANCH  16  19
ENDBRANCH  12  13
BRANCH  12  21
ATOM     21  C   UNL     1      -3.087   0.738  -1.375  0.00  0.00    +0.030 C 
BRANCH  21  23
ATOM     22  C   UNL     1      -1.808  -1.335  -1.933  0.00  0.00    +0.007 C 
ATOM     23  C   UNL     1      -2.010   0.141  -2.283  0.00  0.00    -0.015 C 
ATOM     24  C   UNL     1      -2.450   0.263  -3.743  0.00  0.00    +0.007 C 
ENDBRANCH  21  23
ENDBRANCH  12  21
ENDBRANCH   8  12
ENDBRANCH   1   9
BRANCH   4  25
ATOM     25  C   UNL     1      -8.273   1.081   5.680  0.00  0.00    +0.022 C 
BRANCH  25  26
ATOM     26  C   UNL     1      -7.675   1.558   6.978  0.00  0.00    +0.211 A 
ATOM     27  N   UNL     1      -7.361   2.793   7.283  0.00  0.00    -0.193 NA
ATOM     28  C   UNL     1      -6.863   2.741   8.539  0.00  0.00    +0.202 A 
ATOM     29  N   UNL     1      -6.903   1.491   8.919  0.00  0.00    -0.056 NA
ATOM     30  O   UNL     1      -7.371   0.802   8.038  0.00  0.00    -0.340 OA
BRANCH  28  31
ATOM     31  C   UNL     1      -6.363   3.889   9.337  0.00  0.00    +0.023 A 
ATOM     32  C   UNL     1      -6.375   5.173   8.797  0.00  0.00    +0.013 A 
ATOM     33  C   UNL     1      -5.915   6.238   9.544  0.00  0.00    +0.021 A 
ATOM     34  C   UNL     1      -5.431   6.030  10.824  0.00  0.00    +0.041 A 
ATOM     35  C   UNL     1      -5.412   4.755  11.364  0.00  0.00    +0.021 A 
ATOM     36  C   UNL     1      -5.875   3.684  10.626  0.00  0.00    +0.013 A 
ATOM     37 CL   UNL     1      -4.846   7.372  11.757  0.00  0.00    -0.084 Cl
ENDBRANCH  28  31
ENDBRANCH  25  26
ENDBRANCH   4  25
TORSDOF 9
