REMARK  Name = ZINC20567678
REMARK  7 active torsions:
REMARK  status: ('A' for Active; 'I' for Inactive)
REMARK    1  A    between atoms: C_1  and  C_2
REMARK    2  A    between atoms: C_2  and  N_3
REMARK    3  A    between atoms: C_16  and  C_18
REMARK    4  A    between atoms: N_22  and  C_25
REMARK    5  A    between atoms: C_26  and  C_33
REMARK    6  A    between atoms: C_28  and  C_32
REMARK    7  A    between atoms: C_30  and  C_31
REMARK                            x       y       z     vdW  Elec       q    Type
REMARK                         _______ _______ _______ _____ _____    ______ ____
ROOT
ATOM      1  C   UNL     1      -0.828  -2.358  -1.499  0.00  0.00    +0.074 A 
ATOM      2  C   UNL     1      -1.440  -3.225  -0.644  0.00  0.00    +0.260 A 
ATOM      3  N   UNL     1      -2.744  -3.587  -0.868  0.00  0.00    -0.274 N 
ATOM      4  C   UNL     1      -3.417  -3.092  -1.923  0.00  0.00    +0.337 A 
ATOM      5  N   UNL     1      -2.830  -2.235  -2.779  0.00  0.00    -0.228 N 
ATOM      6  C   UNL     1      -1.553  -1.849  -2.591  0.00  0.00    +0.267 A 
ATOM      7  O   UNL     1      -1.028  -1.068  -3.366  0.00  0.00    -0.267 OA
ATOM      8  O   UNL     1      -4.572  -3.425  -2.107  0.00  0.00    -0.246 OA
ATOM      9  O   UNL     1      -0.768  -3.725   0.415  0.00  0.00    -0.267 OA
ATOM     10  H   UNL     1      -3.184  -4.204  -0.263  0.00  0.00    +0.173 HD
ENDROOT
BRANCH   1  24
ATOM     11  N   UNL     1       0.690  -0.478  -1.207  0.00  0.00    +0.388 N 
ATOM     12  C   UNL     1       2.095  -0.054  -1.165  0.00  0.00    -0.073 C 
ATOM     13  C   UNL     1       2.735  -0.260  -2.545  0.00  0.00    +0.019 C 
ATOM     14  C   UNL     1       2.416  -1.664  -2.995  0.00  0.00    -0.022 A 
ATOM     15  C   UNL     1       3.013  -2.449  -4.052  0.00  0.00    +0.003 A 
ATOM     16  C   UNL     1       4.035  -2.188  -4.970  0.00  0.00    +0.010 A 
ATOM     17  C   UNL     1       4.348  -3.192  -5.852  0.00  0.00    +0.001 A 
ATOM     18  C   UNL     1       3.690  -4.411  -5.845  0.00  0.00    +0.002 A 
ATOM     19  C   UNL     1       2.675  -4.696  -4.948  0.00  0.00    +0.026 A 
ATOM     20  C   UNL     1       2.336  -3.696  -4.040  0.00  0.00    +0.047 A 
ATOM     21  N   UNL     1       1.404  -3.645  -3.042  0.00  0.00    -0.359 N 
ATOM     22  H   UNL     1       0.797  -4.364  -2.807  0.00  0.00    +0.166 HD
ATOM     23  C   UNL     1       1.457  -2.427  -2.421  0.00  0.00    +0.011 A 
ATOM     24  C   UNL     1       0.604  -1.945  -1.273  0.00  0.00    +0.021 C 
ATOM     25  H   UNL     1       0.247  -0.080  -2.021  0.00  0.00    -0.080 HD
BRANCH  11  27
ATOM     26  C   UNL     1      -0.019   1.526   0.010  0.00  0.00    -0.017 C 
ATOM     27  C   UNL     1       0.002  -0.004   0.002  0.00  0.00    -0.081 C 
ENDBRANCH  11  27
ENDBRANCH   1  24
BRANCH   5  28
ATOM     28  C   UNL     1      -3.555  -1.736  -3.869  0.00  0.00    +0.060 A 
ATOM     29  C   UNL     1      -3.546  -2.416  -5.080  0.00  0.00    -0.026 A 
ATOM     30  C   UNL     1      -4.261  -1.922  -6.153  0.00  0.00    +0.008 A 
ATOM     31  C   UNL     1      -4.985  -0.751  -6.023  0.00  0.00    -0.050 A 
ATOM     32  C   UNL     1      -4.996  -0.071  -4.819  0.00  0.00    +0.008 A 
ATOM     33  C   UNL     1      -4.287  -0.564  -3.740  0.00  0.00    -0.026 A 
ATOM     34  C   UNL     1      -4.304   0.174  -2.426  0.00  0.00    +0.046 C 
ATOM     35  C   UNL     1      -5.765  -0.215  -7.196  0.00  0.00    +0.044 C 
ATOM     36  C   UNL     1      -2.756  -3.692  -5.223  0.00  0.00    +0.046 C 
ENDBRANCH   5  28
TORSDOF 3
