REMARK  Name = ZINC19402783
REMARK  5 active torsions:
REMARK  status: ('A' for Active; 'I' for Inactive)
REMARK    1  A    between atoms: C_1  and  C_2
REMARK    2  A    between atoms: C_4  and  N_9
REMARK    3  A    between atoms: C_10  and  C_12
REMARK    4  A    between atoms: C_12  and  C_13
REMARK    5  A    between atoms: C_16  and  N_19
REMARK                            x       y       z     vdW  Elec       q    Type
REMARK                         _______ _______ _______ _____ _____    ______ ____
ROOT
ATOM      1  N   UNL     1       1.132   5.412   1.687  0.00  0.00    -0.285 N 
ATOM      2  C   UNL     1       1.317   4.099   1.442  0.00  0.00    +0.222 C 
ATOM      3  O   UNL     1       1.492   3.329   2.363  0.00  0.00    -0.275 OA
ATOM      4  H   UNL     1       1.061   6.122   0.850  0.00  0.00    +0.155 HD
ENDROOT
BRANCH   1   8
ATOM      5  C   UNL     1       1.939   8.942   5.012  0.00  0.00    +0.045 C 
ATOM      6  C   UNL     1       1.414   7.578   4.644  0.00  0.00    -0.035 A 
ATOM      7  C   UNL     1       1.515   7.127   3.343  0.00  0.00    +0.027 A 
ATOM      8  C   UNL     1       1.031   5.870   3.005  0.00  0.00    +0.034 A 
ATOM      9  C   UNL     1       0.442   5.072   3.976  0.00  0.00    +0.024 A 
ATOM     10  C   UNL     1       0.348   5.525   5.277  0.00  0.00    +0.017 A 
ATOM     11  C   UNL     1       0.831   6.778   5.611  0.00  0.00    +0.021 A 
ATOM     12 BR   UNL     1       0.696   7.398   7.393  0.00  0.00    -0.050 Br
ENDBRANCH   1   8
BRANCH   2  13
ATOM     13  C   UNL     1       1.307   3.588   0.025  0.00  0.00    +0.131 C 
BRANCH  13  14
ATOM     14  C   UNL     1       1.534   2.098   0.026  0.00  0.00    -0.039 A 
ATOM     15  C   UNL     1       0.456   1.236   0.100  0.00  0.00    +0.006 A 
ATOM     16  C   UNL     1       0.660  -0.130   0.102  0.00  0.00    +0.023 A 
ATOM     17  C   UNL     1       1.951  -0.637   0.028  0.00  0.00    +0.025 A 
ATOM     18  C   UNL     1       3.033   0.232  -0.046  0.00  0.00    +0.023 A 
ATOM     19  C   UNL     1       2.821   1.596  -0.047  0.00  0.00    +0.006 A 
BRANCH  17  20
ATOM     20  N   UNL     1       2.162  -2.018   0.030  0.00  0.00    -0.358 N 
ATOM     21  H   UNL     1       3.185  -2.418  -0.028  0.00  0.00    +0.142 HD
ATOM     22  H   UNL     1       1.305  -2.705   0.089  0.00  0.00    +0.142 HD
ENDBRANCH  17  20
ENDBRANCH  13  14
ENDBRANCH   2  13
TORSDOF 4
