REMARK  Name = ZINC06408529
REMARK  13 active torsions:
REMARK  status: ('A' for Active; 'I' for Inactive)
REMARK    1  A    between atoms: C_1  and  C_2
REMARK    2  A    between atoms: C_9  and  C_14
REMARK    3  A    between atoms: C_14  and  C_16
REMARK    4  A    between atoms: C_14  and  N_69
REMARK    5  A    between atoms: N_20  and  C_21
REMARK    6  A    between atoms: C_21  and  C_22
REMARK    7  A    between atoms: C_21  and  C_23
REMARK    8  A    between atoms: C_21  and  C_24
REMARK    9  A    between atoms: C_25  and  C_26
REMARK   10  A    between atoms: C_25  and  N_69
REMARK   11  A    between atoms: C_26  and  C_27
REMARK   12  A    between atoms: C_33  and  C_34
REMARK   13  A    between atoms: C_33  and  N_69
REMARK                            x       y       z     vdW  Elec       q    Type
REMARK                         _______ _______ _______ _____ _____    ______ ____
ROOT
ATOM      1  C   UNL     1      -0.222   1.211  -0.569  0.00  0.00    +0.039 C 
ENDROOT
BRANCH   1  10
ATOM      2  C   UNL     1      -4.112   7.257   1.415  0.00  0.00    +0.044 C 
ATOM      3  C   UNL     1      -2.803   6.586   1.085  0.00  0.00    -0.050 A 
ATOM      4  C   UNL     1      -1.626   7.320   1.119  0.00  0.00    +0.005 A 
ATOM      5  C   UNL     1      -0.418   6.727   0.822  0.00  0.00    +0.026 A 
ATOM      6  C   UNL     1      -0.376   5.378   0.483  0.00  0.00    +0.049 A 
ATOM      7  C   UNL     1      -1.572   4.637   0.450  0.00  0.00    -0.001 A 
ATOM      8  C   UNL     1      -2.787   5.260   0.756  0.00  0.00    +0.013 A 
ATOM      9  C   UNL     1      -1.519   3.219   0.087  0.00  0.00    +0.017 A 
ATOM     10  C   UNL     1      -0.313   2.668  -0.196  0.00  0.00    +0.011 A 
ATOM     11  C   UNL     1       0.858   3.456  -0.148  0.00  0.00    +0.251 A 
ATOM     12  O   UNL     1       1.931   2.942  -0.410  0.00  0.00    -0.268 OA
ATOM     13  N   UNL     1       0.818   4.759   0.179  0.00  0.00    -0.322 N 
ATOM     14  H   UNL     1       1.641   5.272   0.202  0.00  0.00    +0.169 HD
ENDBRANCH   1  10
BRANCH   1  15
ATOM     15  C   UNL     1       0.247   1.085  -1.995  0.00  0.00    +0.143 A 
ATOM     16  N   UNL     1       1.460   1.302  -2.442  0.00  0.00    -0.115 NA
ATOM     17  N   UNL     1       1.460   1.088  -3.713  0.00  0.00    -0.023 NA
ATOM     18  N   UNL     1       0.276   0.748  -4.089  0.00  0.00    -0.043 NA
ATOM     19  N   UNL     1      -0.500   0.736  -3.059  0.00  0.00    -0.225 N 
BRANCH  19  20
ATOM     20  C   UNL     1      -1.927   0.403  -3.048  0.00  0.00    +0.059 C 
ATOM     21  C   UNL     1      -2.717   1.564  -2.443  0.00  0.00    +0.036 C 
ATOM     22  C   UNL     1      -2.403   0.153  -4.481  0.00  0.00    +0.036 C 
ATOM     23  C   UNL     1      -2.150  -0.858  -2.210  0.00  0.00    +0.036 C 
ENDBRANCH  19  20
ENDBRANCH   1  15
BRANCH   1  24
ATOM     24  N   UNL     1       0.759   0.547   0.316  0.00  0.00    +0.392 N 
ATOM     25  H   UNL     1       1.692   0.932   0.128  0.00  0.00    -0.080 HD
BRANCH  24  26
ATOM     26  C   UNL     1       0.776  -0.907   0.050  0.00  0.00    -0.072 C 
BRANCH  26  27
ATOM     27  C   UNL     1       1.643  -1.168  -1.183  0.00  0.00    +0.016 C 
BRANCH  27  28
ATOM     28  C   UNL     1       1.827  -2.653  -1.362  0.00  0.00    -0.049 A 
ATOM     29  C   UNL     1       2.898  -3.293  -0.766  0.00  0.00    +0.003 A 
ATOM     30  C   UNL     1       3.064  -4.656  -0.926  0.00  0.00    +0.000 A 
ATOM     31  C   UNL     1       2.166  -5.377  -1.691  0.00  0.00    +0.000 A 
ATOM     32  C   UNL     1       1.099  -4.736  -2.291  0.00  0.00    +0.000 A 
ATOM     33  C   UNL     1       0.929  -3.374  -2.127  0.00  0.00    +0.003 A 
ENDBRANCH  27  28
ENDBRANCH  26  27
ENDBRANCH  24  26
BRANCH  24  34
ATOM     34  C   UNL     1       0.413   0.798   1.731  0.00  0.00    -0.034 C 
BRANCH  34  35
ATOM     35  C   UNL     1       1.599   0.441   2.590  0.00  0.00    -0.027 A 
ATOM     36  C   UNL     1       2.601   1.239   3.035  0.00  0.00    +0.009 A 
ATOM     37  C   UNL     1       3.596   0.689   3.821  0.00  0.00    +0.008 A 
ATOM     38  C   UNL     1       3.542  -0.632   4.122  0.00  0.00    +0.045 A 
ATOM     39  S   UNL     1       2.046  -1.139   3.290  0.00  0.00    -0.103 S 
ENDBRANCH  34  35
ENDBRANCH  24  34
ENDBRANCH   1  24
TORSDOF 9
