REMARK  Name = ZINC08396641
REMARK  13 active torsions:
REMARK  status: ('A' for Active; 'I' for Inactive)
REMARK    1  A    between atoms: C_1  and  C_2
REMARK    2  A    between atoms: C_5  and  N_9
REMARK    3  A    between atoms: C_6  and  C_8
REMARK    4  A    between atoms: C_10  and  C_12
REMARK    5  A    between atoms: C_16  and  N_17
REMARK    6  A    between atoms: C_18  and  C_20
REMARK    7  A    between atoms: C_20  and  N_69
REMARK    8  A    between atoms: C_21  and  C_22
REMARK    9  A    between atoms: C_21  and  N_69
REMARK   10  A    between atoms: C_28  and  C_32
REMARK   11  A    between atoms: C_32  and  C_33
REMARK   12  A    between atoms: C_32  and  C_34
REMARK   13  A    between atoms: C_32  and  C_35
REMARK                            x       y       z     vdW  Elec       q    Type
REMARK                         _______ _______ _______ _____ _____    ______ ____
ROOT
ATOM      1  C   UNL     1      -1.641   3.871   5.035  0.00  0.00    +0.069 A 
ATOM      2  C   UNL     1      -1.263   3.365   3.726  0.00  0.00    -0.023 A 
ATOM      3  C   UNL     1      -0.515   2.240   3.738  0.00  0.00    -0.004 A 
ATOM      4  S   UNL     1      -0.312   1.851   5.453  0.00  0.00    -0.077 S 
ATOM      5  C   UNL     1      -1.206   3.163   6.146  0.00  0.00    +0.084 A 
ATOM      6  C   UNL     1       0.016   1.496   2.552  0.00  0.00    +0.046 C 
ATOM      7  C   UNL     1      -0.725   1.988   1.300  0.00  0.00    -0.000 C 
ATOM      8  C   UNL     1      -0.741   3.520   1.303  0.00  0.00    +0.009 C 
ATOM      9  C   UNL     1      -1.660   4.029   2.413  0.00  0.00    +0.037 C 
ENDROOT
BRANCH   1  11
ATOM     10  N   UNL     1      -3.796   4.997   5.209  0.00  0.00    -0.281 N 
ATOM     11  C   UNL     1      -2.451   5.084   5.176  0.00  0.00    +0.251 C 
ATOM     12  O   UNL     1      -1.910   6.171   5.263  0.00  0.00    -0.270 OA
ATOM     13  H   UNL     1      -4.230   4.142   5.059  0.00  0.00    +0.155 HD
BRANCH  10  18
ATOM     14  C   UNL     1      -6.916   9.624   6.223  0.00  0.00    +0.044 C 
ATOM     15  C   UNL     1      -6.087   8.395   5.953  0.00  0.00    -0.050 A 
ATOM     16  C   UNL     1      -4.782   8.330   6.405  0.00  0.00    +0.005 A 
ATOM     17  C   UNL     1      -4.020   7.205   6.160  0.00  0.00    +0.024 A 
ATOM     18  C   UNL     1      -4.565   6.138   5.459  0.00  0.00    +0.037 A 
ATOM     19  C   UNL     1      -5.875   6.208   5.001  0.00  0.00    -0.029 A 
ATOM     20  C   UNL     1      -6.633   7.334   5.254  0.00  0.00    +0.008 A 
ATOM     21  C   UNL     1      -6.469   5.055   4.234  0.00  0.00    +0.045 C 
ENDBRANCH  10  18
ENDBRANCH   1  11
BRANCH   5  22
ATOM     22  N   UNL     1      -1.433   3.438   7.486  0.00  0.00    -0.281 N 
ATOM     23  C   UNL     1      -0.925   2.628   8.436  0.00  0.00    +0.201 C 
ATOM     24  O   UNL     1      -0.270   1.657   8.118  0.00  0.00    -0.278 OA
ATOM     25  H   UNL     1      -1.956   4.214   7.740  0.00  0.00    +0.155 HD
BRANCH  23  26
ATOM     26  C   UNL     1      -1.171   2.927   9.892  0.00  0.00    +0.016 C 
BRANCH  26  27
ATOM     27  N   UNL     1      -0.513   1.896  10.716  0.00  0.00    +0.389 N 
ATOM     28  H   UNL     1       0.496   1.902  10.524  0.00  0.00    -0.085 HD
ATOM     29  H   UNL     1      -0.900   0.975  10.479  0.00  0.00    -0.085 HD
BRANCH  27  30
ATOM     30  C   UNL     1      -0.737   2.164  12.149  0.00  0.00    -0.006 C 
BRANCH  30  31
ATOM     31  C   UNL     1      -0.055   1.096  12.964  0.00  0.00    +0.088 A 
ATOM     32  C   UNL     1       1.210   1.142  13.419  0.00  0.00    +0.042 A 
ATOM     33  C   UNL     1       1.434  -0.059  14.130  0.00  0.00    +0.041 A 
ATOM     34  C   UNL     1       0.292  -0.768  14.067  0.00  0.00    +0.195 A 
ATOM     35  O   UNL     1      -0.608  -0.060  13.364  0.00  0.00    -0.470 OA
ENDBRANCH  30  31
ENDBRANCH  27  30
ENDBRANCH  26  27
ENDBRANCH  23  26
ENDBRANCH   5  22
BRANCH   7  36
ATOM     36  C   UNL     1      -0.005   1.485   0.047  0.00  0.00    -0.035 C 
ATOM     37  C   UNL     1       0.015  -0.044   0.051  0.00  0.00    +0.011 C 
ATOM     38  C   UNL     1       1.430   2.014   0.036  0.00  0.00    +0.011 C 
ATOM     39  C   UNL     1      -0.742   1.983  -1.198  0.00  0.00    +0.011 C 
ENDBRANCH   7  36
TORSDOF 8
