REMARK  Name = ZINC02889050
REMARK  5 active torsions:
REMARK  status: ('A' for Active; 'I' for Inactive)
REMARK    1  A    between atoms: C_11  and  S_13
REMARK    2  A    between atoms: S_13  and  C_14
REMARK    3  A    between atoms: C_14  and  C_15
REMARK    4  A    between atoms: N_17  and  C_18
REMARK    5  A    between atoms: C_19  and  C_26
REMARK                            x       y       z     vdW  Elec       q    Type
REMARK                         _______ _______ _______ _____ _____    ______ ____
ROOT
ATOM      1  C   UNL     1      -0.742   1.585  -1.213  0.00  0.00    +0.228 C 
ATOM      2  O   UNL     1      -1.736   2.268  -1.088  0.00  0.00    -0.275 OA
ATOM      3  N   UNL     1      -0.288   1.272  -2.443  0.00  0.00    -0.279 N 
ATOM      4  H   UNL     1       0.507   0.726  -2.543  0.00  0.00    +0.155 HD
ENDROOT
BRANCH   3   5
ATOM      5  C   UNL     1      -0.959   1.732  -3.566  0.00  0.00    +0.084 A 
ATOM      6  C   UNL     1      -0.648   1.523  -4.899  0.00  0.00    +0.068 A 
ATOM      7  C   UNL     1      -1.530   2.121  -5.902  0.00  0.00    -0.023 A 
ATOM      8  C   UNL     1      -2.560   2.829  -5.406  0.00  0.00    -0.004 A 
ATOM      9  S   UNL     1      -2.384   2.711  -3.643  0.00  0.00    -0.077 S 
ATOM     10  C   UNL     1      -3.418   3.414  -6.496  0.00  0.00    +0.043 C 
ATOM     11  C   UNL     1      -3.035   2.617  -7.762  0.00  0.00    +0.010 C 
ATOM     12  C   UNL     1      -1.598   2.168  -7.429  0.00  0.00    +0.037 C 
BRANCH   6  13
ATOM     13  C   UNL     1       0.520   0.729  -5.292  0.00  0.00    +0.244 C 
ATOM     14  O   UNL     1       0.412  -0.472  -5.457  0.00  0.00    -0.270 OA
ATOM     15  N   UNL     1       1.714   1.329  -5.469  0.00  0.00    -0.325 N 
ATOM     16  H   UNL     1       1.800   2.286  -5.337  0.00  0.00    +0.145 HD
ATOM     17  H   UNL     1       2.487   0.803  -5.728  0.00  0.00    +0.145 HD
ENDBRANCH   6  13
ENDBRANCH   3   5
BRANCH   1  18
ATOM     18  C   UNL     1      -0.013   1.086   0.008  0.00  0.00    +0.172 C 
BRANCH  18  19
ATOM     19  S   UNL     1      -0.860   1.669   1.497  0.00  0.00    -0.096 S 
BRANCH  19  30
ATOM     20  C   UNL     1       2.026  -0.310   3.296  0.00  0.00    +0.223 A 
ATOM     21  N   UNL     1       1.811  -0.161   4.590  0.00  0.00    -0.228 NA
ATOM     22  C   UNL     1       0.781   0.546   5.014  0.00  0.00    +0.113 A 
ATOM     23  C   UNL     1      -0.111   1.158   4.115  0.00  0.00    +0.043 A 
ATOM     24  C   UNL     1      -1.216   1.919   4.721  0.00  0.00    -0.025 A 
ATOM     25  C   UNL     1      -1.265   1.953   6.062  0.00  0.00    -0.004 A 
ATOM     26  S   UNL     1       0.132   0.993   6.601  0.00  0.00    -0.073 S 
ATOM     27  C   UNL     1      -2.435   2.753   6.568  0.00  0.00    +0.043 C 
ATOM     28  C   UNL     1      -3.379   2.872   5.352  0.00  0.00    +0.010 C 
ATOM     29  C   UNL     1      -2.392   2.734   4.176  0.00  0.00    +0.037 C 
ATOM     30  C   UNL     1       0.174   0.961   2.735  0.00  0.00    +0.109 A 
ATOM     31  N   UNL     1       1.226   0.231   2.396  0.00  0.00    -0.229 NA
ENDBRANCH  19  30
ENDBRANCH  18  19
ENDBRANCH   1  18
TORSDOF 5
