REMARK  Name = ZINC66657557
REMARK  5 active torsions:
REMARK  status: ('A' for Active; 'I' for Inactive)
REMARK    1  A    between atoms: C_1  and  C_2
REMARK    2  A    between atoms: C_5  and  C_7
REMARK    3  A    between atoms: C_13  and  C_15
REMARK    4  A    between atoms: N_17  and  C_18
REMARK    5  A    between atoms: N_17  and  C_19
REMARK                            x       y       z     vdW  Elec       q    Type
REMARK                         _______ _______ _______ _____ _____    ______ ____
ROOT
ATOM      1  C   UNL     1       1.656  -3.216  -0.025  0.00  0.00    +0.283 C 
ATOM      2  O   UNL     1       1.211  -4.349  -0.028  0.00  0.00    -0.267 OA
ATOM      3  N   UNL     1       2.989  -3.016  -0.030  0.00  0.00    -0.273 N 
ATOM      4  C   UNL     1       3.571  -1.656  -0.020  0.00  0.00    +0.178 C 
ATOM      5  S   UNL     1       5.256  -1.992   0.658  0.00  0.00    -0.139 S 
ATOM      6  C   UNL     1       5.418  -3.701  -0.028  0.00  0.00    +0.102 C 
ATOM      7  C   UNL     1       3.928  -4.124  -0.041  0.00  0.00    +0.173 C 
ENDROOT
BRANCH   1  12
ATOM      8  C   UNL     1      -0.018   1.503   0.010  0.00  0.00    +0.086 C 
ATOM      9  C   UNL     1       0.002  -0.004   0.002  0.00  0.00    +0.103 A 
ATOM     10  C   UNL     1      -1.086  -0.806   0.003  0.00  0.00    +0.045 A 
ATOM     11  C   UNL     1      -0.622  -2.131  -0.007  0.00  0.00    +0.055 A 
ATOM     12  C   UNL     1       0.742  -2.070  -0.014  0.00  0.00    +0.190 A 
ATOM     13  O   UNL     1       1.101  -0.769  -0.013  0.00  0.00    -0.455 OA
ENDBRANCH   1  12
BRANCH   7  14
ATOM     14  C   UNL     1       3.680  -4.950  -1.277  0.00  0.00    +0.236 C 
ATOM     15  O   UNL     1       2.806  -4.630  -2.054  0.00  0.00    -0.274 OA
ATOM     16  N   UNL     1       4.429  -6.044  -1.518  0.00  0.00    -0.306 N 
ATOM     17  C   UNL     1       4.188  -6.846  -2.720  0.00  0.00    +0.131 C 
ATOM     18  C   UNL     1       5.485  -6.430  -0.579  0.00  0.00    +0.131 C 
ENDBRANCH   7  14
TORSDOF 2
