REMARK  Name = ZINC15205747
REMARK  6 active torsions:
REMARK  status: ('A' for Active; 'I' for Inactive)
REMARK    1  A    between atoms: C_9  and  O_11
REMARK    2  A    between atoms: O_11  and  C_12
REMARK    3  A    between atoms: C_14  and  O_27
REMARK    4  A    between atoms: C_16  and  O_26
REMARK    5  A    between atoms: C_18  and  O_25
REMARK    6  A    between atoms: C_20  and  C_23
REMARK                            x       y       z     vdW  Elec       q    Type
REMARK                         _______ _______ _______ _____ _____    ______ ____
ROOT
ATOM      1  C   UNL     1       3.659   1.697   0.128  0.00  0.00    +0.340 C 
ATOM      2  C   UNL     1       3.869   2.478  -1.172  0.00  0.00    +0.214 C 
ATOM      3  C   UNL     1       2.739   3.501  -1.332  0.00  0.00    +0.180 C 
ATOM      4  C   UNL     1       1.394   2.768  -1.304  0.00  0.00    +0.186 C 
ATOM      5  C   UNL     1       1.280   1.975   0.000  0.00  0.00    +0.266 C 
ATOM      6  O   UNL     1       2.378   1.065   0.101  0.00  0.00    -0.322 OA
ENDROOT
BRANCH   5   7
ATOM      7  C   UNL     1      -0.014   1.204   0.009  0.00  0.00    +0.387 C 
ATOM      8  O   UNL     1       0.002  -0.004   0.002  0.00  0.00    -0.243 OA
ATOM      9  O   UNL     1      -1.186   1.859   0.018  0.00  0.00    -0.243 OA
ENDBRANCH   5   7
BRANCH   4  10
ATOM     10  O   UNL     1       0.330   3.717  -1.381  0.00  0.00    -0.386 OA
ATOM     11  H   UNL     1      -0.552   3.322  -1.364  0.00  0.00    +0.210 HD
ENDBRANCH   4  10
BRANCH   3  12
ATOM     12  O   UNL     1       2.791   4.445  -0.260  0.00  0.00    -0.386 OA
ATOM     13  H   UNL     1       3.617   4.946  -0.217  0.00  0.00    +0.210 HD
ENDBRANCH   3  12
BRANCH   2  14
ATOM     14  O   UNL     1       5.125   3.158  -1.123  0.00  0.00    -0.383 OA
ATOM     15  H   UNL     1       5.886   2.571  -1.022  0.00  0.00    +0.210 HD
ENDBRANCH   2  14
BRANCH   1  16
ATOM     16  O   UNL     1       4.678   0.704   0.257  0.00  0.00    -0.459 OA
BRANCH  16  25
ATOM     17  C   UNL     1       3.781  -0.493   3.576  0.00  0.00    +0.004 A 
ATOM     18  C   UNL     1       4.709  -1.464   3.800  0.00  0.00    +0.010 A 
ATOM     19  C   UNL     1       5.676  -1.743   2.821  0.00  0.00    +0.004 A 
ATOM     20  C   UNL     1       6.651  -2.739   3.016  0.00  0.00    +0.011 A 
ATOM     21  C   UNL     1       7.559  -2.956   2.020  0.00  0.00    +0.020 A 
ATOM     22  C   UNL     1       7.503  -2.199   0.851  0.00  0.00    +0.111 A 
ATOM     23  N   UNL     1       6.594  -1.272   0.673  0.00  0.00    -0.251 NA
ATOM     24  C   UNL     1       5.673  -1.014   1.606  0.00  0.00    +0.113 A 
ATOM     25  C   UNL     1       4.699  -0.012   1.411  0.00  0.00    +0.150 A 
ATOM     26  C   UNL     1       3.775   0.231   2.387  0.00  0.00    +0.048 A 
ENDBRANCH  16  25
ENDBRANCH   1  16
TORSDOF 6
