REMARK  Name = ZINC12563804
REMARK  5 active torsions:
REMARK  status: ('A' for Active; 'I' for Inactive)
REMARK    1  A    between atoms: C_4  and  C_7
REMARK    2  A    between atoms: C_7  and  N_8
REMARK    3  A    between atoms: N_16  and  N_17
REMARK    4  A    between atoms: C_18  and  C_20
REMARK    5  A    between atoms: C_22  and  C_30
REMARK                            x       y       z     vdW  Elec       q    Type
REMARK                         _______ _______ _______ _____ _____    ______ ____
ROOT
ATOM      1  N   UNL     1       5.159  -2.545   5.536  0.00  0.00    -0.202 N 
ATOM      2  C   UNL     1       5.179  -3.468   6.518  0.00  0.00    +0.264 C 
ATOM      3  O   UNL     1       4.551  -4.501   6.394  0.00  0.00    -0.268 OA
ATOM      4  H   UNL     1       5.660  -1.720   5.635  0.00  0.00    +0.178 HD
ENDROOT
BRANCH   1  13
ATOM      5  N   UNL     1       4.107  -0.917   1.363  0.00  0.00    -0.261 N 
ATOM      6  C   UNL     1       4.827  -0.010   2.132  0.00  0.00    +0.046 A 
ATOM      7  C   UNL     1       5.308   1.264   1.849  0.00  0.00    +0.024 A 
ATOM      8  C   UNL     1       6.008   1.969   2.807  0.00  0.00    +0.002 A 
ATOM      9  C   UNL     1       6.241   1.421   4.057  0.00  0.00    +0.001 A 
ATOM     10  C   UNL     1       5.771   0.157   4.356  0.00  0.00    +0.012 A 
ATOM     11  C   UNL     1       5.064  -0.560   3.398  0.00  0.00    +0.028 A 
ATOM     12  C   UNL     1       4.439  -1.904   3.393  0.00  0.00    +0.153 C 
ATOM     13  N   UNL     1       4.415  -2.777   4.372  0.00  0.00    -0.174 NA
ATOM     14  C   UNL     1       3.845  -2.043   2.049  0.00  0.00    +0.272 C 
ATOM     15  O   UNL     1       3.230  -3.008   1.634  0.00  0.00    -0.268 OA
BRANCH   5  16
ATOM     16  C   UNL     1       3.681  -0.674  -0.017  0.00  0.00    +0.149 C 
BRANCH  16  20
ATOM     17  C   UNL     1      -0.169   1.175  -0.018  0.00  0.00    +0.000 A 
ATOM     18  C   UNL     1       0.972   1.955   0.013  0.00  0.00    +0.000 A 
ATOM     19  C   UNL     1       2.218   1.356   0.013  0.00  0.00    +0.005 A 
ATOM     20  C   UNL     1       2.323  -0.022  -0.017  0.00  0.00    -0.030 A 
ATOM     21  C   UNL     1       1.181  -0.801  -0.048  0.00  0.00    +0.005 A 
ATOM     22  C   UNL     1      -0.065  -0.203  -0.049  0.00  0.00    +0.000 A 
ENDBRANCH  16  20
ENDBRANCH   5  16
ENDBRANCH   1  13
BRANCH   2  23
ATOM     23  C   UNL     1       5.964  -3.223   7.746  0.00  0.00    +0.050 A 
ATOM     24  C   UNL     1       6.605  -2.011   7.964  0.00  0.00    +0.042 A 
ATOM     25  C   UNL     1       7.339  -1.823   9.145  0.00  0.00    +0.072 A 
ATOM     26  N   UNL     1       7.445  -2.759  10.063  0.00  0.00    -0.247 NA
ATOM     27  C   UNL     1       6.863  -3.953   9.937  0.00  0.00    +0.072 A 
ATOM     28  C   UNL     1       6.092  -4.246   8.784  0.00  0.00    +0.013 A 
ATOM     29  C   UNL     1       5.479  -5.497   8.657  0.00  0.00    +0.011 A 
ATOM     30  C   UNL     1       5.624  -6.422   9.648  0.00  0.00    +0.001 A 
ATOM     31  C   UNL     1       6.376  -6.137  10.786  0.00  0.00    +0.002 A 
ATOM     32  C   UNL     1       6.996  -4.935  10.936  0.00  0.00    +0.028 A 
BRANCH  25  33
ATOM     33  C   UNL     1       8.018  -0.523   9.365  0.00  0.00    +0.000 A 
ATOM     34  C   UNL     1       7.918   0.489   8.412  0.00  0.00    +0.011 A 
ATOM     35  C   UNL     1       8.552   1.696   8.622  0.00  0.00    +0.020 A 
ATOM     36  C   UNL     1       9.287   1.903   9.778  0.00  0.00    +0.041 A 
ATOM     37  C   UNL     1       9.389   0.901  10.728  0.00  0.00    +0.020 A 
ATOM     38  C   UNL     1       8.755  -0.308  10.529  0.00  0.00    +0.011 A 
ATOM     39 CL   UNL     1      10.082   3.425  10.036  0.00  0.00    -0.084 Cl
ENDBRANCH  25  33
ENDBRANCH   2  23
TORSDOF 5
