REMARK  Name = ZINC40802158
REMARK  5 active torsions:
REMARK  status: ('A' for Active; 'I' for Inactive)
REMARK    1  A    between atoms: C_1  and  C_2
REMARK    2  A    between atoms: C_11  and  N_12
REMARK    3  A    between atoms: C_14  and  N_26
REMARK    4  A    between atoms: C_15  and  O_19
REMARK    5  A    between atoms: O_19  and  C_20
REMARK                            x       y       z     vdW  Elec       q    Type
REMARK                         _______ _______ _______ _____ _____    ______ ____
ROOT
ATOM      1  N   UNL     1       0.064  -4.885  -1.143  0.00  0.00    -0.297 N 
ATOM      2  C   UNL     1       0.188  -6.269  -1.087  0.00  0.00    +0.151 A 
ATOM      3  C   UNL     1       0.305  -7.019  -2.260  0.00  0.00    +0.128 A 
ATOM      4  C   UNL     1       0.427  -8.402  -2.147  0.00  0.00    +0.241 A 
ATOM      5  N   UNL     1       0.428  -8.953  -0.937  0.00  0.00    -0.200 NA
ATOM      6  C   UNL     1       0.316  -8.210   0.145  0.00  0.00    +0.227 A 
ATOM      7  N   UNL     1       0.204  -6.899   0.084  0.00  0.00    -0.218 NA
ATOM      8  H   UNL     1      -0.030  -4.441  -2.000  0.00  0.00    +0.154 HD
ENDROOT
BRANCH   1  19
ATOM      9  C   UNL     1      -2.358   0.942   0.382  0.00  0.00    +0.063 C 
ATOM     10  C   UNL     1      -1.713  -0.416   0.275  0.00  0.00    +0.013 A 
ATOM     11  C   UNL     1      -1.768  -1.099  -0.938  0.00  0.00    +0.021 A 
ATOM     12  C   UNL     1      -1.188  -2.331  -1.053  0.00  0.00    +0.013 A 
ATOM     13  C   UNL     1      -0.547  -2.871   0.076  0.00  0.00    +0.020 A 
ATOM     14  C   UNL     1      -0.527  -2.124   1.279  0.00  0.00    +0.048 A 
ATOM     15  N   UNL     1      -1.110  -0.920   1.324  0.00  0.00    -0.358 N 
ATOM     16  C   UNL     1       0.112  -2.660   2.409  0.00  0.00    +0.026 A 
ATOM     17  C   UNL     1       0.704  -3.885   2.341  0.00  0.00    +0.004 A 
ATOM     18  C   UNL     1       0.690  -4.627   1.165  0.00  0.00    +0.024 A 
ATOM     19  C   UNL     1       0.073  -4.137   0.032  0.00  0.00    +0.042 A 
ATOM     20  H   UNL     1      -1.089  -0.413   2.150  0.00  0.00    +0.166 HD
ENDBRANCH   1  19
BRANCH   3  21
ATOM     21  N   UNL     1       0.299  -6.396  -3.518  0.00  0.00    -0.351 N 
ATOM     22  H   UNL     1       0.213  -5.431  -3.581  0.00  0.00    +0.143 HD
ATOM     23  H   UNL     1       0.381  -6.929  -4.324  0.00  0.00    +0.143 HD
ENDBRANCH   3  21
BRANCH   4  24
ATOM     24  O   UNL     1       0.543  -9.176  -3.256  0.00  0.00    -0.472 OA
BRANCH  24  25
ATOM     25  C   UNL     1       0.663 -10.586  -3.054  0.00  0.00    +0.175 C 
ATOM     26  C   UNL     1       2.142 -10.957  -2.924  0.00  0.00    +0.044 C 
ATOM     27  C   UNL     1       2.271 -12.466  -2.707  0.00  0.00    +0.004 C 
ATOM     28  C   UNL     1       1.663 -13.207  -3.900  0.00  0.00    +0.000 C 
ATOM     29  C   UNL     1       0.184 -12.835  -4.030  0.00  0.00    +0.004 C 
ATOM     30  C   UNL     1       0.055 -11.326  -4.246  0.00  0.00    +0.044 C 
ENDBRANCH  24  25
ENDBRANCH   4  24
TORSDOF 4
