REMARK  Name = ZINC66822866
REMARK  7 active torsions:
REMARK  status: ('A' for Active; 'I' for Inactive)
REMARK    1  A    between atoms: C_1  and  C_2
REMARK    2  A    between atoms: C_5  and  N_8
REMARK    3  A    between atoms: C_10  and  C_15
REMARK    4  A    between atoms: N_17  and  C_18
REMARK    5  A    between atoms: C_18  and  C_20
REMARK    6  A    between atoms: C_18  and  C_21
REMARK    7  A    between atoms: C_24  and  N_27
REMARK                            x       y       z     vdW  Elec       q    Type
REMARK                         _______ _______ _______ _____ _____    ______ ____
ROOT
ATOM      1  C   UNL     1      -1.063  -2.271   5.631  0.00  0.00    +0.219 C 
ATOM      2  O   UNL     1      -0.151  -3.010   5.327  0.00  0.00    -0.275 OA
ATOM      3  N   UNL     1      -1.029  -1.605   6.802  0.00  0.00    -0.308 N 
ATOM      4  H   UNL     1      -1.759  -1.013   7.045  0.00  0.00    +0.149 HD
ENDROOT
BRANCH   1   7
ATOM      5  N   UNL     1      -1.412  -2.072   2.447  0.00  0.00    -0.298 N 
ATOM      6  C   UNL     1      -2.059  -2.954   3.425  0.00  0.00    +0.121 C 
ATOM      7  C   UNL     1      -2.235  -2.098   4.699  0.00  0.00    +0.101 C 
ATOM      8  C   UNL     1      -2.272  -0.667   4.115  0.00  0.00    +0.110 C 
ATOM      9  C   UNL     1      -1.516  -0.781   2.809  0.00  0.00    +0.217 C 
ATOM     10  O   UNL     1      -1.072   0.155   2.179  0.00  0.00    -0.276 OA
BRANCH   5  15
ATOM     11  C   UNL     1      -4.318  -4.653   0.045  0.00  0.00    +0.007 C 
ATOM     12  C   UNL     1      -2.888  -4.110   0.019  0.00  0.00    -0.014 C 
ATOM     13  C   UNL     1      -2.130  -4.610   1.251  0.00  0.00    +0.005 C 
ATOM     14  C   UNL     1      -0.700  -4.067   1.226  0.00  0.00    +0.023 C 
ATOM     15  C   UNL     1      -0.735  -2.538   1.234  0.00  0.00    +0.076 C 
ATOM     16  C   UNL     1      -1.492  -2.038   0.003  0.00  0.00    +0.023 C 
ATOM     17  C   UNL     1      -2.922  -2.580   0.028  0.00  0.00    +0.005 C 
ENDBRANCH   5  15
ENDBRANCH   1   7
BRANCH   3  18
ATOM     18  C   UNL     1       0.110  -1.772   7.708  0.00  0.00    +0.100 C 
ATOM     19  C   UNL     1      -0.114  -3.006   8.585  0.00  0.00    +0.033 C 
BRANCH  18  20
ATOM     20  C   UNL     1       0.241  -0.552   8.582  0.00  0.00    -0.027 A 
ATOM     21  C   UNL     1      -0.891   0.054   9.095  0.00  0.00    +0.007 A 
ATOM     22  C   UNL     1      -0.774   1.172   9.897  0.00  0.00    +0.023 A 
ATOM     23  C   UNL     1       0.482   1.689  10.187  0.00  0.00    +0.035 A 
ATOM     24  C   UNL     1       1.617   1.079   9.669  0.00  0.00    +0.023 A 
ATOM     25  C   UNL     1       1.493  -0.043   8.873  0.00  0.00    +0.007 A 
BRANCH  23  26
ATOM     26  N   UNL     1       0.603   2.823  10.998  0.00  0.00    -0.270 N 
ATOM     27  C   UNL     1      -0.261   3.021  12.013  0.00  0.00    +0.301 C 
ATOM     28  O   UNL     1      -1.085   2.170  12.284  0.00  0.00    -0.253 OA
ATOM     29  N   UNL     1      -0.210   4.162  12.728  0.00  0.00    -0.313 N 
ATOM     30  H   UNL     1       1.309   3.466  10.829  0.00  0.00    +0.156 HD
ATOM     31  H   UNL     1       0.447   4.842  12.511  0.00  0.00    +0.146 HD
ATOM     32  H   UNL     1      -0.832   4.305  13.459  0.00  0.00    +0.146 HD
ENDBRANCH  23  26
ENDBRANCH  18  20
ENDBRANCH   3  18
TORSDOF 5
