REMARK  Name = ZINC32445554
REMARK  3 active torsions:
REMARK  status: ('A' for Active; 'I' for Inactive)
REMARK    1  A    between atoms: C_4  and  O_22
REMARK    2  A    between atoms: C_5  and  C_7
REMARK    3  A    between atoms: CA_16  and  C_19
REMARK                            x       y       z     vdW  Elec       q    Type
REMARK                         _______ _______ _______ _____ _____    ______ ____
ROOT
ATOM      1  C   UNL     1       1.156  -2.119   0.231  0.00  0.00    +0.013 C 
ATOM      2  C   UNL     1       1.465  -2.470  -1.201  0.00  0.00    +0.029 A 
ATOM      3  C   UNL     1       0.854  -3.470  -1.876  0.00  0.00    +0.060 A 
ATOM      4  N   UNL     1       1.358  -3.505  -3.109  0.00  0.00    -0.241 NA
ATOM      5  C   UNL     1       2.262  -2.567  -3.228  0.00  0.00    +0.196 A 
ATOM      6  N   UNL     1       2.357  -1.900  -2.054  0.00  0.00    -0.349 N 
ATOM      7  H   UNL     1       2.948  -1.156  -1.858  0.00  0.00    +0.166 HD
ATOM      8  C   UNL     1      -0.204  -4.348  -1.254  0.00  0.00    +0.052 C 
ATOM      9  CA  UNL     1      -0.133  -4.157   0.268  0.00  0.00    +0.051 C 
ATOM     10  N   UNL     1      -0.138  -2.725   0.590  0.00  0.00    +0.397 N 
ATOM     11  H1  UNL     1      -0.300  -2.604   1.578  0.00  0.00    -0.083 HD
ATOM     12  H2  UNL     1      -0.875  -2.269   0.074  0.00  0.00    -0.083 HD
ENDROOT
BRANCH   1  17
ATOM     13  C   UNL     1      -0.235   1.378   0.536  0.00  0.00    +0.000 A 
ATOM     14  C   UNL     1       0.921   2.129   0.652  0.00  0.00    +0.004 A 
ATOM     15  C   UNL     1       2.154   1.508   0.633  0.00  0.00    +0.045 A 
ATOM     16  C   UNL     1       2.233   0.129   0.496  0.00  0.00    +0.119 A 
ATOM     17  C   UNL     1       1.073  -0.622   0.380  0.00  0.00    -0.014 A 
ATOM     18  C   UNL     1      -0.158   0.004   0.399  0.00  0.00    +0.006 A 
BRANCH  16  19
ATOM     19  O   UNL     1       3.446  -0.484   0.476  0.00  0.00    -0.507 OA
ATOM     20  H   UNL     1       3.767  -0.750   1.349  0.00  0.00    +0.292 HD
ENDBRANCH  16  19
ENDBRANCH   1  17
BRANCH   9  21
ATOM     21  C   UNL     1       1.134  -4.783   0.793  0.00  0.00    +0.343 C 
ATOM     22  O   UNL     1       1.787  -4.210   1.648  0.00  0.00    -0.248 OA
ATOM     23  OXT UNL     1       1.505  -5.862   0.362  0.00  0.00    -0.248 OA
ENDBRANCH   9  21
TORSDOF 3
