REMARK  Name = ZINC21266065
REMARK  8 active torsions:
REMARK  status: ('A' for Active; 'I' for Inactive)
REMARK    1  A    between atoms: C_1  and  C_2
REMARK    2  A    between atoms: C_6  and  N_8
REMARK    3  A    between atoms: C_9  and  C_11
REMARK    4  A    between atoms: C_11  and  N_12
REMARK    5  A    between atoms: N_12  and  C_13
REMARK    6  A    between atoms: C_13  and  C_14
REMARK    7  A    between atoms: C_17  and  S_20
REMARK    8  A    between atoms: S_20  and  N_23
REMARK                            x       y       z     vdW  Elec       q    Type
REMARK                         _______ _______ _______ _____ _____    ______ ____
ROOT
ATOM      1  N   UNL     1      -0.536   1.879  -1.202  0.00  0.00    +0.387 N 
ATOM      2  H   UNL     1      -0.423   2.971  -1.264  0.00  0.00    -0.085 HD
ATOM      3  H   UNL     1      -1.603   1.626  -1.113  0.00  0.00    -0.085 HD
ENDROOT
BRANCH   1   4
ATOM      4  C   UNL     1       0.014   1.259  -2.415  0.00  0.00    +0.016 C 
BRANCH   4   6
ATOM      5  N   UNL     1      -0.392   1.341  -4.854  0.00  0.00    -0.287 N 
ATOM      6  C   UNL     1      -0.727   1.774  -3.622  0.00  0.00    +0.200 C 
ATOM      7  O   UNL     1      -1.625   2.577  -3.486  0.00  0.00    -0.278 OA
ATOM      8  H   UNL     1       0.477   0.680  -4.987  0.00  0.00    +0.155 HD
BRANCH   5  14
ATOM      9  C   UNL     1      -0.621   2.502  -9.626  0.00  0.00    +0.044 C 
ATOM     10  C   UNL     1      -1.286   2.302  -8.288  0.00  0.00    -0.049 A 
ATOM     11  C   UNL     1      -2.648   2.505  -8.157  0.00  0.00    +0.003 A 
ATOM     12  C   UNL     1      -3.262   2.322  -6.932  0.00  0.00    +0.002 A 
ATOM     13  C   UNL     1      -2.518   1.931  -5.836  0.00  0.00    +0.023 A 
ATOM     14  C   UNL     1      -1.150   1.732  -5.963  0.00  0.00    +0.034 A 
ATOM     15  C   UNL     1      -0.536   1.916  -7.195  0.00  0.00    +0.026 A 
ENDBRANCH   5  14
ENDBRANCH   4   6
ENDBRANCH   1   4
BRANCH   1  16
ATOM     16  C   UNL     1       0.164   1.400  -0.003  0.00  0.00    -0.046 C 
BRANCH  16  17
ATOM     17  C   UNL     1      -0.427   2.056   1.219  0.00  0.00    -0.064 A 
ATOM     18  C   UNL     1       0.092   3.251   1.681  0.00  0.00    +0.003 A 
ATOM     19  C   UNL     1      -0.452   3.854   2.799  0.00  0.00    +0.029 A 
ATOM     20  C   UNL     1      -1.510   3.259   3.460  0.00  0.00    +0.105 A 
ATOM     21  C   UNL     1      -2.026   2.062   3.001  0.00  0.00    +0.029 A 
ATOM     22  C   UNL     1      -1.485   1.460   1.880  0.00  0.00    +0.003 A 
BRANCH  20  23
ATOM     23  S   UNL     1      -2.202   4.027   4.888  0.00  0.00    +0.056 S 
ATOM     24  O   UNL     1      -1.896   5.411   4.792  0.00  0.00    -0.153 OA
ATOM     25  O   UNL     1      -3.534   3.546   5.002  0.00  0.00    -0.153 OA
BRANCH  23  26
ATOM     26  N   UNL     1      -1.376   3.449   6.202  0.00  0.00    -0.204 NA
ATOM     27  H   UNL     1      -1.780   3.906   7.118  0.00  0.00    +0.144 HD
ATOM     28  H   UNL     1      -0.310   3.701   6.105  0.00  0.00    +0.144 HD
ENDBRANCH  23  26
ENDBRANCH  20  23
ENDBRANCH  16  17
ENDBRANCH   1  16
TORSDOF 7
