REMARK  Name = ZINC58760998
REMARK  4 active torsions:
REMARK  status: ('A' for Active; 'I' for Inactive)
REMARK    1  A    between atoms: C_3  and  C_8
REMARK    2  A    between atoms: C_11  and  C_13
REMARK    3  A    between atoms: C_14  and  C_15
REMARK    4  A    between atoms: N_17  and  C_18
REMARK                            x       y       z     vdW  Elec       q    Type
REMARK                         _______ _______ _______ _____ _____    ______ ____
ROOT
ATOM      1  C   UNL     1       6.984   7.396  -0.013  0.00  0.00    +0.241 C 
ATOM      2  O   UNL     1       8.187   7.207  -0.036  0.00  0.00    -0.270 OA
ATOM      3  N   UNL     1       6.499   8.654   0.002  0.00  0.00    -0.281 N 
ATOM      4  H   UNL     1       5.543   8.806  -0.061  0.00  0.00    +0.155 HD
ENDROOT
BRANCH   3   5
ATOM      5  C   UNL     1       7.375   9.741   0.107  0.00  0.00    +0.056 A 
ATOM      6  C   UNL     1       8.622   9.572   0.697  0.00  0.00    +0.072 A 
ATOM      7  C   UNL     1       9.486  10.647   0.799  0.00  0.00    +0.144 A 
ATOM      8  C   UNL     1       9.104  11.896   0.311  0.00  0.00    +0.077 A 
ATOM      9  C   UNL     1       7.861  12.062  -0.278  0.00  0.00    +0.048 A 
ATOM     10  C   UNL     1       6.999  10.985  -0.385  0.00  0.00    +0.064 A 
ATOM     11 CL   UNL     1       5.444  11.189  -1.128  0.00  0.00    -0.082 Cl
ATOM     12  N   UNL     1       9.992  12.978   0.424  0.00  0.00    -0.280 N 
ATOM     13  C   UNL     1      11.290  12.732   0.705  0.00  0.00    +0.255 C 
ATOM     14  O   UNL     1      12.069  13.652   0.838  0.00  0.00    -0.272 OA
ATOM     15  C   UNL     1      11.767  11.309   0.852  0.00  0.00    +0.325 C 
ATOM     16  O   UNL     1      10.710  10.499   1.373  0.00  0.00    -0.481 OA
ATOM     17  H   UNL     1       9.678  13.887   0.303  0.00  0.00    +0.155 HD
ENDBRANCH   3   5
BRANCH   1  19
ATOM     18  C   UNL     1       6.584   5.029  -0.015  0.00  0.00    +0.020 C 
ATOM     19  C   UNL     1       6.096   6.296  -0.001  0.00  0.00    +0.068 C 
BRANCH  18  23
ATOM     20  C   UNL     1       3.655   2.162   0.029  0.00  0.00    +0.020 A 
ATOM     21  C   UNL     1       4.954   1.677   0.002  0.00  0.00    +0.017 A 
ATOM     22  C   UNL     1       5.988   2.569  -0.015  0.00  0.00    +0.016 A 
ATOM     23  C   UNL     1       5.696   3.929  -0.003  0.00  0.00    +0.013 A 
ATOM     24  S   UNL     1       3.911   3.928   0.024  0.00  0.00    -0.089 S 
BRANCH  20  27
ATOM     25  C   UNL     1      -0.017   1.380   0.088  0.00  0.00    +0.002 A 
ATOM     26  C   UNL     1       1.166   2.089   0.069  0.00  0.00    +0.009 A 
ATOM     27  C   UNL     1       2.385   1.408   0.049  0.00  0.00    -0.010 A 
ATOM     28  C   UNL     1       2.398   0.012   0.048  0.00  0.00    +0.029 A 
ATOM     29  C   UNL     1       1.207  -0.686   0.067  0.00  0.00    +0.042 A 
ATOM     30  C   UNL     1       0.002  -0.003   0.087  0.00  0.00    +0.020 A 
ATOM     31 CL   UNL     1       1.219  -2.422   0.065  0.00  0.00    -0.084 Cl
ENDBRANCH  20  27
ENDBRANCH  18  23
ENDBRANCH   1  19
TORSDOF 4
