REMARK  Name = ZINC08919633
REMARK  9 active torsions:
REMARK  status: ('A' for Active; 'I' for Inactive)
REMARK    1  A    between atoms: C_1  and  C_2
REMARK    2  A    between atoms: C_2  and  C_3
REMARK    3  A    between atoms: C_3  and  C_4
REMARK    4  A    between atoms: C_3  and  C_5
REMARK    5  A    between atoms: C_3  and  C_6
REMARK    6  A    between atoms: C_15  and  O_34
REMARK    7  A    between atoms: C_17  and  C_20
REMARK    8  A    between atoms: C_23  and  C_25
REMARK    9  A    between atoms: C_30  and  N_31
REMARK                            x       y       z     vdW  Elec       q    Type
REMARK                         _______ _______ _______ _____ _____    ______ ____
ROOT
ATOM      1  C   UNL     1       0.739  -2.027  -1.265  0.00  0.00    -0.000 C 
ATOM      2  C   UNL     1       1.461  -2.524  -2.521  0.00  0.00    +0.009 C 
ATOM      3  C   UNL     1       1.274  -4.035  -2.666  0.00  0.00    +0.037 C 
ATOM      4  C   UNL     1       1.675  -4.705  -1.360  0.00  0.00    -0.023 A 
ATOM      5  C   UNL     1       1.759  -4.000  -0.209  0.00  0.00    -0.004 A 
ATOM      6  S   UNL     1       2.252  -5.184   1.013  0.00  0.00    -0.078 S 
ATOM      7  C   UNL     1       2.339  -6.539   0.062  0.00  0.00    +0.080 A 
ATOM      8  C   UNL     1       1.997  -6.114  -1.227  0.00  0.00    +0.068 A 
ATOM      9  C   UNL     1       2.006  -7.133  -2.309  0.00  0.00    +0.220 C 
ATOM     10  N   UNL     1       2.084  -8.388  -1.959  0.00  0.00    -0.220 NA
ATOM     11  C   UNL     1       2.098  -8.862  -0.581  0.00  0.00    +0.260 C 
ATOM     12  N   UNL     1       2.655  -7.851   0.336  0.00  0.00    -0.311 N 
ATOM     13  C   UNL     1       1.487  -2.539  -0.025  0.00  0.00    +0.046 C 
ATOM     14  H   UNL     1       3.213  -8.097   1.091  0.00  0.00    +0.149 HD
ENDROOT
BRANCH  11  15
ATOM     15  C   UNL     1       0.687  -9.184  -0.158  0.00  0.00    +0.148 A 
ATOM     16  C   UNL     1      -0.298  -9.614  -0.970  0.00  0.00    +0.049 A 
ATOM     17  C   UNL     1      -1.444  -9.792  -0.170  0.00  0.00    +0.050 A 
ATOM     18  C   UNL     1      -1.092  -9.456   1.099  0.00  0.00    +0.138 A 
ATOM     19  O   UNL     1       0.206  -9.095   1.093  0.00  0.00    -0.456 OA
BRANCH  18  20
ATOM     20  C   UNL     1      -1.978  -9.487   2.282  0.00  0.00    +0.047 A 
ATOM     21  C   UNL     1      -3.233  -8.880   2.234  0.00  0.00    +0.014 A 
ATOM     22  C   UNL     1      -4.055  -8.912   3.341  0.00  0.00    +0.001 A 
ATOM     23  C   UNL     1      -3.636  -9.545   4.499  0.00  0.00    +0.002 A 
ATOM     24  C   UNL     1      -2.393 -10.149   4.553  0.00  0.00    +0.033 A 
ATOM     25  C   UNL     1      -1.564 -10.129   3.450  0.00  0.00    +0.137 A 
BRANCH  25  26
ATOM     26  N   UNL     1      -0.237 -10.782   3.508  0.00  0.00    +0.057 N 
ATOM     27  O   UNL     1       0.120 -11.338   4.521  0.00  0.00    -0.126 OA
ATOM     28  O   UNL     1       0.491 -10.759   2.543  0.00  0.00    -0.126 OA
ENDBRANCH  25  26
ENDBRANCH  18  20
ENDBRANCH  11  15
BRANCH   1  29
ATOM     29  C   UNL     1       0.718  -0.497  -1.257  0.00  0.00    -0.032 C 
ATOM     30  C   UNL     1      -0.022   0.009  -2.496  0.00  0.00    +0.011 C 
ATOM     31  C   UNL     1       2.154   0.032  -1.268  0.00  0.00    +0.011 C 
BRANCH  29  33
ATOM     32  C   UNL     1      -0.019   1.526   0.010  0.00  0.00    +0.004 C 
ATOM     33  C   UNL     1       0.002  -0.004   0.002  0.00  0.00    +0.003 C 
ENDBRANCH  29  33
ENDBRANCH   1  29
BRANCH   9  34
ATOM     34  O   UNL     1       1.937  -6.771  -3.611  0.00  0.00    -0.492 OA
ATOM     35  H   UNL     1       1.950  -7.517  -4.228  0.00  0.00    +0.294 HD
ENDBRANCH   9  34
TORSDOF 6
