REMARK  Name = ZINC06713788
REMARK  6 active torsions:
REMARK  status: ('A' for Active; 'I' for Inactive)
REMARK    1  A    between atoms: C_1  and  C_2
REMARK    2  A    between atoms: C_2  and  C_3
REMARK    3  A    between atoms: C_2  and  C_4
REMARK    4  A    between atoms: C_7  and  N_10
REMARK    5  A    between atoms: C_11  and  C_17
REMARK    6  A    between atoms: C_20  and  N_23
REMARK                            x       y       z     vdW  Elec       q    Type
REMARK                         _______ _______ _______ _____ _____    ______ ____
ROOT
ATOM      1  N   UNL     1      -3.621   3.053  -0.565  0.00  0.00    -0.254 N 
ATOM      2  C   UNL     1      -2.619   3.994  -0.031  0.00  0.00    +0.170 C 
ATOM      3  S   UNL     1      -3.167   4.152   1.723  0.00  0.00    -0.124 S 
ATOM      4  C   UNL     1      -4.890   3.547   1.457  0.00  0.00    +0.167 C 
ATOM      5  C   UNL     1      -4.727   2.821   0.131  0.00  0.00    +0.231 C 
ATOM      6  O   UNL     1      -5.577   2.057  -0.276  0.00  0.00    -0.274 OA
ENDROOT
BRANCH   1  10
ATOM      7  C   UNL     1      -2.985   1.146  -4.214  0.00  0.00    -0.045 A 
ATOM      8  C   UNL     1      -2.989   2.527  -4.149  0.00  0.00    +0.006 A 
ATOM      9  C   UNL     1      -3.200   3.162  -2.941  0.00  0.00    +0.024 A 
ATOM     10  C   UNL     1      -3.407   2.413  -1.791  0.00  0.00    +0.038 A 
ATOM     11  C   UNL     1      -3.397   1.026  -1.858  0.00  0.00    +0.024 A 
ATOM     12  C   UNL     1      -3.192   0.396  -3.071  0.00  0.00    +0.006 A 
BRANCH   7  14
ATOM     13  C   UNL     1      -1.509  -0.425  -5.439  0.00  0.00    +0.012 C 
ATOM     14  C   UNL     1      -2.756   0.456  -5.534  0.00  0.00    +0.013 C 
ATOM     15  C   UNL     1      -3.969  -0.412  -5.874  0.00  0.00    +0.012 C 
ENDBRANCH   7  14
ENDBRANCH   1  10
BRANCH   2  16
ATOM     16  C   UNL     1      -1.231   3.413  -0.114  0.00  0.00    -0.017 A 
ATOM     17  C   UNL     1      -1.056   2.041  -0.106  0.00  0.00    +0.008 A 
ATOM     18  C   UNL     1       0.214   1.505  -0.177  0.00  0.00    +0.023 A 
ATOM     19  C   UNL     1       1.317   2.345  -0.267  0.00  0.00    +0.025 A 
ATOM     20  C   UNL     1       1.138   3.722  -0.281  0.00  0.00    +0.023 A 
ATOM     21  C   UNL     1      -0.136   4.252  -0.204  0.00  0.00    +0.008 A 
BRANCH  19  22
ATOM     22  N   UNL     1       2.603   1.806  -0.344  0.00  0.00    -0.358 N 
ATOM     23  H   UNL     1       2.727   0.844  -0.334  0.00  0.00    +0.142 HD
ATOM     24  H   UNL     1       3.373   2.394  -0.407  0.00  0.00    +0.142 HD
ENDBRANCH  19  22
ENDBRANCH   2  16
TORSDOF 4
