REMARK  Name = ZINC11603358
REMARK  10 active torsions:
REMARK  status: ('A' for Active; 'I' for Inactive)
REMARK    1  A    between atoms: C_1  and  O_2
REMARK    2  A    between atoms: O_2  and  C_3
REMARK    3  A    between atoms: C_8  and  C_9
REMARK    4  A    between atoms: C_9  and  C_11
REMARK    5  A    between atoms: C_9  and  N_70
REMARK    6  A    between atoms: C_11  and  N_12
REMARK    7  A    between atoms: C_13  and  C_15
REMARK    8  A    between atoms: N_18  and  S_21
REMARK    9  A    between atoms: S_21  and  C_24
REMARK   10  A    between atoms: C_25  and  C_26
REMARK                            x       y       z     vdW  Elec       q    Type
REMARK                         _______ _______ _______ _____ _____    ______ ____
ROOT
ATOM      1  N   UNL     1      -4.347   4.952   3.561  0.00  0.00    -0.316 N 
ATOM      2  C   UNL     1      -4.262   3.787   2.890  0.00  0.00    +0.216 C 
ATOM      3  O   UNL     1      -5.268   3.248   2.479  0.00  0.00    -0.276 OA
ATOM      4  H   UNL     1      -3.542   5.382   3.890  0.00  0.00    +0.149 HD
ENDROOT
BRANCH   2   5
ATOM      5  C   UNL     1      -2.916   3.152   2.649  0.00  0.00    +0.077 C 
ATOM      6  C   UNL     1      -3.100   1.847   1.870  0.00  0.00    +0.030 C 
ATOM      7  C   UNL     1      -1.734   1.188   1.657  0.00  0.00    +0.110 C 
ATOM      8  N   UNL     1      -0.837   2.156   1.011  0.00  0.00    -0.177 NA
ATOM      9  C   UNL     1      -0.655   3.475   1.632  0.00  0.00    +0.110 C 
ATOM     10  C   UNL     1      -2.038   4.111   1.842  0.00  0.00    +0.030 C 
BRANCH   8  11
ATOM     11  S   UNL     1      -0.041   1.765  -0.388  0.00  0.00    +0.054 S 
ATOM     12  O   UNL     1       0.048   0.347  -0.422  0.00  0.00    -0.153 OA
ATOM     13  O   UNL     1       1.105   2.602  -0.450  0.00  0.00    -0.153 OA
BRANCH  11  14
ATOM     14  C   UNL     1      -1.082   2.236  -1.729  0.00  0.00    +0.153 C 
ATOM     15  C   UNL     1      -0.699   3.195  -2.560  0.00  0.00    +0.028 C 
BRANCH  15  16
ATOM     16  C   UNL     1      -1.573   3.590  -3.685  0.00  0.00    -0.024 A 
ATOM     17  C   UNL     1      -2.798   2.952  -3.879  0.00  0.00    +0.008 A 
ATOM     18  C   UNL     1      -3.611   3.330  -4.927  0.00  0.00    +0.001 A 
ATOM     19  C   UNL     1      -3.208   4.331  -5.793  0.00  0.00    +0.000 A 
ATOM     20  C   UNL     1      -1.992   4.964  -5.610  0.00  0.00    +0.001 A 
ATOM     21  C   UNL     1      -1.172   4.599  -4.562  0.00  0.00    +0.008 A 
ENDBRANCH  15  16
ENDBRANCH  11  14
ENDBRANCH   8  11
ENDBRANCH   2   5
BRANCH   1  22
ATOM     22  C   UNL     1      -5.655   5.569   3.795  0.00  0.00    +0.093 C 
BRANCH  22  23
ATOM     23  C   UNL     1      -5.484   6.809   4.675  0.00  0.00    -0.017 C 
BRANCH  23  29
ATOM     24  C   UNL     1      -5.341   8.720   3.057  0.00  0.00    +0.122 A 
ATOM     25  C   UNL     1      -4.611   9.678   2.369  0.00  0.00    +0.046 A 
ATOM     26  C   UNL     1      -3.245   9.766   2.550  0.00  0.00    +0.004 A 
ATOM     27  C   UNL     1      -2.603   8.900   3.416  0.00  0.00    +0.000 A 
ATOM     28  C   UNL     1      -3.329   7.947   4.107  0.00  0.00    +0.005 A 
ATOM     29  C   UNL     1      -4.695   7.851   3.925  0.00  0.00    -0.018 A 
BRANCH  24  31
ATOM     30  C   UNL     1      -7.283   9.557   1.972  0.00  0.00    +0.277 C 
ATOM     31  O   UNL     1      -6.685   8.631   2.881  0.00  0.00    -0.495 OA
ENDBRANCH  24  31
ENDBRANCH  23  29
BRANCH  23  36
ATOM     32  C   UNL     1      -4.628   7.613   6.808  0.00  0.00    -0.078 C 
ATOM     33  C   UNL     1      -4.362   6.964   8.189  0.00  0.00    -0.020 C 
ATOM     34  C   UNL     1      -5.269   5.713   8.165  0.00  0.00    -0.020 C 
ATOM     35  C   UNL     1      -5.520   5.427   6.673  0.00  0.00    -0.078 C 
ATOM     36  N   UNL     1      -4.766   6.439   5.931  0.00  0.00    +0.385 N 
ATOM     37  H   UNL     1      -3.837   6.074   5.693  0.00  0.00    -0.081 HD
ENDBRANCH  23  36
ENDBRANCH  22  23
ENDBRANCH   1  22
TORSDOF 9
