REMARK  Name = ZINC06246462
REMARK  6 active torsions:
REMARK  status: ('A' for Active; 'I' for Inactive)
REMARK    1  A    between atoms: C_1  and  C_2
REMARK    2  A    between atoms: C_5  and  C_8
REMARK    3  A    between atoms: C_10  and  C_29
REMARK    4  A    between atoms: C_12  and  N_28
REMARK    5  A    between atoms: C_13  and  C_17
REMARK    6  A    between atoms: C_20  and  C_22
REMARK                            x       y       z     vdW  Elec       q    Type
REMARK                         _______ _______ _______ _____ _____    ______ ____
ROOT
ATOM      1  C   UNL     1       2.675   0.638  -1.466  0.00  0.00    +0.073 A 
ATOM      2  C   UNL     1       3.884   1.327  -1.571  0.00  0.00    +0.037 A 
ATOM      3  C   UNL     1       5.038   0.793  -1.022  0.00  0.00    -0.004 A 
ATOM      4  C   UNL     1       4.965  -0.468  -0.354  0.00  0.00    +0.037 A 
ATOM      5  C   UNL     1       6.031  -1.213   0.289  0.00  0.00    +0.054 A 
ATOM      6  C   UNL     1       5.726  -2.420   0.875  0.00  0.00    +0.099 A 
ATOM      7  S   UNL     1       3.977  -2.592   0.578  0.00  0.00    -0.062 S 
ATOM      8  C   UNL     1       3.691  -1.079  -0.307  0.00  0.00    +0.112 A 
ATOM      9  N   UNL     1       2.622  -0.531  -0.838  0.00  0.00    -0.239 NA
ENDROOT
BRANCH   1  14
ATOM     10  C   UNL     1      -2.109   2.885  -3.750  0.00  0.00    +0.044 C 
ATOM     11  C   UNL     1      -0.857   2.297  -3.152  0.00  0.00    -0.050 A 
ATOM     12  C   UNL     1      -0.910   1.073  -2.508  0.00  0.00    +0.004 A 
ATOM     13  C   UNL     1       0.233   0.533  -1.954  0.00  0.00    +0.010 A 
ATOM     14  C   UNL     1       1.444   1.216  -2.055  0.00  0.00    +0.000 A 
ATOM     15  C   UNL     1       1.492   2.446  -2.710  0.00  0.00    +0.010 A 
ATOM     16  C   UNL     1       0.342   2.979  -3.256  0.00  0.00    +0.004 A 
ENDBRANCH   1  14
BRANCH   3  17
ATOM     17  C   UNL     1       6.327   1.517  -1.127  0.00  0.00    -0.017 A 
ATOM     18  C   UNL     1       6.443   2.814  -0.628  0.00  0.00    +0.008 A 
ATOM     19  C   UNL     1       7.647   3.482  -0.723  0.00  0.00    +0.001 A 
ATOM     20  C   UNL     1       8.734   2.870  -1.322  0.00  0.00    +0.000 A 
ATOM     21  C   UNL     1       8.623   1.586  -1.823  0.00  0.00    +0.001 A 
ATOM     22  C   UNL     1       7.426   0.906  -1.729  0.00  0.00    +0.008 A 
ENDBRANCH   3  17
BRANCH   6  23
ATOM     23  C   UNL     1       6.622  -3.342   1.577  0.00  0.00    +0.257 A 
ATOM     24  N   UNL     1       7.915  -3.174   1.776  0.00  0.00    -0.106 NA
ATOM     25  N   UNL     1       8.380  -4.181   2.427  0.00  0.00    -0.107 NA
ATOM     26  C   UNL     1       7.410  -5.032   2.670  0.00  0.00    +0.249 A 
ATOM     27  O   UNL     1       6.277  -4.518   2.144  0.00  0.00    -0.415 OA
BRANCH  26  28
ATOM     28  C   UNL     1       7.533  -6.314   3.393  0.00  0.00    +0.038 A 
ATOM     29  C   UNL     1       6.409  -7.121   3.586  0.00  0.00    +0.013 A 
ATOM     30  C   UNL     1       6.532  -8.319   4.258  0.00  0.00    +0.001 A 
ATOM     31  C   UNL     1       7.763  -8.717   4.750  0.00  0.00    +0.000 A 
ATOM     32  C   UNL     1       8.879  -7.920   4.567  0.00  0.00    +0.001 A 
ATOM     33  C   UNL     1       8.771  -6.722   3.892  0.00  0.00    +0.013 A 
ENDBRANCH  26  28
ENDBRANCH   6  23
BRANCH   5  34
ATOM     34  N   UNL     1       7.337  -0.718   0.311  0.00  0.00    -0.356 N 
ATOM     35  H   UNL     1       7.493   0.239   0.291  0.00  0.00    +0.142 HD
ATOM     36  H   UNL     1       8.088  -1.331   0.348  0.00  0.00    +0.142 HD
ENDBRANCH   5  34
TORSDOF 5
