REMARK  Name = ZINC18144265
REMARK  7 active torsions:
REMARK  status: ('A' for Active; 'I' for Inactive)
REMARK    1  A    between atoms: C_1  and  C_2
REMARK    2  A    between atoms: C_3  and  N_9
REMARK    3  A    between atoms: C_14  and  C_28
REMARK    4  A    between atoms: N_16  and  C_22
REMARK    5  A    between atoms: C_32  and  O_35
REMARK    6  A    between atoms: C_33  and  O_34
REMARK    7  A    between atoms: O_35  and  C_36
REMARK                            x       y       z     vdW  Elec       q    Type
REMARK                         _______ _______ _______ _____ _____    ______ ____
ROOT
ATOM      1  N   UNL     1      -0.010   0.013  -2.415  0.00  0.00    -0.208 N 
ATOM      2  C   UNL     1       1.123   0.407  -3.080  0.00  0.00    +0.235 C 
ATOM      3  O   UNL     1       2.262   0.045  -2.878  0.00  0.00    -0.274 OA
ATOM      4  C   UNL     1       0.662   1.347  -4.074  0.00  0.00    +0.146 C 
ATOM      5  C   UNL     1       1.086   1.928  -5.357  0.00  0.00    +0.161 C 
ATOM      6  N   UNL     1      -0.217   2.352  -5.962  0.00  0.00    -0.244 N 
ATOM      7  O   UNL     1      -1.271   1.931  -5.066  0.00  0.00    -0.257 OA
ATOM      8  C   UNL     1      -0.743   0.735  -4.465  0.00  0.00    +0.249 C 
ATOM      9  C   UNL     1      -1.155   0.377  -3.063  0.00  0.00    +0.259 C 
ATOM     10  O   UNL     1      -2.277   0.408  -2.603  0.00  0.00    -0.272 OA
ENDROOT
BRANCH   1  13
ATOM     11  C   UNL     1      -0.018   1.503   0.010  0.00  0.00    +0.047 C 
ATOM     12  C   UNL     1       0.002  -0.004   0.002  0.00  0.00    -0.010 A 
ATOM     13  C   UNL     1       0.006  -0.692  -1.204  0.00  0.00    +0.048 A 
ATOM     14  C   UNL     1       0.025  -2.080  -1.207  0.00  0.00    +0.024 A 
ATOM     15  C   UNL     1       0.041  -2.773  -0.012  0.00  0.00    +0.003 A 
ATOM     16  C   UNL     1       0.036  -2.086   1.187  0.00  0.00    +0.020 A 
ATOM     17  C   UNL     1       0.023  -0.702   1.195  0.00  0.00    +0.046 A 
ATOM     18 CL   UNL     1       0.025   0.157   2.703  0.00  0.00    -0.083 Cl
ENDBRANCH   1  13
BRANCH   6  19
ATOM     19  C   UNL     1      -0.385   3.030  -7.171  0.00  0.00    +0.065 A 
ATOM     20  C   UNL     1       0.723   3.370  -7.938  0.00  0.00    +0.028 A 
ATOM     21  C   UNL     1       0.554   4.040  -9.133  0.00  0.00    +0.002 A 
ATOM     22  C   UNL     1      -0.716   4.374  -9.567  0.00  0.00    +0.000 A 
ATOM     23  C   UNL     1      -1.821   4.037  -8.806  0.00  0.00    +0.002 A 
ATOM     24  C   UNL     1      -1.659   3.362  -7.613  0.00  0.00    +0.028 A 
ENDBRANCH   6  19
BRANCH   5  25
ATOM     25  C   UNL     1       1.990   3.113  -5.136  0.00  0.00    +0.023 A 
ATOM     26  C   UNL     1       1.463   4.391  -5.120  0.00  0.00    +0.009 A 
ATOM     27  C   UNL     1       2.289   5.481  -4.918  0.00  0.00    +0.004 A 
ATOM     28  C   UNL     1       3.647   5.298  -4.732  0.00  0.00    +0.049 A 
ATOM     29  C   UNL     1       4.182   4.020  -4.747  0.00  0.00    +0.162 A 
ATOM     30  C   UNL     1       3.349   2.922  -4.945  0.00  0.00    +0.164 A 
BRANCH  30  31
ATOM     31  O   UNL     1       3.868   1.666  -4.955  0.00  0.00    -0.503 OA
ATOM     32  H   UNL     1       4.150   1.364  -5.830  0.00  0.00    +0.292 HD
ENDBRANCH  30  31
BRANCH  29  33
ATOM     33  O   UNL     1       5.517   3.838  -4.564  0.00  0.00    -0.491 OA
ATOM     34  C   UNL     1       6.310   5.010  -4.362  0.00  0.00    +0.277 C 
ENDBRANCH  29  33
ENDBRANCH   5  25
TORSDOF 5
