REMARK  Name = ZINC38901602
REMARK  10 active torsions:
REMARK  status: ('A' for Active; 'I' for Inactive)
REMARK    1  A    between atoms: C_3  and  C_8
REMARK    2  A    between atoms: C_8  and  S_9
REMARK    3  A    between atoms: S_9  and  C_10
REMARK    4  A    between atoms: C_10  and  C_11
REMARK    5  A    between atoms: C_11  and  C_12
REMARK    6  A    between atoms: C_12  and  N_13
REMARK    7  A    between atoms: C_14  and  C_16
REMARK    8  A    between atoms: N_21  and  C_23
REMARK    9  A    between atoms: C_23  and  C_24
REMARK   10  A    between atoms: C_26  and  C_29
REMARK                            x       y       z     vdW  Elec       q    Type
REMARK                         _______ _______ _______ _____ _____    ______ ____
ROOT
ATOM      1  C   UNL     1       9.886   5.830   5.532  0.00  0.00    +0.058 C 
ATOM      2  C   UNL     1       8.877   6.677   6.313  0.00  0.00    +0.009 C 
ATOM      3  C   UNL     1       9.486   7.060   7.665  0.00  0.00    -0.018 C 
ATOM      4  C   UNL     1      10.805   7.799   7.433  0.00  0.00    -0.078 C 
ATOM      5  N   UNL     1      11.736   6.928   6.705  0.00  0.00    +0.386 N 
ATOM      6  C   UNL     1      11.191   6.614   5.378  0.00  0.00    -0.065 C 
ATOM      7  H   UNL     1      11.870   6.073   7.223  0.00  0.00    -0.081 HD
ENDROOT
BRANCH   1   9
ATOM      8  N   UNL     1       8.173   4.825   4.057  0.00  0.00    -0.315 N 
ATOM      9  C   UNL     1       9.327   5.512   4.169  0.00  0.00    +0.214 C 
ATOM     10  O   UNL     1       9.916   5.874   3.172  0.00  0.00    -0.276 OA
ATOM     11  H   UNL     1       7.702   4.535   4.854  0.00  0.00    +0.149 HD
BRANCH   8  12
ATOM     12  C   UNL     1       7.630   4.515   2.732  0.00  0.00    +0.105 C 
BRANCH  12  13
ATOM     13  C   UNL     1       6.324   3.734   2.887  0.00  0.00    +0.029 C 
BRANCH  13  14
ATOM     14  C   UNL     1       5.756   3.411   1.503  0.00  0.00    +0.071 C 
BRANCH  14  15
ATOM     15  S   UNL     1       4.207   2.485   1.686  0.00  0.00    -0.156 S 
BRANCH  15  16
ATOM     16  C   UNL     1       3.672   2.184  -0.021  0.00  0.00    +0.104 C 
BRANCH  16  19
ATOM     17  C   UNL     1      -0.017   1.378   0.010  0.00  0.00    +0.002 A 
ATOM     18  C   UNL     1       1.171   2.086   0.002  0.00  0.00    +0.004 A 
ATOM     19  C   UNL     1       2.378   1.412  -0.013  0.00  0.00    -0.036 A 
ATOM     20  C   UNL     1       2.398   0.029  -0.021  0.00  0.00    +0.024 A 
ATOM     21  C   UNL     1       1.210  -0.679  -0.013  0.00  0.00    +0.041 A 
ATOM     22  C   UNL     1       0.002  -0.004   0.002  0.00  0.00    +0.020 A 
ATOM     23 CL   UNL     1       1.234  -2.415  -0.024  0.00  0.00    -0.084 Cl
ENDBRANCH  16  19
ENDBRANCH  15  16
ENDBRANCH  14  15
ENDBRANCH  13  14
ENDBRANCH  12  13
ENDBRANCH   8  12
ENDBRANCH   1   9
BRANCH   5  24
ATOM     24  C   UNL     1      13.027   7.612   6.553  0.00  0.00    +0.022 C 
BRANCH  24  25
ATOM     25  C   UNL     1      13.650   7.817   7.909  0.00  0.00    +0.211 A 
ATOM     26  N   UNL     1      14.455   6.988   8.510  0.00  0.00    -0.193 NA
ATOM     27  C   UNL     1      14.821   7.486   9.705  0.00  0.00    +0.202 A 
ATOM     28  N   UNL     1      14.242   8.649   9.869  0.00  0.00    -0.056 NA
ATOM     29  O   UNL     1      13.474   8.885   8.698  0.00  0.00    -0.340 OA
BRANCH  27  30
ATOM     30  C   UNL     1      15.729   6.827  10.676  0.00  0.00    +0.023 A 
ATOM     31  C   UNL     1      16.288   5.585  10.378  0.00  0.00    +0.014 A 
ATOM     32  C   UNL     1      17.132   4.976  11.283  0.00  0.00    +0.039 A 
ATOM     33  C   UNL     1      17.426   5.597  12.487  0.00  0.00    +0.123 A 
ATOM     34  C   UNL     1      16.872   6.831  12.787  0.00  0.00    +0.039 A 
ATOM     35  C   UNL     1      16.031   7.450  11.885  0.00  0.00    +0.014 A 
ATOM     36  F   UNL     1      18.253   4.997  13.370  0.00  0.00    -0.205 F 
ENDBRANCH  27  30
ENDBRANCH  24  25
ENDBRANCH   5  24
TORSDOF 10
