REMARK  Name = ZINC24790255
REMARK  12 active torsions:
REMARK  status: ('A' for Active; 'I' for Inactive)
REMARK    1  A    between atoms: C_1  and  C_2
REMARK    2  A    between atoms: C_2  and  O_3
REMARK    3  A    between atoms: O_3  and  C_4
REMARK    4  A    between atoms: C_4  and  C_6
REMARK    5  A    between atoms: C_7  and  C_34
REMARK    6  A    between atoms: C_9  and  N_11
REMARK    7  A    between atoms: C_12  and  C_14
REMARK    8  A    between atoms: C_14  and  S_15
REMARK    9  A    between atoms: S_15  and  C_16
REMARK   10  A    between atoms: C_19  and  C_28
REMARK   11  A    between atoms: N_20  and  C_21
REMARK   12  A    between atoms: C_24  and  C_27
REMARK                            x       y       z     vdW  Elec       q    Type
REMARK                         _______ _______ _______ _____ _____    ______ ____
ROOT
ATOM      1  C   UNL     1      -7.657   1.974   0.048  0.00  0.00    +0.197 A 
ATOM      2  N   UNL     1      -7.776   0.663   0.042  0.00  0.00    -0.122 NA
ATOM      3  N   UNL     1      -9.017   0.332   0.046  0.00  0.00    -0.128 NA
ATOM      4  C   UNL     1      -9.769   1.409   0.054  0.00  0.00    +0.169 A 
ATOM      5  N   UNL     1      -8.920   2.495   0.062  0.00  0.00    -0.270 N 
ENDROOT
BRANCH   5   6
ATOM      6  C   UNL     1      -9.278   3.850   0.078  0.00  0.00    +0.051 A 
ATOM      7  C   UNL     1      -9.943   4.381   1.175  0.00  0.00    +0.026 A 
ATOM      8  C   UNL     1     -10.289   5.718   1.190  0.00  0.00    +0.005 A 
ATOM      9  C   UNL     1      -9.984   6.525   0.110  0.00  0.00    -0.050 A 
ATOM     10  C   UNL     1      -9.326   5.997  -0.987  0.00  0.00    +0.005 A 
ATOM     11  C   UNL     1      -8.973   4.662  -1.005  0.00  0.00    +0.026 A 
ATOM     12  C   UNL     1     -10.368   7.982   0.127  0.00  0.00    +0.044 C 
ENDBRANCH   5   6
BRANCH   4  13
ATOM     13  C   UNL     1     -11.246   1.448   0.062  0.00  0.00    +0.022 A 
ATOM     14  C   UNL     1     -11.936   2.631  -0.234  0.00  0.00    +0.031 A 
ATOM     15  C   UNL     1     -13.315   2.621  -0.221  0.00  0.00    +0.111 A 
ATOM     16  N   UNL     1     -13.982   1.522   0.075  0.00  0.00    -0.263 NA
ATOM     17  C   UNL     1     -13.372   0.388   0.365  0.00  0.00    +0.111 A 
ATOM     18  C   UNL     1     -11.995   0.306   0.370  0.00  0.00    +0.031 A 
ENDBRANCH   4  13
BRANCH   1  19
ATOM     19  S   UNL     1      -6.149   2.886   0.046  0.00  0.00    -0.076 S 
BRANCH  19  20
ATOM     20  C   UNL     1      -4.957   1.524   0.033  0.00  0.00    +0.173 C 
BRANCH  20  22
ATOM     21  N   UNL     1      -2.499   1.248   0.020  0.00  0.00    -0.279 N 
ATOM     22  C   UNL     1      -3.557   2.082   0.030  0.00  0.00    +0.228 C 
ATOM     23  O   UNL     1      -3.383   3.283   0.036  0.00  0.00    -0.275 OA
ATOM     24  H   UNL     1      -2.657   0.159   0.015  0.00  0.00    +0.155 HD
BRANCH  21  28
ATOM     25  C   UNL     1       1.056   3.174   0.009  0.00  0.00    +0.101 A 
ATOM     26  C   UNL     1       1.155   1.788   0.001  0.00  0.00    -0.028 A 
ATOM     27  C   UNL     1      -0.013   1.076   0.008  0.00  0.00    +0.035 A 
ATOM     28  C   UNL     1      -1.209   1.762   0.017  0.00  0.00    +0.073 A 
ATOM     29  S   UNL     1      -0.710   3.422   0.026  0.00  0.00    -0.067 S 
ATOM     30  C   UNL     1       2.495   1.098  -0.015  0.00  0.00    +0.045 C 
BRANCH  25  31
ATOM     31  C   UNL     1       2.091   4.141   0.003  0.00  0.00    +0.346 C 
ATOM     32  O   UNL     1       3.255   3.786  -0.010  0.00  0.00    -0.244 OA
BRANCH  31  33
ATOM     33  O   UNL     1       1.786   5.455   0.013  0.00  0.00    -0.461 OA
BRANCH  33  35
ATOM     34  C   UNL     1       2.343   7.807   0.019  0.00  0.00    +0.048 C 
ATOM     35  C   UNL     1       2.880   6.375   0.007  0.00  0.00    +0.229 C 
ENDBRANCH  33  35
ENDBRANCH  31  33
ENDBRANCH  25  31
ENDBRANCH  21  28
ENDBRANCH  20  22
ENDBRANCH  19  20
ENDBRANCH   1  19
TORSDOF 9
