REMARK  Name = ZINC58367570
REMARK  9 active torsions:
REMARK  status: ('A' for Active; 'I' for Inactive)
REMARK    1  A    between atoms: C_1  and  C_2
REMARK    2  A    between atoms: C_2  and  C_26
REMARK    3  A    between atoms: C_5  and  N_13
REMARK    4  A    between atoms: C_14  and  C_16
REMARK    5  A    between atoms: C_16  and  C_18
REMARK    6  A    between atoms: C_16  and  N_22
REMARK    7  A    between atoms: C_18  and  C_19
REMARK    8  A    between atoms: C_19  and  S_20
REMARK    9  A    between atoms: S_20  and  C_21
REMARK                            x       y       z     vdW  Elec       q    Type
REMARK                         _______ _______ _______ _____ _____    ______ ____
ROOT
ATOM      1  N   UNL     1      -0.731  -3.756   1.804  0.00  0.00    -0.307 N 
ATOM      2  C   UNL     1      -0.842  -4.321   3.023  0.00  0.00    +0.234 C 
ATOM      3  O   UNL     1      -1.142  -3.641   3.982  0.00  0.00    -0.274 OA
ATOM      4  H   UNL     1      -0.491  -4.300   1.038  0.00  0.00    +0.149 HD
ENDROOT
BRANCH   1   9
ATOM      5  C   UNL     1      -0.019   1.526   0.010  0.00  0.00    +0.016 C 
ATOM      6  C   UNL     1       0.002  -0.004   0.002  0.00  0.00    -0.009 C 
ATOM      7  C   UNL     1      -1.433  -0.527  -0.015  0.00  0.00    +0.013 C 
ATOM      8  C   UNL     1      -1.397  -2.045   0.197  0.00  0.00    +0.028 C 
ATOM      9  C   UNL     1      -0.972  -2.321   1.638  0.00  0.00    +0.104 C 
ATOM     10  C   UNL     1       0.286  -1.564   1.973  0.00  0.00    -0.024 A 
ATOM     11  C   UNL     1       0.732  -0.498   1.224  0.00  0.00    -0.037 A 
ATOM     12  C   UNL     1       1.897   0.162   1.592  0.00  0.00    +0.004 A 
ATOM     13  C   UNL     1       2.614  -0.245   2.698  0.00  0.00    +0.000 A 
ATOM     14  C   UNL     1       2.169  -1.318   3.448  0.00  0.00    +0.000 A 
ATOM     15  C   UNL     1       1.010  -1.973   3.085  0.00  0.00    +0.006 A 
ATOM     16  C   UNL     1       0.731  -0.492  -1.252  0.00  0.00    +0.016 C 
ENDBRANCH   1   9
BRANCH   2  17
ATOM     17  C   UNL     1      -0.594  -5.798   3.194  0.00  0.00    +0.161 C 
BRANCH  17  18
ATOM     18  N   UNL     1      -0.303  -6.084   4.601  0.00  0.00    -0.288 N 
ATOM     19  C   UNL     1      -1.215  -5.795   5.550  0.00  0.00    +0.298 C 
ATOM     20  O   UNL     1      -2.280  -5.296   5.239  0.00  0.00    -0.253 OA
ATOM     21  N   UNL     1      -0.948  -6.058   6.845  0.00  0.00    -0.313 N 
ATOM     22  H   UNL     1       0.546  -6.481   4.850  0.00  0.00    +0.151 HD
ATOM     23  H   UNL     1      -0.098  -6.455   7.093  0.00  0.00    +0.146 HD
ATOM     24  H   UNL     1      -1.604  -5.850   7.528  0.00  0.00    +0.146 HD
ENDBRANCH  17  18
BRANCH  17  25
ATOM     25  C   UNL     1      -1.837  -6.577   2.762  0.00  0.00    +0.042 C 
BRANCH  25  26
ATOM     26  C   UNL     1      -1.543  -8.078   2.817  0.00  0.00    +0.071 C 
BRANCH  26  27
ATOM     27  S   UNL     1      -3.017  -9.002   2.304  0.00  0.00    -0.164 S 
ATOM     28  C   UNL     1      -2.509 -10.740   2.424  0.00  0.00    +0.084 C 
ENDBRANCH  26  27
ENDBRANCH  25  26
ENDBRANCH  17  25
ENDBRANCH   2  17
TORSDOF 6
