REMARK  Name = ZINC35725352
REMARK  9 active torsions:
REMARK  status: ('A' for Active; 'I' for Inactive)
REMARK    1  A    between atoms: C_1  and  C_2
REMARK    2  A    between atoms: C_2  and  C_3
REMARK    3  A    between atoms: C_3  and  C_5
REMARK    4  A    between atoms: C_3  and  C_6
REMARK    5  A    between atoms: C_6  and  C_8
REMARK    6  A    between atoms: C_6  and  N_22
REMARK    7  A    between atoms: C_14  and  C_16
REMARK    8  A    between atoms: N_22  and  S_23
REMARK    9  A    between atoms: S_23  and  C_26
REMARK                            x       y       z     vdW  Elec       q    Type
REMARK                         _______ _______ _______ _____ _____    ______ ____
ROOT
ATOM      1  C   UNL     1       0.368  -1.906  -1.594  0.00  0.00    +0.165 C 
ENDROOT
BRANCH   1   2
ATOM      2  C   UNL     1      -0.938  -2.466  -2.096  0.00  0.00    +0.238 C 
ATOM      3  O   UNL     1      -1.504  -3.338  -1.472  0.00  0.00    -0.274 OA
ATOM      4  N   UNL     1      -1.477  -1.998  -3.240  0.00  0.00    -0.262 N 
ATOM      5  C   UNL     1      -2.680  -2.514  -3.703  0.00  0.00    +0.188 A 
ATOM      6  N   UNL     1      -3.443  -3.450  -3.170  0.00  0.00    -0.125 NA
ATOM      7  N   UNL     1      -4.524  -3.821  -3.711  0.00  0.00    -0.140 NA
ATOM      8  C   UNL     1      -4.899  -3.249  -4.848  0.00  0.00    +0.134 A 
ATOM      9  S   UNL     1      -3.549  -2.103  -5.088  0.00  0.00    -0.030 S 
ATOM     10  H   UNL     1      -1.024  -1.301  -3.739  0.00  0.00    +0.157 HD
BRANCH   8  11
ATOM     11  C   UNL     1      -6.098  -3.490  -5.679  0.00  0.00    +0.009 A 
ATOM     12  C   UNL     1      -6.290  -2.767  -6.858  0.00  0.00    +0.010 A 
ATOM     13  C   UNL     1      -7.411  -2.997  -7.629  0.00  0.00    +0.001 A 
ATOM     14  C   UNL     1      -8.343  -3.940  -7.236  0.00  0.00    +0.000 A 
ATOM     15  C   UNL     1      -8.159  -4.660  -6.069  0.00  0.00    +0.001 A 
ATOM     16  C   UNL     1      -7.039  -4.445  -5.292  0.00  0.00    +0.010 A 
ENDBRANCH   8  11
ENDBRANCH   1   2
BRANCH   1  17
ATOM     17  C   UNL     1       0.216  -0.404  -1.343  0.00  0.00    +0.013 C 
ATOM     18  C   UNL     1       1.571   0.186  -0.947  0.00  0.00    +0.009 C 
BRANCH  17  20
ATOM     19  C   UNL     1      -1.036   1.326  -0.047  0.00  0.00    +0.004 C 
ATOM     20  C   UNL     1      -0.791  -0.175  -0.214  0.00  0.00    +0.002 C 
ENDBRANCH  17  20
ENDBRANCH   1  17
BRANCH   1  21
ATOM     21  N   UNL     1       0.737  -2.575  -0.344  0.00  0.00    -0.178 NA
ATOM     22  H   UNL     1       0.142  -2.535   0.421  0.00  0.00    +0.149 HD
BRANCH  21  23
ATOM     23  S   UNL     1       2.170  -3.397  -0.237  0.00  0.00    +0.060 S 
ATOM     24  O   UNL     1       3.180  -2.517  -0.710  0.00  0.00    -0.153 OA
ATOM     25  O   UNL     1       2.211  -3.976   1.060  0.00  0.00    -0.153 OA
BRANCH  23  26
ATOM     26  C   UNL     1       2.090  -4.734  -1.383  0.00  0.00    +0.113 A 
ATOM     27  C   UNL     1       2.931  -4.769  -2.452  0.00  0.00    +0.029 A 
ATOM     28  C   UNL     1       2.882  -5.818  -3.369  0.00  0.00    +0.003 A 
ATOM     29  C   UNL     1       1.992  -6.837  -3.221  0.00  0.00    +0.008 A 
ATOM     30  C   UNL     1       1.108  -6.835  -2.129  0.00  0.00    -0.016 A 
ATOM     31  C   UNL     1       1.161  -5.771  -1.194  0.00  0.00    +0.008 A 
ATOM     32  C   UNL     1       0.281  -5.772  -0.098  0.00  0.00    +0.010 A 
ATOM     33  C   UNL     1      -0.605  -6.794   0.052  0.00  0.00    +0.001 A 
ATOM     34  C   UNL     1      -0.654  -7.843  -0.864  0.00  0.00    +0.001 A 
ATOM     35  C   UNL     1       0.174  -7.869  -1.944  0.00  0.00    +0.008 A 
ENDBRANCH  23  26
ENDBRANCH  21  23
ENDBRANCH   1  21
TORSDOF 7
