REMARK  Name = ZINC38671075
REMARK  15 active torsions:
REMARK  status: ('A' for Active; 'I' for Inactive)
REMARK    1  A    between atoms: C_1  and  C_2
REMARK    2  A    between atoms: C_2  and  O_3
REMARK    3  A    between atoms: O_3  and  C_4
REMARK    4  A    between atoms: C_6  and  C_16
REMARK    5  A    between atoms: C_8  and  O_13
REMARK    6  A    between atoms: C_9  and  O_10
REMARK    7  A    between atoms: O_10  and  C_11
REMARK    8  A    between atoms: C_11  and  C_12
REMARK    9  A    between atoms: O_13  and  C_14
REMARK   10  A    between atoms: C_14  and  C_15
REMARK   11  A    between atoms: N_18  and  C_19
REMARK   12  A    between atoms: C_19  and  C_20
REMARK   13  A    between atoms: C_20  and  C_22
REMARK   14  A    between atoms: C_20  and  N_33
REMARK   15  A    between atoms: N_31  and  C_32
REMARK                            x       y       z     vdW  Elec       q    Type
REMARK                         _______ _______ _______ _____ _____    ______ ____
ROOT
ATOM      1  C   UNL     1      -0.424  -7.535   0.961  0.00  0.00    +0.094 C 
ENDROOT
BRANCH   1   4
ATOM      2  C   UNL     1      -2.186  -5.930   1.467  0.00  0.00    +0.244 C 
ATOM      3  O   UNL     1      -1.325  -5.116   1.740  0.00  0.00    -0.270 OA
ATOM      4  N   UNL     1      -1.838  -7.169   1.066  0.00  0.00    -0.313 N 
ATOM      5  H   UNL     1      -2.525  -7.819   0.848  0.00  0.00    +0.149 HD
BRANCH   2   8
ATOM      6  C   UNL     1      -5.309  -3.935   2.087  0.00  0.00    +0.166 A 
ATOM      7  C   UNL     1      -3.973  -4.278   1.988  0.00  0.00    +0.062 A 
ATOM      8  C   UNL     1      -3.611  -5.562   1.573  0.00  0.00    +0.044 A 
ATOM      9  C   UNL     1      -4.601  -6.496   1.259  0.00  0.00    +0.062 A 
ATOM     10  C   UNL     1      -5.935  -6.149   1.359  0.00  0.00    +0.166 A 
ATOM     11  C   UNL     1      -6.293  -4.870   1.778  0.00  0.00    +0.204 A 
BRANCH   6  12
ATOM     12  O   UNL     1      -5.661  -2.685   2.491  0.00  0.00    -0.488 OA
BRANCH  12  14
ATOM     13  C   UNL     1      -5.187  -0.432   3.225  0.00  0.00    +0.048 C 
ATOM     14  C   UNL     1      -4.600  -1.777   2.791  0.00  0.00    +0.226 C 
ENDBRANCH  12  14
ENDBRANCH   6  12
BRANCH  11  15
ATOM     15  O   UNL     1      -7.605  -4.532   1.881  0.00  0.00    -0.485 OA
BRANCH  15  16
ATOM     16  C   UNL     1      -8.225  -3.978   0.719  0.00  0.00    +0.226 C 
ATOM     17  C   UNL     1      -9.691  -3.663   1.024  0.00  0.00    +0.048 C 
ENDBRANCH  15  16
ENDBRANCH  11  15
BRANCH  10  18
ATOM     18  O   UNL     1      -6.899  -7.058   1.053  0.00  0.00    -0.488 OA
BRANCH  18  19
ATOM     19  C   UNL     1      -6.461  -8.352   0.635  0.00  0.00    +0.226 C 
ATOM     20  C   UNL     1      -7.677  -9.231   0.336  0.00  0.00    +0.048 C 
ENDBRANCH  18  19
ENDBRANCH  10  18
ENDBRANCH   2   8
ENDBRANCH   1   4
BRANCH   1  21
ATOM     21  C   UNL     1      -0.306  -8.998   0.529  0.00  0.00    -0.020 C 
BRANCH  21  22
ATOM     22  C   UNL     1      -0.890  -9.886   1.597  0.00  0.00    -0.059 A 
ATOM     23  C   UNL     1      -0.148 -10.188   2.725  0.00  0.00    +0.004 A 
ATOM     24  C   UNL     1      -0.683 -11.003   3.703  0.00  0.00    +0.023 A 
ATOM     25  C   UNL     1      -1.967 -11.517   3.554  0.00  0.00    +0.033 A 
ATOM     26  C   UNL     1      -2.711 -11.211   2.426  0.00  0.00    -0.026 A 
ATOM     27  C   UNL     1      -2.168 -10.390   1.451  0.00  0.00    +0.007 A 
ATOM     28  C   UNL     1      -4.108 -11.741   2.237  0.00  0.00    +0.038 C 
ATOM     29  C   UNL     1      -4.336 -12.973   3.112  0.00  0.00    +0.024 C 
ATOM     30  C   UNL     1      -3.928 -12.641   4.553  0.00  0.00    +0.105 C 
ATOM     31  N   UNL     1      -2.489 -12.344   4.555  0.00  0.00    -0.333 N 
ATOM     32  C   UNL     1      -1.614 -12.906   5.588  0.00  0.00    +0.129 C 
ENDBRANCH  21  22
BRANCH  21  33
ATOM     33  N   UNL     1       1.109  -9.338   0.330  0.00  0.00    +0.385 N 
ATOM     34  C   UNL     1       1.659  -8.519  -0.757  0.00  0.00    -0.078 C 
ATOM     35  C   UNL     1       3.153  -8.811  -0.914  0.00  0.00    -0.019 C 
ATOM     36  C   UNL     1       3.346 -10.294  -1.242  0.00  0.00    -0.004 C 
ATOM     37  C   UNL     1       2.704 -11.139  -0.138  0.00  0.00    -0.019 C 
ATOM     38  C   UNL     1       1.226 -10.761  -0.010  0.00  0.00    -0.078 C 
ATOM     39  H   UNL     1       1.621  -9.153   1.180  0.00  0.00    -0.081 HD
ENDBRANCH  21  33
ENDBRANCH   1  21
TORSDOF 11
