REMARK  Name = ZINC09973162
REMARK  12 active torsions:
REMARK  status: ('A' for Active; 'I' for Inactive)
REMARK    1  A    between atoms: C_1  and  C_2
REMARK    2  A    between atoms: C_5  and  N_9
REMARK    3  A    between atoms: C_6  and  C_8
REMARK    4  A    between atoms: C_15  and  C_16
REMARK    5  A    between atoms: C_19  and  O_24
REMARK    6  A    between atoms: C_20  and  O_22
REMARK    7  A    between atoms: O_22  and  C_23
REMARK    8  A    between atoms: O_24  and  C_25
REMARK    9  A    between atoms: C_25  and  C_26
REMARK   10  A    between atoms: C_29  and  C_31
REMARK   11  A    between atoms: C_31  and  O_33
REMARK   12  A    between atoms: O_33  and  C_34
REMARK                            x       y       z     vdW  Elec       q    Type
REMARK                         _______ _______ _______ _____ _____    ______ ____
ROOT
ATOM      1  C   UNL     1      -0.452   5.188   0.546  0.00  0.00    -0.020 A 
ATOM      2  C   UNL     1      -1.317   5.671   1.536  0.00  0.00    +0.012 A 
ATOM      3  C   UNL     1      -1.825   4.811   2.485  0.00  0.00    +0.050 A 
ATOM      4  C   UNL     1      -1.482   3.466   2.463  0.00  0.00    +0.163 A 
ATOM      5  C   UNL     1      -0.621   2.977   1.481  0.00  0.00    +0.162 A 
ATOM      6  C   UNL     1      -0.103   3.832   0.529  0.00  0.00    +0.057 A 
ENDROOT
BRANCH   1  13
ATOM      7  N   UNL     1       1.201   5.173  -5.647  0.00  0.00    -0.295 N 
ATOM      8  C   UNL     1       0.815   5.193  -4.332  0.00  0.00    +0.156 C 
ATOM      9  N   UNL     1       0.163   4.263  -3.653  0.00  0.00    -0.154 NA
ATOM     10  C   UNL     1      -0.151   4.405  -2.384  0.00  0.00    +0.276 C 
ATOM     11  O   UNL     1      -0.753   3.540  -1.768  0.00  0.00    -0.267 OA
ATOM     12  C   UNL     1       0.268   5.673  -1.742  0.00  0.00    +0.079 C 
ATOM     13  C   UNL     1       0.091   6.102  -0.467  0.00  0.00    +0.028 C 
ATOM     14  S   UNL     1       1.065   6.484  -3.123  0.00  0.00    -0.051 S 
ATOM     15  H   UNL     1       1.808   5.995  -6.055  0.00  0.00    +0.154 HD
BRANCH   7  20
ATOM     16  C   UNL     1      -0.331   0.852  -8.986  0.00  0.00    +0.044 C 
ATOM     17  C   UNL     1       0.076   2.000  -8.099  0.00  0.00    -0.050 A 
ATOM     18  C   UNL     1      -0.198   1.956  -6.744  0.00  0.00    +0.005 A 
ATOM     19  C   UNL     1       0.178   3.004  -5.928  0.00  0.00    +0.024 A 
ATOM     20  C   UNL     1       0.823   4.108  -6.470  0.00  0.00    +0.036 A 
ATOM     21  C   UNL     1       1.098   4.149  -7.831  0.00  0.00    -0.029 A 
ATOM     22  C   UNL     1       0.723   3.095  -8.642  0.00  0.00    +0.008 A 
ATOM     23  C   UNL     1       1.804   5.341  -8.423  0.00  0.00    +0.045 C 
ENDBRANCH   7  20
ENDBRANCH   1  13
BRANCH   5  24
ATOM     24  O   UNL     1      -0.289   1.659   1.464  0.00  0.00    -0.491 OA
ATOM     25  C   UNL     1       0.598   1.227   0.429  0.00  0.00    +0.277 C 
ENDBRANCH   5  24
BRANCH   4  26
ATOM     26  O   UNL     1      -1.986   2.623   3.401  0.00  0.00    -0.481 OA
BRANCH  26  27
ATOM     27  C   UNL     1      -2.862   3.190   4.379  0.00  0.00    +0.303 C 
BRANCH  27  28
ATOM     28  C   UNL     1      -3.318   2.113   5.329  0.00  0.00    +0.143 A 
ATOM     29  C   UNL     1      -2.695   1.759   6.475  0.00  0.00    +0.049 A 
ATOM     30  C   UNL     1      -3.447   0.724   7.051  0.00  0.00    +0.057 A 
ATOM     31  C   UNL     1      -4.505   0.495   6.217  0.00  0.00    +0.212 A 
ATOM     32  O   UNL     1      -4.410   1.353   5.179  0.00  0.00    -0.450 OA
BRANCH  31  33
ATOM     33  C   UNL     1      -5.558  -0.503   6.416  0.00  0.00    +0.375 C 
ATOM     34  O   UNL     1      -5.538  -1.220   7.398  0.00  0.00    -0.241 OA
BRANCH  33  35
ATOM     35  O   UNL     1      -6.550  -0.626   5.510  0.00  0.00    -0.462 OA
ATOM     36  C   UNL     1      -7.560  -1.636   5.772  0.00  0.00    +0.280 C 
ENDBRANCH  33  35
ENDBRANCH  31  33
ENDBRANCH  27  28
ENDBRANCH  26  27
ENDBRANCH   4  26
TORSDOF 8
