REMARK  Name = ZINC12151889
REMARK  10 active torsions:
REMARK  status: ('A' for Active; 'I' for Inactive)
REMARK    1  A    between atoms: C_1  and  C_2
REMARK    2  A    between atoms: C_2  and  N_3
REMARK    3  A    between atoms: N_3  and  C_4
REMARK    4  A    between atoms: C_4  and  C_5
REMARK    5  A    between atoms: C_6  and  C_8
REMARK    6  A    between atoms: C_14  and  N_75
REMARK    7  A    between atoms: N_17  and  C_20
REMARK    8  A    between atoms: C_23  and  N_26
REMARK    9  A    between atoms: C_27  and  C_29
REMARK   10  A    between atoms: C_29  and  C_30
REMARK                            x       y       z     vdW  Elec       q    Type
REMARK                         _______ _______ _______ _____ _____    ______ ____
ROOT
ATOM      1  C   UNL     1      -3.660  -1.177  10.912  0.00  0.00    -0.066 C 
ATOM      2  C   UNL     1      -3.226   0.280  10.722  0.00  0.00    +0.004 C 
ATOM      3  C   UNL     1      -2.154   0.350   9.632  0.00  0.00    +0.103 C 
ATOM      4  N   UNL     1      -2.695  -0.186   8.377  0.00  0.00    -0.330 N 
ATOM      5  C   UNL     1      -3.074  -1.597   8.521  0.00  0.00    +0.103 C 
ATOM      6  C   UNL     1      -4.174  -1.726   9.578  0.00  0.00    +0.004 C 
ENDROOT
BRANCH   1  12
ATOM      7  C   UNL     1      -6.177  -2.678  13.276  0.00  0.00    +0.059 C 
ATOM      8  C   UNL     1      -7.375  -1.786  12.938  0.00  0.00    +0.009 C 
ATOM      9  C   UNL     1      -6.883  -0.360  12.679  0.00  0.00    -0.018 C 
ATOM     10  C   UNL     1      -5.856  -0.378  11.545  0.00  0.00    -0.078 C 
ATOM     11  C   UNL     1      -5.170  -2.629  12.124  0.00  0.00    -0.066 C 
ATOM     12  N   UNL     1      -4.717  -1.233  11.942  0.00  0.00    +0.382 N 
ATOM     13  H   UNL     1      -4.336  -0.889  12.831  0.00  0.00    -0.081 HD
BRANCH   7  15
ATOM     14  N   UNL     1      -7.343  -4.427  14.579  0.00  0.00    -0.302 N 
ATOM     15  C   UNL     1      -6.646  -4.096  13.474  0.00  0.00    +0.217 C 
ATOM     16  O   UNL     1      -6.396  -4.940  12.639  0.00  0.00    -0.275 OA
BRANCH  14  18
ATOM     17  C   UNL     1      -6.787  -6.635  15.473  0.00  0.00    +0.024 C 
ATOM     18  C   UNL     1      -7.841  -5.795  14.749  0.00  0.00    +0.104 C 
ENDBRANCH  14  18
BRANCH  14  19
ATOM     19  C   UNL     1      -7.603  -3.420  15.610  0.00  0.00    +0.104 C 
ATOM     20  C   UNL     1      -9.056  -2.953  15.512  0.00  0.00    +0.024 C 
ENDBRANCH  14  19
ENDBRANCH   7  15
ENDBRANCH   1  12
BRANCH   4  21
ATOM     21  C   UNL     1      -1.787  -0.016   7.327  0.00  0.00    +0.030 A 
ATOM     22  C   UNL     1      -2.110  -0.458   6.050  0.00  0.00    +0.025 A 
ATOM     23  C   UNL     1      -1.213  -0.290   5.014  0.00  0.00    +0.025 A 
ATOM     24  C   UNL     1       0.012   0.321   5.248  0.00  0.00    +0.034 A 
ATOM     25  C   UNL     1       0.338   0.757   6.525  0.00  0.00    +0.025 A 
ATOM     26  C   UNL     1      -0.561   0.595   7.560  0.00  0.00    +0.025 A 
BRANCH  24  27
ATOM     27  N   UNL     1       0.922   0.491   4.196  0.00  0.00    -0.285 N 
ATOM     28  C   UNL     1       0.473   0.759   2.953  0.00  0.00    +0.222 C 
ATOM     29  O   UNL     1      -0.719   0.771   2.728  0.00  0.00    -0.275 OA
ATOM     30  H   UNL     1       1.875   0.415   4.361  0.00  0.00    +0.155 HD
BRANCH  28  31
ATOM     31  C   UNL     1       1.453   1.045   1.844  0.00  0.00    +0.131 C 
BRANCH  31  32
ATOM     32  C   UNL     1       0.700   1.312   0.566  0.00  0.00    -0.036 A 
ATOM     33  C   UNL     1       0.317   2.601   0.246  0.00  0.00    +0.004 A 
ATOM     34  C   UNL     1      -0.369   2.848  -0.929  0.00  0.00    +0.003 A 
ATOM     35  C   UNL     1      -0.676   1.805  -1.782  0.00  0.00    +0.038 A 
ATOM     36  C   UNL     1      -0.297   0.513  -1.461  0.00  0.00    +0.124 A 
ATOM     37  C   UNL     1       0.389   0.267  -0.283  0.00  0.00    +0.042 A 
ATOM     38  F   UNL     1      -0.597  -0.506  -2.295  0.00  0.00    -0.205 F 
ENDBRANCH  31  32
ENDBRANCH  28  31
ENDBRANCH  24  27
ENDBRANCH   4  21
TORSDOF 8
