REMARK  Name = ZINC63214793
REMARK  7 active torsions:
REMARK  status: ('A' for Active; 'I' for Inactive)
REMARK    1  A    between atoms: C_1  and  C_2
REMARK    2  A    between atoms: C_2  and  N_3
REMARK    3  A    between atoms: N_3  and  S_4
REMARK    4  A    between atoms: S_4  and  C_7
REMARK    5  A    between atoms: C_12  and  N_13
REMARK    6  A    between atoms: N_13  and  C_14
REMARK    7  A    between atoms: C_21  and  N_23
REMARK                            x       y       z     vdW  Elec       q    Type
REMARK                         _______ _______ _______ _____ _____    ______ ____
ROOT
ATOM      1  C   UNL     1      -1.037  -2.917   0.922  0.00  0.00    +0.126 A 
ATOM      2  C   UNL     1      -1.802  -3.767   1.697  0.00  0.00    +0.030 A 
ATOM      3  C   UNL     1      -1.220  -4.468   2.737  0.00  0.00    +0.002 A 
ATOM      4  C   UNL     1       0.128  -4.320   3.006  0.00  0.00    +0.002 A 
ATOM      5  C   UNL     1       0.898  -3.472   2.235  0.00  0.00    +0.025 A 
ATOM      6  C   UNL     1       0.318  -2.770   1.185  0.00  0.00    +0.054 A 
ENDROOT
BRANCH   1   7
ATOM      7  S   UNL     1      -1.780  -2.025  -0.404  0.00  0.00    +0.060 S 
ATOM      8  O   UNL     1      -1.386  -0.668  -0.250  0.00  0.00    -0.153 OA
ATOM      9  O   UNL     1      -3.143  -2.422  -0.448  0.00  0.00    -0.153 OA
BRANCH   7  10
ATOM     10  N   UNL     1      -1.084  -2.563  -1.807  0.00  0.00    -0.190 NA
ATOM     11  H   UNL     1      -0.550  -1.960  -2.346  0.00  0.00    +0.148 HD
BRANCH  10  13
ATOM     12  C   UNL     1      -0.877  -4.094  -3.703  0.00  0.00    +0.022 C 
ATOM     13  C   UNL     1      -1.275  -3.952  -2.233  0.00  0.00    +0.102 C 
ENDBRANCH  10  13
ENDBRANCH   7  10
ENDBRANCH   1   7
BRANCH   6  14
ATOM     14  N   UNL     1       1.096  -1.916   0.401  0.00  0.00    -0.341 N 
ATOM     15  H   UNL     1       0.709  -1.487  -0.379  0.00  0.00    +0.146 HD
BRANCH  14  16
ATOM     16  C   UNL     1       2.495  -1.667   0.754  0.00  0.00    +0.056 C 
ATOM     17  C   UNL     1       2.547  -0.561   1.826  0.00  0.00    +0.020 C 
ATOM     18  C   UNL     1       3.914   0.055   1.952  0.00  0.00    +0.002 C 
ATOM     19  C   UNL     1       3.969   1.313   1.061  0.00  0.00    +0.000 C 
ATOM     20  C   UNL     1       4.192   0.992  -0.341  0.00  0.00    -0.002 C 
ATOM     21  C   UNL     1       3.057   0.134  -0.935  0.00  0.00    -0.014 C 
ATOM     22  C   UNL     1       3.272  -1.295  -0.523  0.00  0.00    -0.055 C 
BRANCH  22  23
ATOM     23  N   UNL     1       2.836  -2.173  -1.617  0.00  0.00    +0.381 N 
ATOM     24  H   UNL     1       1.847  -2.051  -1.772  0.00  0.00    -0.090 HD
ATOM     25  H   UNL     1       3.340  -1.937  -2.459  0.00  0.00    -0.090 HD
ATOM     26  H   UNL     1       3.023  -3.134  -1.371  0.00  0.00    -0.090 HD
ENDBRANCH  22  23
ENDBRANCH  14  16
ENDBRANCH   6  14
TORSDOF 6
