REMARK  Name = ZINC63537969
REMARK  9 active torsions:
REMARK  status: ('A' for Active; 'I' for Inactive)
REMARK    1  A    between atoms: C_1  and  O_2
REMARK    2  A    between atoms: O_2  and  C_3
REMARK    3  A    between atoms: C_6  and  C_11
REMARK    4  A    between atoms: C_7  and  O_9
REMARK    5  A    between atoms: O_9  and  C_10
REMARK    6  A    between atoms: N_15  and  C_25
REMARK    7  A    between atoms: N_17  and  C_18
REMARK    8  A    between atoms: C_25  and  C_26
REMARK    9  A    between atoms: C_26  and  C_27
REMARK                            x       y       z     vdW  Elec       q    Type
REMARK                         _______ _______ _______ _____ _____    ______ ____
ROOT
ATOM      1  C   UNL     1       2.493  -2.477  -4.362  0.00  0.00    +0.032 C 
ATOM      2  C   UNL     1       2.956  -1.725  -5.394  0.00  0.00    +0.078 C 
ATOM      3  C   UNL     1       3.008  -0.259  -5.533  0.00  0.00    +0.259 C 
ATOM      4  O   UNL     1       2.604   0.478  -4.652  0.00  0.00    -0.269 OA
ATOM      5  N   UNL     1       3.514   0.221  -6.656  0.00  0.00    -0.246 N 
ATOM      6  C   UNL     1       3.967  -0.629  -7.641  0.00  0.00    +0.168 C 
ATOM      7  N   UNL     1       4.492  -0.324  -8.807  0.00  0.00    -0.225 NA
ATOM      8  S   UNL     1       3.672  -2.247  -6.946  0.00  0.00    -0.049 S 
ENDROOT
BRANCH   1  12
ATOM      9  C   UNL     1       0.454  -0.625  -1.135  0.00  0.00    +0.124 A 
ATOM     10  C   UNL     1       0.198  -0.223  -2.442  0.00  0.00    +0.046 A 
ATOM     11  C   UNL     1       0.857  -0.820  -3.493  0.00  0.00    +0.015 A 
ATOM     12  C   UNL     1       1.788  -1.837  -3.246  0.00  0.00    +0.018 A 
ATOM     13  C   UNL     1       2.045  -2.240  -1.924  0.00  0.00    +0.131 A 
ATOM     14  C   UNL     1       1.379  -1.627  -0.878  0.00  0.00    +0.091 A 
BRANCH   9  16
ATOM     15  C   UNL     1      -1.139   0.994  -0.438  0.00  0.00    +0.277 C 
ATOM     16  O   UNL     1      -0.200  -0.030  -0.105  0.00  0.00    -0.495 OA
ENDBRANCH   9  16
BRANCH  13  17
ATOM     17  O   UNL     1       2.946  -3.225  -1.675  0.00  0.00    -0.494 OA
ATOM     18  C   UNL     1       3.154  -3.582  -0.307  0.00  0.00    +0.277 C 
ENDBRANCH  13  17
ENDBRANCH   1  12
BRANCH   7  19
ATOM     19  C   UNL     1       4.886  -1.318  -9.661  0.00  0.00    +0.067 A 
ATOM     20  C   UNL     1       5.609  -2.412  -9.179  0.00  0.00    +0.028 A 
ATOM     21  C   UNL     1       6.003  -3.410 -10.046  0.00  0.00    +0.002 A 
ATOM     22  C   UNL     1       5.684  -3.329 -11.390  0.00  0.00    +0.000 A 
ATOM     23  C   UNL     1       4.969  -2.248 -11.875  0.00  0.00    +0.002 A 
ATOM     24  C   UNL     1       4.563  -1.246 -11.018  0.00  0.00    +0.028 A 
ENDBRANCH   7  19
BRANCH   5  25
ATOM     25  C   UNL     1       3.594   1.670  -6.856  0.00  0.00    +0.120 C 
BRANCH  25  26
ATOM     26  C   UNL     1       4.936   2.184  -6.330  0.00  0.00    +0.052 C 
BRANCH  26  27
ATOM     27  C   UNL     1       5.019   3.674  -6.535  0.00  0.00    -0.040 C 
ATOM     28  C   UNL     1       4.714   4.637  -5.635  0.00  0.00    -0.001 A 
ATOM     29  C   UNL     1       4.231   4.586  -4.249  0.00  0.00    +0.010 A 
ATOM     30  C   UNL     1       4.010   5.745  -3.589  0.00  0.00    +0.001 A 
ATOM     31  C   UNL     1       4.229   6.991  -4.193  0.00  0.00    +0.002 A 
ATOM     32  C   UNL     1       4.672   7.119  -5.462  0.00  0.00    +0.026 A 
ATOM     33  C   UNL     1       4.938   5.965  -6.250  0.00  0.00    +0.043 A 
ATOM     34  N   UNL     1       5.364   5.829  -7.482  0.00  0.00    -0.380 N 
ATOM     35  C   UNL     1       5.465   4.397  -7.786  0.00  0.00    +0.144 C 
ATOM     36  H   UNL     1       5.581   6.553  -8.089  0.00  0.00    +0.160 HD
ENDBRANCH  26  27
ENDBRANCH  25  26
ENDBRANCH   5  25
TORSDOF 7
