REMARK  Name = ZINC01705804
REMARK  2 active torsions:
REMARK  status: ('A' for Active; 'I' for Inactive)
REMARK    1  A    between atoms: C_4  and  N_7
REMARK    2  A    between atoms: C_15  and  N_20
REMARK                            x       y       z     vdW  Elec       q    Type
REMARK                         _______ _______ _______ _____ _____    ______ ____
ROOT
ATOM      1  N   UNL     1      -0.020   1.094   2.454  0.00  0.00    -0.287 N 
ATOM      2  C   UNL     1       0.579   1.938   3.493  0.00  0.00    +0.166 C 
ATOM      3  C   UNL     1       1.191   1.000   4.504  0.00  0.00    +0.090 A 
ATOM      4  C   UNL     1       0.939  -0.302   4.039  0.00  0.00    +0.151 A 
ATOM      5  N   UNL     1       1.363  -1.349   4.730  0.00  0.00    -0.219 NA
ATOM      6  C   UNL     1       2.031  -1.161   5.867  0.00  0.00    +0.186 A 
ATOM      7  C   UNL     1       2.279   0.159   6.325  0.00  0.00    +0.148 A 
ATOM      8  N   UNL     1       1.848   1.201   5.622  0.00  0.00    -0.241 NA
ATOM      9  C   UNL     1       3.018   0.320   7.580  0.00  0.00    +0.149 A 
ATOM     10  N   UNL     1       3.408  -0.778   8.211  0.00  0.00    -0.198 NA
ATOM     11  C   UNL     1       3.141  -1.986   7.723  0.00  0.00    +0.216 A 
ATOM     12  N   UNL     1       2.481  -2.188   6.601  0.00  0.00    -0.193 NA
ATOM     13  N   UNL     1       3.577  -3.088   8.433  0.00  0.00    -0.327 N 
ATOM     14  C   UNL     1       0.181  -0.197   2.769  0.00  0.00    +0.267 C 
ATOM     15  O   UNL     1      -0.201  -1.141   2.108  0.00  0.00    -0.268 OA
ATOM     16  H   UNL     1       4.065  -2.969   9.263  0.00  0.00    +0.145 HD
ATOM     17  H   UNL     1       3.396  -3.982   8.101  0.00  0.00    +0.145 HD
ENDROOT
BRANCH   1  21
ATOM     18  C   UNL     1      -2.188   1.063  -1.221  0.00  0.00    +0.000 C 
ATOM     19  C   UNL     1      -0.753   1.593  -1.232  0.00  0.00    +0.002 C 
ATOM     20  C   UNL     1      -0.013   1.086   0.008  0.00  0.00    +0.022 C 
ATOM     21  C   UNL     1      -0.729   1.579   1.267  0.00  0.00    +0.077 C 
ATOM     22  C   UNL     1      -2.164   1.050   1.278  0.00  0.00    +0.022 C 
ATOM     23  C   UNL     1      -2.904   1.556   0.038  0.00  0.00    +0.002 C 
ENDBRANCH   1  21
BRANCH   9  24
ATOM     24  N   UNL     1       3.296   1.570   8.088  0.00  0.00    -0.341 N 
ATOM     25  H   UNL     1       3.001   2.363   7.613  0.00  0.00    +0.144 HD
ATOM     26  H   UNL     1       3.785   1.658   8.920  0.00  0.00    +0.144 HD
ENDBRANCH   9  24
TORSDOF 2
