REMARK  Name = ZINC30984143
REMARK  8 active torsions:
REMARK  status: ('A' for Active; 'I' for Inactive)
REMARK    1  A    between atoms: C_5  and  C_7
REMARK    2  A    between atoms: C_9  and  C_12
REMARK    3  A    between atoms: C_12  and  N_13
REMARK    4  A    between atoms: C_16  and  C_19
REMARK    5  A    between atoms: N_21  and  C_22
REMARK    6  A    between atoms: C_27  and  C_28
REMARK    7  A    between atoms: N_30  and  C_31
REMARK    8  A    between atoms: C_31  and  C_32
REMARK                            x       y       z     vdW  Elec       q    Type
REMARK                         _______ _______ _______ _____ _____    ______ ____
ROOT
ATOM      1  N   UNL     1      -1.578  -1.212  -1.388  0.00  0.00    +0.386 N 
ATOM      2  C   UNL     1      -2.050   0.004  -2.062  0.00  0.00    -0.077 C 
ATOM      3  C   UNL     1      -2.334  -0.304  -3.533  0.00  0.00    -0.006 C 
ATOM      4  C   UNL     1      -3.395  -1.405  -3.623  0.00  0.00    +0.072 C 
ATOM      5  C   UNL     1      -2.899  -2.644  -2.873  0.00  0.00    -0.006 C 
ATOM      6  C   UNL     1      -2.598  -2.267  -1.420  0.00  0.00    -0.077 C 
ATOM      7  H   UNL     1      -0.698  -1.579  -1.936  0.00  0.00    -0.081 HD
ENDROOT
BRANCH   4   8
ATOM      8  C   UNL     1      -3.636  -1.755  -5.069  0.00  0.00    +0.220 C 
ATOM      9  O   UNL     1      -3.431  -2.884  -5.462  0.00  0.00    -0.275 OA
ATOM     10  N   UNL     1      -4.079  -0.814  -5.926  0.00  0.00    -0.285 N 
ATOM     11  H   UNL     1      -4.351   0.184  -5.553  0.00  0.00    +0.155 HD
BRANCH  10  12
ATOM     12  C   UNL     1      -4.191  -1.105  -7.284  0.00  0.00    +0.046 A 
ATOM     13  C   UNL     1      -3.405  -2.099  -7.851  0.00  0.00    +0.024 A 
ATOM     14  C   UNL     1      -3.522  -2.390  -9.195  0.00  0.00    +0.002 A 
ATOM     15  C   UNL     1      -4.414  -1.687  -9.990  0.00  0.00    +0.001 A 
ATOM     16  C   UNL     1      -5.198  -0.694  -9.445  0.00  0.00    +0.015 A 
ATOM     17  C   UNL     1      -5.095  -0.392  -8.085  0.00  0.00    +0.058 A 
BRANCH  17  18
ATOM     18  C   UNL     1      -5.930   0.671  -7.495  0.00  0.00    +0.246 C 
ATOM     19  O   UNL     1      -5.774   0.993  -6.333  0.00  0.00    -0.270 OA
ATOM     20  N   UNL     1      -6.868   1.285  -8.244  0.00  0.00    -0.309 N 
ATOM     21  H   UNL     1      -7.009   0.994  -9.296  0.00  0.00    +0.149 HD
BRANCH  20  22
ATOM     22  C   UNL     1      -7.698   2.341  -7.659  0.00  0.00    +0.136 C 
BRANCH  22  23
ATOM     23  C   UNL     1      -8.673   2.867  -8.713  0.00  0.00    +0.135 C 
ATOM     24  C   UNL     1      -9.551   3.978  -8.107  0.00  0.00    +0.035 C 
ATOM     25  C   UNL     1      -9.276   5.211  -9.002  0.00  0.00    +0.031 C 
ATOM     26  C   UNL     1      -8.729   4.556 -10.296  0.00  0.00    +0.160 C 
ATOM     27  O   UNL     1      -7.943   3.448  -9.807  0.00  0.00    -0.375 OA
ENDBRANCH  22  23
ENDBRANCH  20  22
ENDBRANCH  17  18
ENDBRANCH  10  12
ENDBRANCH   4   8
BRANCH   1  28
ATOM     28  C   UNL     1      -1.164  -0.922  -0.008  0.00  0.00    +0.022 C 
BRANCH  28  31
ATOM     29  C   UNL     1       1.341   1.655  -0.042  0.00  0.00    +0.203 A 
ATOM     30  N   UNL     1       0.040   1.287  -0.023  0.00  0.00    -0.193 NA
ATOM     31  C   UNL     1       0.045  -0.022  -0.025  0.00  0.00    +0.211 A 
ATOM     32  O   UNL     1       1.324  -0.411  -0.046  0.00  0.00    -0.340 OA
ATOM     33  N   UNL     1       2.053   0.558  -0.055  0.00  0.00    -0.056 NA
BRANCH  29  38
ATOM     34  C   UNL     1       1.473   5.413  -0.038  0.00  0.00    +0.001 A 
ATOM     35  C   UNL     1       2.839   5.636  -0.059  0.00  0.00    +0.001 A 
ATOM     36  C   UNL     1       3.719   4.570  -0.074  0.00  0.00    +0.021 A 
ATOM     37  C   UNL     1       3.239   3.275  -0.069  0.00  0.00    +0.052 A 
ATOM     38  C   UNL     1       1.864   3.044  -0.048  0.00  0.00    +0.041 A 
ATOM     39  C   UNL     1       0.982   4.123  -0.038  0.00  0.00    +0.013 A 
ATOM     40 CL   UNL     1       4.345   1.937  -0.088  0.00  0.00    -0.083 Cl
ENDBRANCH  29  38
ENDBRANCH  28  31
ENDBRANCH   1  28
TORSDOF 8
