REMARK  Name = ZINC13283434
REMARK  3 active torsions:
REMARK  status: ('A' for Active; 'I' for Inactive)
REMARK    1  A    between atoms: C_4  and  C_7
REMARK    2  A    between atoms: C_10  and  C_13
REMARK    3  A    between atoms: C_15  and  N_20
REMARK                            x       y       z     vdW  Elec       q    Type
REMARK                         _______ _______ _______ _____ _____    ______ ____
ROOT
ATOM      1  C   UNL     1      -1.230   1.757   0.017  0.00  0.00    -0.018 A 
ATOM      2  C   UNL     1      -0.013   1.076   0.008  0.00  0.00    +0.009 A 
ATOM      3  C   UNL     1       1.171   1.781   0.000  0.00  0.00    +0.010 A 
ATOM      4  C   UNL     1       1.152   3.175   0.008  0.00  0.00    +0.001 A 
ATOM      5  C   UNL     1      -0.066   3.856   0.022  0.00  0.00    +0.010 A 
ATOM      6  C   UNL     1      -1.249   3.151   0.030  0.00  0.00    +0.009 A 
ENDROOT
BRANCH   4   7
ATOM      7  C   UNL     1       2.425   3.934   0.000  0.00  0.00    +0.078 A 
ATOM      8  C   UNL     1       2.418   5.327   0.007  0.00  0.00    +0.071 A 
ATOM      9  C   UNL     1       3.641   5.997  -0.001  0.00  0.00    +0.122 A 
ATOM     10  N   UNL     1       4.766   5.288  -0.014  0.00  0.00    -0.200 NA
ATOM     11  C   UNL     1       4.735   3.964  -0.021  0.00  0.00    +0.215 A 
ATOM     12  N   UNL     1       3.595   3.293  -0.008  0.00  0.00    -0.215 NA
ATOM     13  N   UNL     1       5.929   3.263  -0.035  0.00  0.00    -0.327 N 
ATOM     14  H   UNL     1       6.772   3.741  -0.040  0.00  0.00    +0.145 HD
ATOM     15  H   UNL     1       5.921   2.292  -0.040  0.00  0.00    +0.145 HD
BRANCH   9  16
ATOM     16  N   UNL     1       3.683   7.382   0.006  0.00  0.00    -0.343 N 
ATOM     17  H   UNL     1       2.858   7.892   0.015  0.00  0.00    +0.144 HD
ATOM     18  H   UNL     1       4.538   7.841   0.000  0.00  0.00    +0.144 HD
ENDBRANCH   9  16
ENDBRANCH   4   7
BRANCH   1  22
ATOM     19  C   UNL     1      -4.882  -0.419   0.024  0.00  0.00    +0.000 A 
ATOM     20  C   UNL     1      -4.904   0.964   0.032  0.00  0.00    +0.001 A 
ATOM     21  C   UNL     1      -3.722   1.675   0.029  0.00  0.00    +0.008 A 
ATOM     22  C   UNL     1      -2.504   0.998   0.020  0.00  0.00    -0.018 A 
ATOM     23  C   UNL     1      -2.488  -0.396   0.007  0.00  0.00    +0.008 A 
ATOM     24  C   UNL     1      -3.676  -1.097   0.014  0.00  0.00    +0.001 A 
ENDBRANCH   1  22
TORSDOF 3
