REMARK  Name = ZINC20906661
REMARK  8 active torsions:
REMARK  status: ('A' for Active; 'I' for Inactive)
REMARK    1  A    between atoms: C_3  and  C_8
REMARK    2  A    between atoms: C_5  and  O_7
REMARK    3  A    between atoms: N_9  and  N_10
REMARK    4  A    between atoms: C_13  and  S_16
REMARK    5  A    between atoms: S_16  and  C_17
REMARK    6  A    between atoms: C_17  and  C_18
REMARK    7  A    between atoms: C_18  and  C_19
REMARK    8  A    between atoms: N_21  and  C_22
REMARK                            x       y       z     vdW  Elec       q    Type
REMARK                         _______ _______ _______ _____ _____    ______ ____
ROOT
ATOM      1  N   UNL     1      -1.233   7.355   0.058  0.00  0.00    -0.205 N 
ATOM      2  C   UNL     1      -2.446   8.029   0.071  0.00  0.00    +0.232 A 
ATOM      3  N   UNL     1      -2.612   9.386   0.086  0.00  0.00    -0.186 NA
ATOM      4  C   UNL     1      -3.952   9.648   0.096  0.00  0.00    +0.210 A 
ATOM      5  N   UNL     1      -4.590   8.501   0.087  0.00  0.00    -0.144 NA
ATOM      6  N   UNL     1      -3.635   7.476   0.066  0.00  0.00    -0.245 N 
ATOM      7  H   UNL     1      -0.290   7.921   0.059  0.00  0.00    +0.177 HD
ATOM      8  H   UNL     1      -3.732   6.380   0.047  0.00  0.00    +0.192 HD
ENDROOT
BRANCH   1  10
ATOM      9  C   UNL     1      -0.075   5.324   0.030  0.00  0.00    +0.138 C 
ATOM     10  N   UNL     1      -1.210   5.954   0.043  0.00  0.00    -0.188 NA
BRANCH   9  13
ATOM     11  C   UNL     1      -1.220   1.749  -0.008  0.00  0.00    +0.004 A 
ATOM     12  C   UNL     1      -1.247   3.128   0.013  0.00  0.00    +0.010 A 
ATOM     13  C   UNL     1      -0.050   3.850   0.015  0.00  0.00    -0.002 A 
ATOM     14  C   UNL     1       1.169   3.169   0.001  0.00  0.00    +0.054 A 
ATOM     15  C   UNL     1       1.183   1.785  -0.014  0.00  0.00    +0.117 A 
ATOM     16  C   UNL     1      -0.011   1.077  -0.016  0.00  0.00    +0.045 A 
BRANCH  15  17
ATOM     17  O   UNL     1       2.368   1.119  -0.027  0.00  0.00    -0.507 OA
ATOM     18  H   UNL     1       2.380   0.019  -0.039  0.00  0.00    +0.292 HD
ENDBRANCH  15  17
ENDBRANCH   9  13
ENDBRANCH   1  10
BRANCH   4  19
ATOM     19  S   UNL     1      -4.695  11.245   0.116  0.00  0.00    -0.084 S 
BRANCH  19  20
ATOM     20  C   UNL     1      -6.476  10.901   0.122  0.00  0.00    +0.086 C 
BRANCH  20  21
ATOM     21  C   UNL     1      -7.251  12.220   0.140  0.00  0.00    +0.107 C 
BRANCH  21  22
ATOM     22  C   UNL     1      -8.730  11.934   0.145  0.00  0.00    +0.218 C 
ATOM     23  O   UNL     1      -9.127  10.788   0.135  0.00  0.00    -0.275 OA
ATOM     24  N   UNL     1      -9.614  12.952   0.160  0.00  0.00    -0.285 N 
ATOM     25  H   UNL     1      -9.257  13.989   0.245  0.00  0.00    +0.155 HD
BRANCH  24  26
ATOM     26  C   UNL     1     -10.985  12.690   0.067  0.00  0.00    +0.033 A 
ATOM     27  C   UNL     1     -11.817  13.570  -0.613  0.00  0.00    +0.024 A 
ATOM     28  C   UNL     1     -13.169  13.305  -0.709  0.00  0.00    +0.016 A 
ATOM     29  C   UNL     1     -13.697  12.171  -0.118  0.00  0.00    +0.013 A 
ATOM     30  C   UNL     1     -12.872  11.296   0.565  0.00  0.00    +0.016 A 
ATOM     31  C   UNL     1     -11.518  11.552   0.658  0.00  0.00    +0.024 A 
ATOM     32  I   UNL     1     -15.750  11.778  -0.258  0.00  0.00    -0.044 I 
ENDBRANCH  24  26
ENDBRANCH  21  22
ENDBRANCH  20  21
ENDBRANCH  19  20
ENDBRANCH   4  19
TORSDOF 8
