REMARK  Name = ZINC65004590
REMARK  10 active torsions:
REMARK  status: ('A' for Active; 'I' for Inactive)
REMARK    1  A    between atoms: C_1  and  C_2
REMARK    2  A    between atoms: C_2  and  C_3
REMARK    3  A    between atoms: C_3  and  C_5
REMARK    4  A    between atoms: C_3  and  C_6
REMARK    5  A    between atoms: C_16  and  C_18
REMARK    6  A    between atoms: C_18  and  C_20
REMARK    7  A    between atoms: C_18  and  N_25
REMARK    8  A    between atoms: C_20  and  C_22
REMARK    9  A    between atoms: C_20  and  C_23
REMARK   10  A    between atoms: C_23  and  C_24
REMARK                            x       y       z     vdW  Elec       q    Type
REMARK                         _______ _______ _______ _____ _____    ______ ____
ROOT
ATOM      1  C   UNL     1       1.300  -2.458   3.970  0.00  0.00    -0.043 A 
ATOM      2  C   UNL     1       0.144  -3.146   3.628  0.00  0.00    +0.006 A 
ATOM      3  C   UNL     1       0.193  -4.409   3.099  0.00  0.00    +0.029 A 
ATOM      4  C   UNL     1       1.433  -5.055   2.883  0.00  0.00    +0.080 A 
ATOM      5  C   UNL     1       2.588  -4.324   3.242  0.00  0.00    +0.041 A 
ATOM      6  C   UNL     1       2.530  -3.057   3.767  0.00  0.00    +0.021 A 
ATOM      7  S   UNL     1       3.895  -5.453   2.825  0.00  0.00    -0.052 S 
ATOM      8  C   UNL     1       2.861  -6.779   2.220  0.00  0.00    +0.165 A 
ATOM      9  N   UNL     1       1.654  -6.286   2.374  0.00  0.00    -0.225 NA
ATOM     10  N   UNL     1       3.237  -8.014   1.717  0.00  0.00    -0.263 N 
ATOM     11  C   UNL     1       2.298  -8.889   1.306  0.00  0.00    +0.240 C 
ATOM     12  O   UNL     1       1.123  -8.633   1.460  0.00  0.00    -0.273 OA
ATOM     13  H   UNL     1       4.177  -8.248   1.660  0.00  0.00    +0.157 HD
ENDROOT
BRANCH   1  14
ATOM     14  C   UNL     1       1.216  -1.070   4.551  0.00  0.00    +0.016 C 
ATOM     15  C   UNL     1       0.422  -1.111   5.858  0.00  0.00    +0.012 C 
BRANCH  14  17
ATOM     16  C   UNL     1       0.538   1.290   4.091  0.00  0.00    +0.004 C 
ATOM     17  C   UNL     1       0.513  -0.143   3.557  0.00  0.00    +0.004 C 
ENDBRANCH  14  17
ENDBRANCH   1  14
BRANCH  11  18
ATOM     18  C   UNL     1       2.709 -10.184   0.655  0.00  0.00    +0.173 C 
BRANCH  18  19
ATOM     19  N   UNL     1       1.516 -10.898   0.192  0.00  0.00    -0.222 N 
ATOM     20  C   UNL     1       0.433 -11.143   0.951  0.00  0.00    +0.255 C 
ATOM     21  O   UNL     1       0.291 -10.814   2.111  0.00  0.00    -0.270 OA
ATOM     22  C   UNL     1      -0.556 -11.880   0.136  0.00  0.00    +0.049 A 
ATOM     23  C   UNL     1      -1.823 -12.386   0.376  0.00  0.00    +0.014 A 
ATOM     24  C   UNL     1      -2.503 -13.047  -0.635  0.00  0.00    +0.001 A 
ATOM     25  C   UNL     1      -1.925 -13.202  -1.882  0.00  0.00    +0.001 A 
ATOM     26  C   UNL     1      -0.659 -12.701  -2.137  0.00  0.00    +0.014 A 
ATOM     27  C   UNL     1       0.033 -12.038  -1.135  0.00  0.00    +0.049 A 
ATOM     28  C   UNL     1       1.357 -11.388  -1.051  0.00  0.00    +0.255 C 
ATOM     29  O   UNL     1       2.168 -11.312  -1.952  0.00  0.00    -0.270 OA
ENDBRANCH  18  19
BRANCH  18  30
ATOM     30  C   UNL     1       3.458 -11.050   1.670  0.00  0.00    +0.016 C 
ATOM     31  C   UNL     1       2.514 -11.427   2.814  0.00  0.00    +0.010 C 
BRANCH  30  32
ATOM     32  C   UNL     1       3.960 -12.322   0.984  0.00  0.00    +0.002 C 
ATOM     33  C   UNL     1       5.019 -11.955  -0.058  0.00  0.00    +0.004 C 
ENDBRANCH  30  32
ENDBRANCH  18  30
ENDBRANCH  11  18
TORSDOF 6
