REMARK  Name = ZINC16570049
REMARK  8 active torsions:
REMARK  status: ('A' for Active; 'I' for Inactive)
REMARK    1  A    between atoms: C_1  and  C_2
REMARK    2  A    between atoms: C_2  and  C_3
REMARK    3  A    between atoms: C_8  and  N_9
REMARK    4  A    between atoms: N_12  and  C_13
REMARK    5  A    between atoms: N_12  and  C_37
REMARK    6  A    between atoms: C_13  and  C_14
REMARK    7  A    between atoms: C_28  and  C_30
REMARK    8  A    between atoms: C_34  and  C_36
REMARK                            x       y       z     vdW  Elec       q    Type
REMARK                         _______ _______ _______ _____ _____    ______ ____
ROOT
ATOM      1  C   UNL     1      -1.550   7.223   1.282  0.00  0.00    +0.238 C 
ATOM      2  O   UNL     1      -2.721   7.347   1.573  0.00  0.00    -0.273 OA
ATOM      3  N   UNL     1      -1.199   6.540   0.175  0.00  0.00    -0.255 N 
ATOM      4  C   UNL     1      -2.178   5.873  -0.575  0.00  0.00    +0.061 A 
ATOM      5  C   UNL     1      -3.326   5.392   0.035  0.00  0.00    +0.025 A 
ATOM      6  C   UNL     1      -4.288   4.746  -0.717  0.00  0.00    +0.002 A 
ATOM      7  C   UNL     1      -4.114   4.575  -2.079  0.00  0.00    +0.002 A 
ATOM      8  C   UNL     1      -2.971   5.047  -2.698  0.00  0.00    +0.028 A 
ATOM      9  C   UNL     1      -2.003   5.690  -1.951  0.00  0.00    +0.068 A 
ATOM     10  N   UNL     1      -0.822   6.177  -2.530  0.00  0.00    -0.316 N 
ATOM     11  C   UNL     1      -0.497   6.354  -3.833  0.00  0.00    +0.092 A 
ATOM     12  C   UNL     1       0.756   6.860  -3.889  0.00  0.00    +0.020 A 
ATOM     13  C   UNL     1       1.222   6.992  -2.563  0.00  0.00    +0.025 A 
ATOM     14  C   UNL     1       0.244   6.573  -1.753  0.00  0.00    +0.049 A 
ATOM     15  C   UNL     1       0.211   6.495  -0.245  0.00  0.00    +0.159 C 
ENDROOT
BRANCH  15  16
ATOM     16  C   UNL     1       0.840   5.204   0.213  0.00  0.00    -0.021 A 
ATOM     17  C   UNL     1       0.113   4.029   0.175  0.00  0.00    +0.006 A 
ATOM     18  C   UNL     1       0.689   2.845   0.595  0.00  0.00    +0.001 A 
ATOM     19  C   UNL     1       1.994   2.837   1.054  0.00  0.00    +0.003 A 
ATOM     20  C   UNL     1       2.721   4.011   1.092  0.00  0.00    -0.050 A 
ATOM     21  C   UNL     1       2.146   5.194   0.666  0.00  0.00    +0.009 A 
ATOM     22  C   UNL     1       4.143   4.002   1.591  0.00  0.00    +0.044 C 
ENDBRANCH  15  16
BRANCH   1  23
ATOM     23  C   UNL     1      -0.487   7.832   2.160  0.00  0.00    +0.205 C 
BRANCH  23  27
ATOM     24  N   UNL     1      -0.773   6.450   4.532  0.00  0.00    -0.269 N 
ATOM     25  C   UNL     1      -1.291   7.692   4.456  0.00  0.00    +0.307 C 
ATOM     26  O   UNL     1      -1.919   8.148   5.392  0.00  0.00    -0.252 OA
ATOM     27  N   UNL     1      -1.113   8.430   3.342  0.00  0.00    -0.274 N 
ATOM     28  H   UNL     1      -0.199   6.120   3.824  0.00  0.00    +0.156 HD
BRANCH  24  34
ATOM     29  C   UNL     1      -0.218   4.589   5.967  0.00  0.00    -0.026 A 
ATOM     30  C   UNL     1      -0.506   3.791   7.057  0.00  0.00    +0.005 A 
ATOM     31  C   UNL     1      -1.643   4.028   7.808  0.00  0.00    +0.000 A 
ATOM     32  C   UNL     1      -2.492   5.067   7.474  0.00  0.00    +0.002 A 
ATOM     33  C   UNL     1      -2.207   5.872   6.388  0.00  0.00    +0.023 A 
ATOM     34  C   UNL     1      -1.065   5.637   5.632  0.00  0.00    +0.038 A 
BRANCH  29  36
ATOM     35  C   UNL     1       2.159   5.215   5.644  0.00  0.00    +0.009 C 
ATOM     36  C   UNL     1       1.018   4.327   5.146  0.00  0.00    +0.033 C 
ENDBRANCH  29  36
ENDBRANCH  24  34
BRANCH  27  37
ATOM     37  C   UNL     1      -1.545   9.829   3.313  0.00  0.00    +0.078 C 
ATOM     38  C   UNL     1      -1.835  10.507   4.653  0.00  0.00    +0.024 C 
ATOM     39  C   UNL     1      -2.988  10.132   3.721  0.00  0.00    +0.024 C 
ENDBRANCH  27  37
ENDBRANCH  23  27
ENDBRANCH   1  23
TORSDOF 6
