REMARK  Name = ZINC47701024
REMARK  6 active torsions:
REMARK  status: ('A' for Active; 'I' for Inactive)
REMARK    1  A    between atoms: C_1  and  C_2
REMARK    2  A    between atoms: C_2  and  C_4
REMARK    3  A    between atoms: C_2  and  N_17
REMARK    4  A    between atoms: C_7  and  N_10
REMARK    5  A    between atoms: N_13  and  C_14
REMARK    6  A    between atoms: N_20  and  C_21
REMARK                            x       y       z     vdW  Elec       q    Type
REMARK                         _______ _______ _______ _____ _____    ______ ____
ROOT
ATOM      1  C   UNL     1      -0.969   2.374   0.330  0.00  0.00    +0.033 C 
ATOM      2  C   UNL     1      -0.449   0.958   0.075  0.00  0.00    +0.102 C 
ENDROOT
BRANCH   2   3
ATOM      3  C   UNL     1       0.529   0.579   1.158  0.00  0.00    -0.027 A 
ATOM      4  C   UNL     1       0.065   0.146   2.386  0.00  0.00    +0.007 A 
ATOM      5  C   UNL     1       0.959  -0.202   3.380  0.00  0.00    +0.023 A 
ATOM      6  C   UNL     1       2.325  -0.116   3.144  0.00  0.00    +0.035 A 
ATOM      7  C   UNL     1       2.787   0.320   1.909  0.00  0.00    +0.023 A 
ATOM      8  C   UNL     1       1.888   0.660   0.918  0.00  0.00    +0.007 A 
BRANCH   6   9
ATOM      9  N   UNL     1       3.233  -0.467   4.149  0.00  0.00    -0.269 N 
ATOM     10  C   UNL     1       2.885  -1.371   5.087  0.00  0.00    +0.304 C 
ATOM     11  O   UNL     1       1.816  -1.945   5.010  0.00  0.00    -0.253 OA
ATOM     12  N   UNL     1       3.722  -1.639   6.108  0.00  0.00    -0.296 N 
ATOM     13  H   UNL     1       4.113  -0.060   4.171  0.00  0.00    +0.156 HD
ATOM     14  H   UNL     1       4.575  -1.181   6.169  0.00  0.00    +0.151 HD
BRANCH  12  15
ATOM     15  C   UNL     1       3.344  -2.621   7.127  0.00  0.00    +0.075 C 
ATOM     16  C   UNL     1       3.612  -2.262   8.589  0.00  0.00    +0.024 C 
ATOM     17  C   UNL     1       4.472  -3.317   7.891  0.00  0.00    +0.024 C 
ENDBRANCH  12  15
ENDBRANCH   6   9
ENDBRANCH   2   3
BRANCH   2  18
ATOM     18  N   UNL     1      -1.573   0.017   0.082  0.00  0.00    -0.293 N 
ATOM     19  C   UNL     1      -2.290  -0.183  -1.041  0.00  0.00    +0.304 C 
ATOM     20  O   UNL     1      -2.005   0.417  -2.060  0.00  0.00    -0.252 OA
ATOM     21  N   UNL     1      -3.324  -1.048  -1.036  0.00  0.00    -0.265 N 
ATOM     22  H   UNL     1      -1.800  -0.461   0.894  0.00  0.00    +0.151 HD
ATOM     23  H   UNL     1      -3.581  -1.490  -0.212  0.00  0.00    +0.157 HD
BRANCH  21  24
ATOM     24  C   UNL     1      -4.026  -1.309  -2.221  0.00  0.00    +0.106 A 
ATOM     25  C   UNL     1      -5.393  -1.554  -2.181  0.00  0.00    +0.147 A 
ATOM     26  C   UNL     1      -6.083  -1.810  -3.352  0.00  0.00    +0.040 A 
ATOM     27  C   UNL     1      -5.413  -1.825  -4.562  0.00  0.00    +0.006 A 
ATOM     28  C   UNL     1      -4.053  -1.582  -4.606  0.00  0.00    +0.040 A 
ATOM     29  C   UNL     1      -3.357  -1.319  -3.439  0.00  0.00    +0.147 A 
ATOM     30  F   UNL     1      -2.029  -1.076  -3.483  0.00  0.00    -0.203 F 
ATOM     31  F   UNL     1      -6.048  -1.541  -0.999  0.00  0.00    -0.203 F 
ENDBRANCH  21  24
ENDBRANCH   2  18
TORSDOF 5
