REMARK  Name = ZINC51098419
REMARK  10 active torsions:
REMARK  status: ('A' for Active; 'I' for Inactive)
REMARK    1  A    between atoms: C_1  and  C_2
REMARK    2  A    between atoms: C_5  and  C_7
REMARK    3  A    between atoms: N_9  and  C_10
REMARK    4  A    between atoms: N_13  and  C_16
REMARK    5  A    between atoms: C_16  and  C_18
REMARK    6  A    between atoms: C_16  and  C_19
REMARK    7  A    between atoms: N_24  and  C_25
REMARK    8  A    between atoms: C_25  and  C_26
REMARK    9  A    between atoms: C_26  and  O_27
REMARK   10  A    between atoms: O_27  and  C_28
REMARK                            x       y       z     vdW  Elec       q    Type
REMARK                         _______ _______ _______ _____ _____    ______ ____
ROOT
ATOM      1  C   UNL     1       1.890  -7.227  -0.304  0.00  0.00    +0.070 C 
ATOM      2  C   UNL     1       2.113  -7.732   1.124  0.00  0.00    +0.004 C 
ATOM      3  C   UNL     1       3.388  -8.577   1.167  0.00  0.00    -0.076 C 
ATOM      4  N   UNL     1       4.535  -7.761   0.750  0.00  0.00    +0.387 N 
ATOM      5  C   UNL     1       4.361  -7.333  -0.643  0.00  0.00    -0.076 C 
ATOM      6  C   UNL     1       3.124  -6.439  -0.755  0.00  0.00    +0.004 C 
ATOM      7  H   UNL     1       4.602  -6.949   1.345  0.00  0.00    -0.081 HD
ENDROOT
BRANCH   1  10
ATOM      8  C   UNL     1      -0.516  -6.887  -0.481  0.00  0.00    +0.251 C 
ATOM      9  O   UNL     1      -0.650  -8.092  -0.583  0.00  0.00    -0.270 OA
ATOM     10  N   UNL     1       0.713  -6.354  -0.337  0.00  0.00    -0.308 N 
ATOM     11  H   UNL     1       0.820  -5.394  -0.256  0.00  0.00    +0.149 HD
BRANCH   8  16
ATOM     12  C   UNL     1      -4.229  -2.756  -0.481  0.00  0.00    +0.051 C 
ATOM     13  C   UNL     1      -3.443  -4.042  -0.511  0.00  0.00    -0.013 A 
ATOM     14  C   UNL     1      -3.918  -5.305  -0.647  0.00  0.00    +0.011 A 
ATOM     15  C   UNL     1      -3.031  -6.354  -0.651  0.00  0.00    +0.021 A 
ATOM     16  C   UNL     1      -1.694  -6.014  -0.514  0.00  0.00    +0.074 A 
ATOM     17  S   UNL     1      -1.779  -4.237  -0.394  0.00  0.00    -0.089 S 
ENDBRANCH   8  16
ENDBRANCH   1  10
BRANCH   4  18
ATOM     18  C   UNL     1       5.766  -8.554   0.867  0.00  0.00    +0.017 C 
ATOM     19  C   UNL     1       6.955  -7.724   0.381  0.00  0.00    -0.004 C 
BRANCH  18  20
ATOM     20  C   UNL     1       5.979  -8.940   2.308  0.00  0.00    +0.207 C 
ATOM     21  O   UNL     1       5.532  -8.245   3.195  0.00  0.00    -0.277 OA
ATOM     22  N   UNL     1       6.667 -10.059   2.611  0.00  0.00    -0.242 N 
ATOM     23  C   UNL     1       6.858 -10.405   3.900  0.00  0.00    +0.306 C 
ATOM     24  O   UNL     1       6.410  -9.708   4.789  0.00  0.00    -0.252 OA
ATOM     25  N   UNL     1       7.546 -11.523   4.203  0.00  0.00    -0.297 N 
ATOM     26  H   UNL     1       7.025 -10.615   1.902  0.00  0.00    +0.159 HD
ATOM     27  H   UNL     1       7.904 -12.079   3.493  0.00  0.00    +0.150 HD
BRANCH  25  28
ATOM     28  C   UNL     1       7.754 -11.899   5.604  0.00  0.00    +0.133 C 
BRANCH  28  29
ATOM     29  C   UNL     1       8.559 -13.198   5.669  0.00  0.00    +0.178 C 
BRANCH  29  30
ATOM     30  O   UNL     1       9.867 -12.976   5.140  0.00  0.00    -0.381 OA
ATOM     31  C   UNL     1      10.705 -14.133   5.155  0.00  0.00    +0.194 C 
ENDBRANCH  29  30
ENDBRANCH  28  29
ENDBRANCH  25  28
ENDBRANCH  18  20
ENDBRANCH   4  18
TORSDOF 7
