REMARK  Name = ZINC35246124
REMARK  13 active torsions:
REMARK  status: ('A' for Active; 'I' for Inactive)
REMARK    1  A    between atoms: C_1  and  C_2
REMARK    2  A    between atoms: C_5  and  N_8
REMARK    3  A    between atoms: C_9  and  C_23
REMARK    4  A    between atoms: C_12  and  S_13
REMARK    5  A    between atoms: S_13  and  C_14
REMARK    6  A    between atoms: C_14  and  C_15
REMARK    7  A    between atoms: C_19  and  O_21
REMARK    8  A    between atoms: O_21  and  C_22
REMARK    9  A    between atoms: C_23  and  C_25
REMARK   10  A    between atoms: C_23  and  N_26
REMARK   11  A    between atoms: N_26  and  S_27
REMARK   12  A    between atoms: S_27  and  C_30
REMARK   13  A    between atoms: C_30  and  C_31
REMARK                            x       y       z     vdW  Elec       q    Type
REMARK                         _______ _______ _______ _____ _____    ______ ____
ROOT
ATOM      1  N   UNL     1       0.058  -4.173  -0.021  0.00  0.00    -0.273 N 
ATOM      2  C   UNL     1      -0.920  -5.016   0.436  0.00  0.00    +0.157 A 
ATOM      3  N   UNL     1      -0.502  -6.235   0.242  0.00  0.00    -0.131 NA
ATOM      4  N   UNL     1       0.663  -6.223  -0.301  0.00  0.00    -0.122 NA
ATOM      5  C   UNL     1       1.054  -4.984  -0.491  0.00  0.00    +0.196 A 
ENDROOT
BRANCH   1  10
ATOM      6  C   UNL     1      -0.018   1.503   0.010  0.00  0.00    +0.044 C 
ATOM      7  C   UNL     1       0.002  -0.004   0.002  0.00  0.00    -0.050 A 
ATOM      8  C   UNL     1       0.006  -0.688  -1.200  0.00  0.00    +0.005 A 
ATOM      9  C   UNL     1       0.024  -2.069  -1.211  0.00  0.00    +0.026 A 
ATOM     10  C   UNL     1       0.040  -2.771  -0.013  0.00  0.00    +0.050 A 
ATOM     11  C   UNL     1       0.036  -2.082   1.192  0.00  0.00    +0.026 A 
ATOM     12  C   UNL     1       0.023  -0.700   1.196  0.00  0.00    +0.005 A 
ENDBRANCH   1  10
BRANCH   2  13
ATOM     13  C   UNL     1      -2.235  -4.610   1.049  0.00  0.00    +0.141 C 
ATOM     14  C   UNL     1      -3.361  -4.832   0.037  0.00  0.00    +0.034 C 
BRANCH  13  15
ATOM     15  N   UNL     1      -2.487  -5.418   2.244  0.00  0.00    -0.184 NA
ATOM     16  H   UNL     1      -2.203  -6.345   2.272  0.00  0.00    +0.148 HD
BRANCH  15  17
ATOM     17  S   UNL     1      -3.257  -4.750   3.549  0.00  0.00    +0.034 S 
ATOM     18  O   UNL     1      -3.308  -5.792   4.514  0.00  0.00    -0.158 OA
ATOM     19  O   UNL     1      -2.543  -3.550   3.816  0.00  0.00    -0.158 OA
BRANCH  17  20
ATOM     20  C   UNL     1      -4.928  -4.364   2.957  0.00  0.00    +0.220 C 
BRANCH  20  21
ATOM     21  C   UNL     1      -5.726  -3.745   4.075  0.00  0.00    -0.025 A 
ATOM     22  C   UNL     1      -6.458  -4.548   4.929  0.00  0.00    +0.005 A 
ATOM     23  C   UNL     1      -7.191  -3.979   5.954  0.00  0.00    +0.000 A 
ATOM     24  C   UNL     1      -7.191  -2.607   6.126  0.00  0.00    +0.000 A 
ATOM     25  C   UNL     1      -6.458  -1.804   5.272  0.00  0.00    +0.000 A 
ATOM     26  C   UNL     1      -5.722  -2.373   4.249  0.00  0.00    +0.005 A 
ENDBRANCH  20  21
ENDBRANCH  17  20
ENDBRANCH  15  17
ENDBRANCH  13  15
ENDBRANCH   2  13
BRANCH   5  27
ATOM     27  S   UNL     1       2.576  -4.465  -1.212  0.00  0.00    -0.081 S 
BRANCH  27  28
ATOM     28  C   UNL     1       3.425  -6.017  -1.612  0.00  0.00    +0.112 C 
BRANCH  28  29
ATOM     29  C   UNL     1       4.759  -5.712  -2.243  0.00  0.00    -0.034 A 
ATOM     30  C   UNL     1       4.857  -5.568  -3.615  0.00  0.00    +0.005 A 
ATOM     31  C   UNL     1       6.079  -5.288  -4.197  0.00  0.00    +0.004 A 
ATOM     32  C   UNL     1       7.206  -5.153  -3.409  0.00  0.00    +0.045 A 
ATOM     33  C   UNL     1       7.110  -5.297  -2.033  0.00  0.00    +0.120 A 
ATOM     34  C   UNL     1       5.881  -5.572  -1.451  0.00  0.00    +0.050 A 
BRANCH  33  35
ATOM     35  O   UNL     1       8.217  -5.164  -1.256  0.00  0.00    -0.495 OA
ATOM     36  C   UNL     1       9.447  -4.875  -1.924  0.00  0.00    +0.277 C 
ENDBRANCH  33  35
ENDBRANCH  28  29
ENDBRANCH  27  28
ENDBRANCH   5  27
TORSDOF 10
