REMARK  Name = ZINC64417100
REMARK  8 active torsions:
REMARK  status: ('A' for Active; 'I' for Inactive)
REMARK    1  A    between atoms: C_7  and  C_12
REMARK    2  A    between atoms: C_12  and  C_13
REMARK    3  A    between atoms: N_15  and  C_16
REMARK    4  A    between atoms: C_16  and  C_17
REMARK    5  A    between atoms: C_17  and  C_18
REMARK    6  A    between atoms: N_20  and  C_21
REMARK    7  A    between atoms: C_21  and  C_22
REMARK    8  A    between atoms: C_22  and  C_23
REMARK                            x       y       z     vdW  Elec       q    Type
REMARK                         _______ _______ _______ _____ _____    ______ ____
ROOT
ATOM      1  C   UNL     1      -0.249  -6.777  -0.033  0.00  0.00    +0.113 C 
ENDROOT
BRANCH   1   4
ATOM      2  C   UNL     1       0.387  -4.425  -0.026  0.00  0.00    +0.219 C 
ATOM      3  O   UNL     1       1.550  -4.770  -0.040  0.00  0.00    -0.275 OA
ATOM      4  N   UNL     1      -0.591  -5.352  -0.022  0.00  0.00    -0.315 N 
ATOM      5  H   UNL     1      -1.521  -5.077  -0.011  0.00  0.00    +0.149 HD
BRANCH   2   6
ATOM      6  C   UNL     1       0.036  -2.959  -0.014  0.00  0.00    +0.153 C 
BRANCH   6  13
ATOM      7  C   UNL     1      -0.017   1.363   0.009  0.00  0.00    +0.001 A 
ATOM      8  C   UNL     1       1.165   2.092   0.002  0.00  0.00    +0.001 A 
ATOM      9  C   UNL     1       2.386   1.454  -0.013  0.00  0.00    +0.014 A 
ATOM     10  C   UNL     1       2.429   0.060  -0.021  0.00  0.00    +0.050 A 
ATOM     11  C   UNL     1       1.224  -0.679  -0.013  0.00  0.00    +0.011 A 
ATOM     12  C   UNL     1       0.002  -0.004   0.002  0.00  0.00    +0.010 A 
ATOM     13  C   UNL     1       1.300  -2.140  -0.022  0.00  0.00    +0.078 A 
ATOM     14  N   UNL     1       2.458  -2.731  -0.037  0.00  0.00    -0.175 NA
ATOM     15  N   UNL     1       3.663  -2.028  -0.045  0.00  0.00    -0.242 N 
ATOM     16  C   UNL     1       3.698  -0.679  -0.038  0.00  0.00    +0.272 A 
ATOM     17  O   UNL     1       4.762  -0.086  -0.046  0.00  0.00    -0.266 OA
ATOM     18  H   UNL     1       4.497  -2.522  -0.056  0.00  0.00    +0.192 HD
ENDBRANCH   6  13
ENDBRANCH   2   6
ENDBRANCH   1   4
BRANCH   1  19
ATOM     19  C   UNL     1      -1.533  -7.609  -0.025  0.00  0.00    +0.114 C 
BRANCH  19  20
ATOM     20  C   UNL     1      -1.181  -9.075  -0.037  0.00  0.00    +0.215 C 
ATOM     21  O   UNL     1      -0.019  -9.419  -0.051  0.00  0.00    -0.276 OA
ATOM     22  N   UNL     1      -2.159 -10.002  -0.032  0.00  0.00    -0.315 N 
ATOM     23  H   UNL     1      -3.089  -9.727  -0.021  0.00  0.00    +0.149 HD
BRANCH  22  24
ATOM     24  C   UNL     1      -1.818 -11.427  -0.044  0.00  0.00    +0.108 C 
BRANCH  24  25
ATOM     25  C   UNL     1      -3.101 -12.259  -0.036  0.00  0.00    +0.052 C 
BRANCH  25  26
ATOM     26  C   UNL     1      -2.750 -13.725  -0.048  0.00  0.00    -0.040 C 
ATOM     27  C   UNL     1      -2.646 -14.545   1.023  0.00  0.00    -0.001 A 
ATOM     28  C   UNL     1      -2.822 -14.326   2.464  0.00  0.00    +0.010 A 
ATOM     29  C   UNL     1      -2.646 -15.365   3.311  0.00  0.00    +0.001 A 
ATOM     30  C   UNL     1      -2.301 -16.643   2.849  0.00  0.00    +0.002 A 
ATOM     31  C   UNL     1      -2.122 -16.921   1.540  0.00  0.00    +0.026 A 
ATOM     32  C   UNL     1      -2.282 -15.903   0.560  0.00  0.00    +0.043 A 
ATOM     33  N   UNL     1      -2.165 -15.922  -0.745  0.00  0.00    -0.380 N 
ATOM     34  C   UNL     1      -2.448 -14.578  -1.260  0.00  0.00    +0.144 C 
ATOM     35  H   UNL     1      -1.934 -16.696  -1.282  0.00  0.00    +0.160 HD
ENDBRANCH  25  26
ENDBRANCH  24  25
ENDBRANCH  22  24
ENDBRANCH  19  20
ENDBRANCH   1  19
TORSDOF 8
