REMARK  Name = ZINC39049163
REMARK  1 active torsions:
REMARK  status: ('A' for Active; 'I' for Inactive)
REMARK    1  A    between atoms: C_2  and  C_3
REMARK                            x       y       z     vdW  Elec       q    Type
REMARK                         _______ _______ _______ _____ _____    ______ ____
ROOT
ATOM      1  C   UNL     1      -0.018   1.468   0.010  0.00  0.00    +0.146 C 
ATOM      2  C   UNL     1      -0.694   2.018   1.271  0.00  0.00    +0.045 C 
ATOM      3  C   UNL     1       0.128   3.225   1.745  0.00  0.00    +0.004 C 
ATOM      4  C   UNL     1       1.289   3.401   0.756  0.00  0.00    +0.009 C 
ATOM      5  C   UNL     1       1.418   2.066  -0.000  0.00  0.00    +0.054 C 
ATOM      6  C   UNL     1       1.568   2.359  -1.515  0.00  0.00    +0.172 C 
ATOM      7  N   UNL     1       0.184   2.471  -1.996  0.00  0.00    -0.191 NA
ATOM      8  N   UNL     1      -0.637   2.009  -1.204  0.00  0.00    -0.172 NA
ENDROOT
BRANCH   1  10
ATOM      9  C   UNL     1       0.018  -1.178  -0.004  0.00  0.00    +0.006 C 
ATOM     10  C   UNL     1       0.002  -0.004   0.002  0.00  0.00    -0.073 C 
ENDBRANCH   1  10
TORSDOF 1
