REMARK  Name = ZINC43217221
REMARK  8 active torsions:
REMARK  status: ('A' for Active; 'I' for Inactive)
REMARK    1  A    between atoms: C_1  and  C_2
REMARK    2  A    between atoms: C_2  and  C_4
REMARK    3  A    between atoms: C_2  and  N_10
REMARK    4  A    between atoms: C_11  and  C_13
REMARK    5  A    between atoms: C_16  and  C_18
REMARK    6  A    between atoms: C_18  and  C_20
REMARK    7  A    between atoms: C_18  and  N_31
REMARK    8  A    between atoms: C_20  and  C_21
REMARK                            x       y       z     vdW  Elec       q    Type
REMARK                         _______ _______ _______ _____ _____    ______ ____
ROOT
ATOM      1  C   UNL     1       0.696  -1.084  -3.571  0.00  0.00    +0.163 A 
ATOM      2  C   UNL     1       0.141  -1.258  -4.802  0.00  0.00    +0.230 A 
ATOM      3  O   UNL     1       1.116  -1.701  -5.612  0.00  0.00    -0.449 OA
ATOM      4  C   UNL     1       2.245  -1.796  -4.896  0.00  0.00    +0.182 A 
ATOM      5  N   UNL     1       2.010  -1.425  -3.673  0.00  0.00    -0.210 NA
ENDROOT
BRANCH   1   7
ATOM      6  N   UNL     1       0.688  -0.476  -1.203  0.00  0.00    -0.303 N 
ATOM      7  C   UNL     1       0.006  -0.608  -2.358  0.00  0.00    +0.266 C 
ATOM      8  O   UNL     1      -1.178  -0.335  -2.400  0.00  0.00    -0.268 OA
ATOM      9  H   UNL     1       1.632  -0.695  -1.170  0.00  0.00    +0.150 HD
BRANCH   6  11
ATOM     10  C   UNL     1      -0.019   1.526   0.010  0.00  0.00    +0.033 C 
ATOM     11  C   UNL     1       0.002  -0.004   0.002  0.00  0.00    +0.100 C 
BRANCH  11  12
ATOM     12  C   UNL     1       0.731  -0.503   1.223  0.00  0.00    -0.027 A 
ATOM     13  C   UNL     1       2.113  -0.514   1.247  0.00  0.00    +0.005 A 
ATOM     14  C   UNL     1       2.782  -0.972   2.366  0.00  0.00    +0.000 A 
ATOM     15  C   UNL     1       2.068  -1.419   3.463  0.00  0.00    +0.000 A 
ATOM     16  C   UNL     1       0.686  -1.407   3.439  0.00  0.00    +0.000 A 
ATOM     17  C   UNL     1       0.017  -0.945   2.321  0.00  0.00    +0.005 A 
ENDBRANCH  11  12
ENDBRANCH   6  11
ENDBRANCH   1   7
BRANCH   4  18
ATOM     18  C   UNL     1       3.578  -2.256  -5.426  0.00  0.00    +0.017 C 
BRANCH  18  19
ATOM     19  N   UNL     1       3.389  -3.457  -6.252  0.00  0.00    +0.386 N 
ATOM     20  H   UNL     1       2.776  -3.241  -7.024  0.00  0.00    -0.089 HD
ATOM     21  H   UNL     1       4.281  -3.765  -6.607  0.00  0.00    -0.089 HD
ATOM     22  H   UNL     1       2.979  -4.189  -5.692  0.00  0.00    -0.089 HD
ENDBRANCH  18  19
BRANCH  18  23
ATOM     23  C   UNL     1       4.200  -1.146  -6.276  0.00  0.00    +0.030 C 
BRANCH  23  24
ATOM     24  C   UNL     1       5.585  -1.558  -6.705  0.00  0.00    -0.023 A 
ATOM     25  C   UNL     1       6.737  -1.250  -6.088  0.00  0.00    +0.087 A 
ATOM     26  N   UNL     1       7.791  -1.798  -6.766  0.00  0.00    -0.360 N 
ATOM     27  H   UNL     1       8.723  -1.712  -6.512  0.00  0.00    +0.165 HD
ATOM     28  C   UNL     1       7.331  -2.490  -7.864  0.00  0.00    +0.047 A 
ATOM     29  C   UNL     1       5.929  -2.375  -7.870  0.00  0.00    +0.003 A 
ATOM     30  C   UNL     1       5.184  -2.990  -8.878  0.00  0.00    +0.010 A 
ATOM     31  C   UNL     1       5.822  -3.704  -9.854  0.00  0.00    +0.001 A 
ATOM     32  C   UNL     1       7.205  -3.824  -9.850  0.00  0.00    +0.002 A 
ATOM     33  C   UNL     1       7.960  -3.218  -8.870  0.00  0.00    +0.026 A 
ENDBRANCH  23  24
ENDBRANCH  18  23
ENDBRANCH   4  18
TORSDOF 7
