REMARK  Name = ZINC16610484
REMARK  13 active torsions:
REMARK  status: ('A' for Active; 'I' for Inactive)
REMARK    1  A    between atoms: C_1  and  C_2
REMARK    2  A    between atoms: C_2  and  N_3
REMARK    3  A    between atoms: C_4  and  C_37
REMARK    4  A    between atoms: C_5  and  C_30
REMARK    5  A    between atoms: C_6  and  C_11
REMARK    6  A    between atoms: C_14  and  N_17
REMARK    7  A    between atoms: N_20  and  C_21
REMARK    8  A    between atoms: C_24  and  N_27
REMARK    9  A    between atoms: C_30  and  O_32
REMARK   10  A    between atoms: O_32  and  C_33
REMARK   11  A    between atoms: C_33  and  C_34
REMARK   12  A    between atoms: C_34  and  C_35
REMARK   13  A    between atoms: C_34  and  C_36
REMARK                            x       y       z     vdW  Elec       q    Type
REMARK                         _______ _______ _______ _____ _____    ______ ____
ROOT
ATOM      1  C   UNL     1      -1.941   0.697   0.226  0.00  0.00    -0.022 A 
ATOM      2  C   UNL     1      -0.686   0.184  -0.043  0.00  0.00    +0.007 A 
ATOM      3  C   UNL     1       0.288   0.992  -0.596  0.00  0.00    +0.024 A 
ATOM      4  C   UNL     1       0.007   2.322  -0.877  0.00  0.00    +0.035 A 
ATOM      5  C   UNL     1      -1.253   2.836  -0.601  0.00  0.00    +0.024 A 
ATOM      6  C   UNL     1      -2.223   2.023  -0.048  0.00  0.00    +0.007 A 
ENDROOT
BRANCH   1  10
ATOM      7  N   UNL     1      -5.367   0.655   1.986  0.00  0.00    -0.286 N 
ATOM      8  C   UNL     1      -4.278   0.524   2.797  0.00  0.00    +0.021 C 
ATOM      9  C   UNL     1      -3.087   0.116   2.305  0.00  0.00    +0.078 C 
ATOM     10  C   UNL     1      -3.004  -0.189   0.823  0.00  0.00    +0.141 C 
ATOM     11  N   UNL     1      -4.236  -0.015   0.036  0.00  0.00    -0.315 N 
ATOM     12  C   UNL     1      -5.350   0.399   0.671  0.00  0.00    +0.138 C 
ATOM     13  S   UNL     1      -6.790   0.605  -0.231  0.00  0.00    -0.018 S 
ATOM     14  C   UNL     1      -4.404   0.839   4.265  0.00  0.00    +0.061 C 
ATOM     15  H   UNL     1      -4.246  -0.196  -0.917  0.00  0.00    +0.149 HD
BRANCH   7  17
ATOM     16  C   UNL     1      -7.364  -0.101   3.177  0.00  0.00    +0.025 C 
ATOM     17  C   UNL     1      -6.626   1.102   2.586  0.00  0.00    +0.109 C 
ENDBRANCH   7  17
BRANCH   9  18
ATOM     18  C   UNL     1      -1.958  -0.021   3.145  0.00  0.00    +0.339 C 
ATOM     19  O   UNL     1      -0.880  -0.326   2.670  0.00  0.00    -0.245 OA
BRANCH  18  20
ATOM     20  O   UNL     1      -2.075   0.187   4.473  0.00  0.00    -0.461 OA
BRANCH  20  21
ATOM     21  C   UNL     1      -0.874   0.141   5.246  0.00  0.00    +0.235 C 
BRANCH  21  22
ATOM     22  C   UNL     1      -1.217   0.277   6.731  0.00  0.00    +0.020 C 
ATOM     23  C   UNL     1      -2.029  -0.939   7.180  0.00  0.00    +0.010 C 
ATOM     24  C   UNL     1       0.075   0.357   7.547  0.00  0.00    +0.010 C 
ENDBRANCH  21  22
ENDBRANCH  20  21
ENDBRANCH  18  20
ENDBRANCH   9  18
ENDBRANCH   1  10
BRANCH   4  25
ATOM     25  N   UNL     1       0.992   3.144  -1.438  0.00  0.00    -0.269 N 
ATOM     26  C   UNL     1       1.895   2.625  -2.293  0.00  0.00    +0.308 C 
ATOM     27  O   UNL     1       1.800   1.466  -2.649  0.00  0.00    -0.252 OA
ATOM     28  N   UNL     1       2.903   3.391  -2.755  0.00  0.00    -0.269 N 
ATOM     29  H   UNL     1       1.024   4.086  -1.210  0.00  0.00    +0.156 HD
ATOM     30  H   UNL     1       3.022   4.293  -2.416  0.00  0.00    +0.156 HD
BRANCH  28  31
ATOM     31  C   UNL     1       3.780   2.886  -3.722  0.00  0.00    +0.035 A 
ATOM     32  C   UNL     1       5.112   3.277  -3.725  0.00  0.00    +0.025 A 
ATOM     33  C   UNL     1       5.975   2.774  -4.679  0.00  0.00    +0.034 A 
ATOM     34  C   UNL     1       5.512   1.889  -5.635  0.00  0.00    +0.126 A 
ATOM     35  C   UNL     1       4.184   1.502  -5.638  0.00  0.00    +0.034 A 
ATOM     36  C   UNL     1       3.317   1.998  -4.684  0.00  0.00    +0.025 A 
BRANCH  34  37
ATOM     37  N   UNL     1       6.438   1.356  -6.659  0.00  0.00    +0.056 N 
ATOM     38  O   UNL     1       6.031   0.577  -7.502  0.00  0.00    -0.126 OA
ATOM     39  O   UNL     1       7.608   1.696  -6.658  0.00  0.00    -0.126 OA
ENDBRANCH  34  37
ENDBRANCH  28  31
ENDBRANCH   4  25
TORSDOF 9
