REMARK  Name = ZINC36660268
REMARK  12 active torsions:
REMARK  status: ('A' for Active; 'I' for Inactive)
REMARK    1  A    between atoms: C_1  and  C_2
REMARK    2  A    between atoms: C_2  and  C_3
REMARK    3  A    between atoms: N_12  and  C_13
REMARK    4  A    between atoms: C_13  and  C_14
REMARK    5  A    between atoms: C_14  and  C_15
REMARK    6  A    between atoms: C_15  and  N_16
REMARK    7  A    between atoms: N_16  and  C_17
REMARK    8  A    between atoms: N_16  and  C_18
REMARK    9  A    between atoms: C_19  and  C_21
REMARK   10  A    between atoms: N_26  and  S_27
REMARK   11  A    between atoms: S_27  and  C_30
REMARK   12  A    between atoms: C_33  and  C_36
REMARK                            x       y       z     vdW  Elec       q    Type
REMARK                         _______ _______ _______ _____ _____    ______ ____
ROOT
ATOM      1  C   UNL     1       2.070  -1.212   1.305  0.00  0.00    -0.046 A 
ATOM      2  C   UNL     1       3.435  -1.295   1.541  0.00  0.00    +0.006 A 
ATOM      3  C   UNL     1       3.930  -1.630   2.774  0.00  0.00    +0.029 A 
ATOM      4  C   UNL     1       3.057  -1.904   3.852  0.00  0.00    +0.080 A 
ATOM      5  C   UNL     1       1.674  -1.809   3.576  0.00  0.00    +0.041 A 
ATOM      6  C   UNL     1       1.188  -1.467   2.339  0.00  0.00    +0.021 A 
ATOM      7  S   UNL     1       0.946  -2.215   5.145  0.00  0.00    -0.052 S 
ATOM      8  C   UNL     1       2.471  -2.475   6.039  0.00  0.00    +0.168 A 
ATOM      9  N   UNL     1       3.378  -2.245   5.119  0.00  0.00    -0.224 NA
ATOM     10  N   UNL     1       2.651  -2.831   7.366  0.00  0.00    -0.249 N 
ATOM     11  C   UNL     1       1.580  -3.026   8.162  0.00  0.00    +0.240 C 
ATOM     12  O   UNL     1       0.462  -2.983   7.696  0.00  0.00    -0.273 OA
ENDROOT
BRANCH  11  13
ATOM     13  C   UNL     1       1.774  -3.299   9.632  0.00  0.00    +0.166 C 
ATOM     14  C   UNL     1       1.887  -4.819   9.873  0.00  0.00    +0.031 C 
ATOM     15  C   UNL     1       1.112  -5.018  11.202  0.00  0.00    +0.019 C 
ATOM     16  C   UNL     1      -0.023  -3.973  11.060  0.00  0.00    +0.110 C 
ATOM     17  N   UNL     1       0.607  -2.819  10.387  0.00  0.00    -0.165 NA
BRANCH  17  18
ATOM     18  S   UNL     1       0.089  -1.248  10.467  0.00  0.00    +0.062 S 
ATOM     19  O   UNL     1      -0.529  -1.089  11.737  0.00  0.00    -0.153 OA
ATOM     20  O   UNL     1       1.177  -0.439  10.043  0.00  0.00    -0.153 OA
BRANCH  18  21
ATOM     21  C   UNL     1      -1.181  -1.056   9.262  0.00  0.00    +0.106 A 
ATOM     22  C   UNL     1      -0.874  -0.568   8.005  0.00  0.00    +0.029 A 
ATOM     23  C   UNL     1      -1.871  -0.418   7.059  0.00  0.00    +0.005 A 
ATOM     24  C   UNL     1      -3.175  -0.755   7.370  0.00  0.00    -0.050 A 
ATOM     25  C   UNL     1      -3.482  -1.244   8.626  0.00  0.00    +0.005 A 
ATOM     26  C   UNL     1      -2.485  -1.399   9.570  0.00  0.00    +0.029 A 
ATOM     27  C   UNL     1      -4.261  -0.590   6.339  0.00  0.00    +0.044 C 
ENDBRANCH  18  21
ENDBRANCH  17  18
ENDBRANCH  11  13
BRANCH   1  29
ATOM     28  C   UNL     1       1.408   0.679  -0.156  0.00  0.00    +0.009 C 
ATOM     29  C   UNL     1       1.555  -0.841  -0.062  0.00  0.00    +0.032 C 
ENDBRANCH   1  29
BRANCH  10  30
ATOM     30  C   UNL     1       4.003  -2.994   7.905  0.00  0.00    +0.114 C 
BRANCH  30  31
ATOM     31  C   UNL     1       4.516  -1.645   8.412  0.00  0.00    +0.001 C 
BRANCH  31  32
ATOM     32  C   UNL     1       5.929  -1.816   8.975  0.00  0.00    -0.078 C 
BRANCH  32  33
ATOM     33  N   UNL     1       6.422  -0.520   9.462  0.00  0.00    +0.376 N 
ATOM     34  C   UNL     1       5.602  -0.081  10.599  0.00  0.00    -0.097 C 
ATOM     35  C   UNL     1       7.820  -0.659   9.892  0.00  0.00    -0.097 C 
ATOM     36  H   UNL     1       6.363   0.162   8.722  0.00  0.00    -0.083 HD
ENDBRANCH  32  33
ENDBRANCH  31  32
ENDBRANCH  30  31
ENDBRANCH  10  30
TORSDOF 8
