REMARK  Name = ZINC63537981
REMARK  8 active torsions:
REMARK  status: ('A' for Active; 'I' for Inactive)
REMARK    1  A    between atoms: C_1  and  O_2
REMARK    2  A    between atoms: O_2  and  C_3
REMARK    3  A    between atoms: C_7  and  C_10
REMARK    4  A    between atoms: C_8  and  O_9
REMARK    5  A    between atoms: N_14  and  C_24
REMARK    6  A    between atoms: N_16  and  C_17
REMARK    7  A    between atoms: C_24  and  C_25
REMARK    8  A    between atoms: C_25  and  C_26
REMARK                            x       y       z     vdW  Elec       q    Type
REMARK                         _______ _______ _______ _____ _____    ______ ____
ROOT
ATOM      1  C   UNL     1      -2.571  -4.139   0.017  0.00  0.00    +0.032 C 
ATOM      2  C   UNL     1      -3.772  -4.761   0.128  0.00  0.00    +0.078 C 
ATOM      3  C   UNL     1      -5.128  -4.180   0.154  0.00  0.00    +0.259 C 
ATOM      4  O   UNL     1      -5.307  -2.979   0.071  0.00  0.00    -0.269 OA
ATOM      5  N   UNL     1      -6.140  -5.023   0.272  0.00  0.00    -0.246 N 
ATOM      6  C   UNL     1      -5.916  -6.380   0.366  0.00  0.00    +0.168 C 
ATOM      7  N   UNL     1      -6.798  -7.346   0.487  0.00  0.00    -0.225 NA
ATOM      8  S   UNL     1      -4.138  -6.504   0.274  0.00  0.00    -0.049 S 
ENDROOT
BRANCH   1  13
ATOM      9  C   UNL     1      -1.585  -0.589  -0.733  0.00  0.00    +0.162 A 
ATOM     10  C   UNL     1      -2.353   0.097   0.195  0.00  0.00    +0.049 A 
ATOM     11  C   UNL     1      -3.186  -0.592   1.061  0.00  0.00    +0.004 A 
ATOM     12  C   UNL     1      -3.262  -1.966   1.009  0.00  0.00    +0.012 A 
ATOM     13  C   UNL     1      -2.494  -2.675   0.076  0.00  0.00    +0.021 A 
ATOM     14  C   UNL     1      -1.654  -1.976  -0.804  0.00  0.00    +0.166 A 
BRANCH   9  16
ATOM     15  C   UNL     1      -0.749   1.518  -1.451  0.00  0.00    +0.277 C 
ATOM     16  O   UNL     1      -0.769   0.095  -1.579  0.00  0.00    -0.491 OA
ENDBRANCH   9  16
BRANCH  14  17
ATOM     17  O   UNL     1      -0.908  -2.651  -1.717  0.00  0.00    -0.503 OA
ATOM     18  H   UNL     1      -0.033  -2.908  -1.396  0.00  0.00    +0.292 HD
ENDBRANCH  14  17
ENDBRANCH   1  13
BRANCH   7  19
ATOM     19  C   UNL     1      -6.381  -8.647   0.566  0.00  0.00    +0.067 A 
ATOM     20  C   UNL     1      -5.395  -9.122  -0.303  0.00  0.00    +0.028 A 
ATOM     21  C   UNL     1      -4.979 -10.434  -0.218  0.00  0.00    +0.002 A 
ATOM     22  C   UNL     1      -5.536 -11.280   0.725  0.00  0.00    +0.000 A 
ATOM     23  C   UNL     1      -6.513 -10.817   1.589  0.00  0.00    +0.002 A 
ATOM     24  C   UNL     1      -6.934  -9.505   1.519  0.00  0.00    +0.028 A 
ENDBRANCH   7  19
BRANCH   5  25
ATOM     25  C   UNL     1      -7.512  -4.510   0.305  0.00  0.00    +0.120 C 
BRANCH  25  26
ATOM     26  C   UNL     1      -8.065  -4.443  -1.120  0.00  0.00    +0.052 C 
BRANCH  26  27
ATOM     27  C   UNL     1      -9.476  -3.915  -1.087  0.00  0.00    -0.040 C 
ATOM     28  C   UNL     1      -9.869  -2.633  -1.266  0.00  0.00    -0.001 A 
ATOM     29  C   UNL     1      -9.129  -1.394  -1.533  0.00  0.00    +0.010 A 
ATOM     30  C   UNL     1      -9.815  -0.236  -1.666  0.00  0.00    +0.001 A 
ATOM     31  C   UNL     1     -11.211  -0.189  -1.554  0.00  0.00    +0.002 A 
ATOM     32  C   UNL     1     -11.960  -1.285  -1.309  0.00  0.00    +0.026 A 
ATOM     33  C   UNL     1     -11.343  -2.557  -1.153  0.00  0.00    +0.043 A 
ATOM     34  N   UNL     1     -11.842  -3.746  -0.913  0.00  0.00    -0.380 N 
ATOM     35  C   UNL     1     -10.740  -4.712  -0.853  0.00  0.00    +0.144 C 
ATOM     36  H   UNL     1     -12.783  -3.952  -0.799  0.00  0.00    +0.160 HD
ENDBRANCH  26  27
ENDBRANCH  25  26
ENDBRANCH   5  25
TORSDOF 7
