REMARK  Name = ZINC06075179
REMARK  11 active torsions:
REMARK  status: ('A' for Active; 'I' for Inactive)
REMARK    1  A    between atoms: C_1  and  C_2
REMARK    2  A    between atoms: C_2  and  C_3
REMARK    3  A    between atoms: C_2  and  C_4
REMARK    4  A    between atoms: C_2  and  N_5
REMARK    5  A    between atoms: C_6  and  C_8
REMARK    6  A    between atoms: C_8  and  C_10
REMARK    7  A    between atoms: C_8  and  N_16
REMARK    8  A    between atoms: N_16  and  C_17
REMARK    9  A    between atoms: C_24  and  C_26
REMARK   10  A    between atoms: C_26  and  N_27
REMARK   11  A    between atoms: C_29  and  C_32
REMARK                            x       y       z     vdW  Elec       q    Type
REMARK                         _______ _______ _______ _____ _____    ______ ____
ROOT
ATOM      1  N   UNL     1      -1.333   1.802   0.316  0.00  0.00    -0.254 N 
ATOM      2  C   UNL     1      -0.165   1.133   0.386  0.00  0.00    +0.244 C 
ATOM      3  O   UNL     1      -0.125  -0.047   0.105  0.00  0.00    -0.273 OA
ENDROOT
BRANCH   1   4
ATOM      4  C   UNL     1      -1.361   3.183   0.540  0.00  0.00    +0.040 A 
ATOM      5  C   UNL     1      -0.790   4.050  -0.384  0.00  0.00    +0.024 A 
ATOM      6  C   UNL     1      -0.823   5.412  -0.164  0.00  0.00    +0.005 A 
ATOM      7  C   UNL     1      -1.417   5.916   0.979  0.00  0.00    +0.038 A 
ATOM      8  C   UNL     1      -1.983   5.056   1.905  0.00  0.00    +0.125 A 
ATOM      9  C   UNL     1      -1.956   3.690   1.687  0.00  0.00    +0.062 A 
ATOM     10  F   UNL     1      -2.562   5.550   3.021  0.00  0.00    -0.205 F 
ENDBRANCH   1   4
BRANCH   1  11
ATOM     11  C   UNL     1      -2.571   1.084   0.006  0.00  0.00    +0.197 C 
BRANCH  11  12
ATOM     12  C   UNL     1      -3.742   2.024   0.134  0.00  0.00    -0.015 A 
ATOM     13  C   UNL     1      -3.798   3.194  -0.609  0.00  0.00    +0.025 A 
ATOM     14  C   UNL     1      -4.890   4.029  -0.468  0.00  0.00    +0.111 A 
ATOM     15  N   UNL     1      -5.865   3.730   0.368  0.00  0.00    -0.263 NA
ATOM     16  C   UNL     1      -5.843   2.629   1.094  0.00  0.00    +0.111 A 
ATOM     17  C   UNL     1      -4.786   1.744   1.002  0.00  0.00    +0.025 A 
ENDBRANCH  11  12
BRANCH  11  19
ATOM     18  N   UNL     1      -3.541  -0.145  -1.909  0.00  0.00    -0.309 N 
ATOM     19  C   UNL     1      -2.505   0.554  -1.403  0.00  0.00    +0.239 C 
ATOM     20  O   UNL     1      -1.520   0.755  -2.081  0.00  0.00    -0.273 OA
ATOM     21  H   UNL     1      -4.328  -0.306  -1.366  0.00  0.00    +0.149 HD
BRANCH  18  23
ATOM     22  C   UNL     1      -2.288  -1.615  -3.409  0.00  0.00    +0.031 C 
ATOM     23  C   UNL     1      -3.476  -0.661  -3.279  0.00  0.00    +0.026 C 
ATOM     24  C   UNL     1      -4.770  -1.411  -3.602  0.00  0.00    +0.031 C 
ATOM     25  C   UNL     1      -3.304   0.504  -4.255  0.00  0.00    +0.031 C 
ENDBRANCH  18  23
ENDBRANCH  11  19
ENDBRANCH   1  11
BRANCH   2  26
ATOM     26  C   UNL     1       1.091   1.850   0.808  0.00  0.00    +0.264 C 
BRANCH  26  27
ATOM     27  N   UNL     1       2.189   0.887   0.920  0.00  0.00    -0.154 N 
ATOM     28  N   UNL     1       2.506   0.238   1.988  0.00  0.00    -0.130 NA
ATOM     29  C   UNL     1       3.537  -0.530   1.702  0.00  0.00    +0.205 A 
ATOM     30  N   UNL     1       3.836  -0.310   0.414  0.00  0.00    -0.108 NA
ATOM     31  N   UNL     1       2.994   0.560  -0.030  0.00  0.00    -0.045 NA
BRANCH  29  32
ATOM     32  C   UNL     1       4.237  -1.456   2.628  0.00  0.00    +0.023 A 
ATOM     33  C   UNL     1       3.812  -1.575   3.950  0.00  0.00    +0.013 A 
ATOM     34  C   UNL     1       4.462  -2.442   4.806  0.00  0.00    +0.021 A 
ATOM     35  C   UNL     1       5.541  -3.183   4.356  0.00  0.00    +0.041 A 
ATOM     36  C   UNL     1       5.970  -3.064   3.045  0.00  0.00    +0.021 A 
ATOM     37  C   UNL     1       5.323  -2.205   2.180  0.00  0.00    +0.013 A 
ATOM     38 CL   UNL     1       6.359  -4.266   5.439  0.00  0.00    -0.084 Cl
ENDBRANCH  29  32
ENDBRANCH  26  27
ENDBRANCH   2  26
TORSDOF 8
