REMARK  Name = ZINC33034374
REMARK  6 active torsions:
REMARK  status: ('A' for Active; 'I' for Inactive)
REMARK    1  A    between atoms: C_1  and  C_2
REMARK    2  A    between atoms: C_7  and  S_12
REMARK    3  A    between atoms: C_9  and  C_11
REMARK    4  A    between atoms: S_12  and  C_13
REMARK    5  A    between atoms: C_13  and  C_14
REMARK    6  A    between atoms: C_13  and  C_20
REMARK                            x       y       z     vdW  Elec       q    Type
REMARK                         _______ _______ _______ _____ _____    ______ ____
ROOT
ATOM      1  C   UNL     1       4.097   1.250   2.735  0.00  0.00    +0.114 C 
ENDROOT
BRANCH   1   2
ATOM      2  C   UNL     1       4.078   0.230   3.845  0.00  0.00    -0.030 A 
ATOM      3  C   UNL     1       3.345  -0.934   3.701  0.00  0.00    +0.005 A 
ATOM      4  C   UNL     1       3.332  -1.871   4.717  0.00  0.00    +0.000 A 
ATOM      5  C   UNL     1       4.043  -1.641   5.880  0.00  0.00    +0.000 A 
ATOM      6  C   UNL     1       4.770  -0.474   6.026  0.00  0.00    +0.000 A 
ATOM      7  C   UNL     1       4.788   0.461   5.008  0.00  0.00    +0.005 A 
ENDBRANCH   1   2
BRANCH   1   8
ATOM      8  C   UNL     1       4.848   0.693   1.554  0.00  0.00    -0.030 A 
ATOM      9  C   UNL     1       4.320  -0.363   0.834  0.00  0.00    +0.005 A 
ATOM     10  C   UNL     1       5.007  -0.871  -0.253  0.00  0.00    +0.000 A 
ATOM     11  C   UNL     1       6.227  -0.330  -0.614  0.00  0.00    +0.000 A 
ATOM     12  C   UNL     1       6.758   0.722   0.110  0.00  0.00    +0.000 A 
ATOM     13  C   UNL     1       6.068   1.233   1.193  0.00  0.00    +0.005 A 
ENDBRANCH   1   8
BRANCH   1  14
ATOM     14  S   UNL     1       2.395   1.637   2.241  0.00  0.00    -0.073 S 
BRANCH  14  21
ATOM     15  C   UNL     1      -3.234   4.575   5.027  0.00  0.00    +0.066 C 
ATOM     16  C   UNL     1      -1.915   3.976   4.612  0.00  0.00    +0.044 A 
ATOM     17  C   UNL     1      -0.879   3.957   5.491  0.00  0.00    +0.071 A 
ATOM     18  C   UNL     1       0.345   3.389   5.075  0.00  0.00    +0.165 A 
ATOM     19  N   UNL     1       1.519   3.206   5.639  0.00  0.00    -0.128 NA
ATOM     20  N   UNL     1       2.314   2.627   4.808  0.00  0.00    -0.122 NA
ATOM     21  C   UNL     1       1.701   2.405   3.667  0.00  0.00    +0.198 A 
ATOM     22  N   UNL     1       0.430   2.880   3.791  0.00  0.00    -0.258 N 
ATOM     23  C   UNL     1      -0.656   2.938   2.973  0.00  0.00    +0.114 A 
ATOM     24  N   UNL     1      -1.773   3.473   3.380  0.00  0.00    -0.239 NA
ATOM     25  C   UNL     1      -0.564   2.384   1.575  0.00  0.00    +0.086 C 
ENDBRANCH  14  21
ENDBRANCH   1  14
TORSDOF 4
