REMARK  Name = ZINC53112672
REMARK  6 active torsions:
REMARK  status: ('A' for Active; 'I' for Inactive)
REMARK    1  A    between atoms: C_3  and  S_9
REMARK    2  A    between atoms: C_6  and  N_7
REMARK    3  A    between atoms: S_9  and  N_12
REMARK    4  A    between atoms: N_12  and  C_13
REMARK    5  A    between atoms: C_13  and  C_19
REMARK    6  A    between atoms: C_19  and  O_20
REMARK                            x       y       z     vdW  Elec       q    Type
REMARK                         _______ _______ _______ _____ _____    ______ ____
ROOT
ATOM      1  S   UNL     1       4.284   2.603   0.065  0.00  0.00    +0.060 S 
ATOM      2  O   UNL     1       3.599   3.794   0.427  0.00  0.00    -0.153 OA
ATOM      3  O   UNL     1       3.671   1.574  -0.699  0.00  0.00    -0.153 OA
ENDROOT
BRANCH   1   6
ATOM      4  C   UNL     1       7.089   2.980  -2.786  0.00  0.00    +0.025 A 
ATOM      5  C   UNL     1       5.963   2.592  -2.087  0.00  0.00    +0.032 A 
ATOM      6  C   UNL     1       5.723   3.100  -0.823  0.00  0.00    +0.124 A 
ATOM      7  C   UNL     1       6.609   3.998  -0.255  0.00  0.00    +0.069 A 
ATOM      8  C   UNL     1       7.738   4.390  -0.950  0.00  0.00    +0.044 A 
ATOM      9  C   UNL     1       7.982   3.881  -2.219  0.00  0.00    +0.026 A 
ATOM     10 CL   UNL     1       6.304   4.633   1.332  0.00  0.00    -0.081 Cl
BRANCH   9  11
ATOM     11  N   UNL     1       9.121   4.274  -2.924  0.00  0.00    -0.358 N 
ATOM     12  H   UNL     1       9.291   3.918  -3.810  0.00  0.00    +0.142 HD
ATOM     13  H   UNL     1       9.744   4.903  -2.527  0.00  0.00    +0.142 HD
ENDBRANCH   9  11
ENDBRANCH   1   6
BRANCH   1  14
ATOM     14  N   UNL     1       4.797   1.905   1.476  0.00  0.00    -0.182 NA
ATOM     15  H   UNL     1       4.851   2.433   2.287  0.00  0.00    +0.149 HD
BRANCH  14  16
ATOM     16  C   UNL     1       5.169   0.488   1.499  0.00  0.00    +0.063 C 
ATOM     17  C   UNL     1       3.944  -0.367   1.167  0.00  0.00    +0.026 C 
ATOM     18  C   UNL     1       2.848  -0.110   2.204  0.00  0.00    +0.002 C 
ATOM     19  C   UNL     1       3.365  -0.479   3.595  0.00  0.00    +0.000 C 
ATOM     20  C   UNL     1       4.590   0.375   3.927  0.00  0.00    +0.002 C 
ATOM     21  C   UNL     1       5.686   0.119   2.891  0.00  0.00    +0.026 C 
BRANCH  16  22
ATOM     22  C   UNL     1       6.265   0.232   0.463  0.00  0.00    +0.179 C 
BRANCH  22  23
ATOM     23  O   UNL     1       5.732   0.415  -0.850  0.00  0.00    -0.393 OA
ATOM     24  H   UNL     1       6.373   0.268  -1.559  0.00  0.00    +0.209 HD
ENDBRANCH  22  23
ENDBRANCH  16  22
ENDBRANCH  14  16
ENDBRANCH   1  14
TORSDOF 6
