REMARK  Name = ZINC36052057
REMARK  16 active torsions:
REMARK  status: ('A' for Active; 'I' for Inactive)
REMARK    1  A    between atoms: C_1  and  C_2
REMARK    2  A    between atoms: C_2  and  C_3
REMARK    3  A    between atoms: C_2  and  C_4
REMARK    4  A    between atoms: C_7  and  N_10
REMARK    5  A    between atoms: C_12  and  C_29
REMARK    6  A    between atoms: C_16  and  C_18
REMARK    7  A    between atoms: C_18  and  N_19
REMARK    8  A    between atoms: N_19  and  C_20
REMARK    9  A    between atoms: C_20  and  C_21
REMARK   10  A    between atoms: C_21  and  O_22
REMARK   11  A    between atoms: O_22  and  C_23
REMARK   12  A    between atoms: C_24  and  C_26
REMARK   13  A    between atoms: C_26  and  C_27
REMARK   14  A    between atoms: C_26  and  C_28
REMARK   15  A    between atoms: C_32  and  O_35
REMARK   16  A    between atoms: O_35  and  C_36
REMARK                            x       y       z     vdW  Elec       q    Type
REMARK                         _______ _______ _______ _____ _____    ______ ____
ROOT
ATOM      1  N   UNL     1      -6.625  -3.944   0.253  0.00  0.00    -0.287 N 
ATOM      2  C   UNL     1      -7.456  -4.809   0.924  0.00  0.00    +0.122 A 
ATOM      3  C   UNL     1      -8.604  -4.887   0.205  0.00  0.00    +0.091 A 
ATOM      4  N   UNL     1      -8.474  -4.090  -0.877  0.00  0.00    -0.214 NA
ATOM      5  C   UNL     1      -7.296  -3.518  -0.854  0.00  0.00    +0.207 A 
ATOM      6  N   UNL     1      -6.811  -2.627  -1.803  0.00  0.00    -0.254 N 
ATOM      7  C   UNL     1      -7.575  -2.283  -2.858  0.00  0.00    +0.237 C 
ATOM      8  O   UNL     1      -8.688  -2.752  -2.979  0.00  0.00    -0.274 OA
ATOM      9  H   UNL     1      -5.921  -2.253  -1.706  0.00  0.00    +0.158 HD
ENDROOT
BRANCH   1  13
ATOM     10  C   UNL     1      -2.777  -2.821   1.399  0.00  0.00    -0.045 A 
ATOM     11  C   UNL     1      -3.815  -2.758   2.311  0.00  0.00    +0.006 A 
ATOM     12  C   UNL     1      -5.091  -3.129   1.934  0.00  0.00    +0.026 A 
ATOM     13  C   UNL     1      -5.331  -3.566   0.638  0.00  0.00    +0.049 A 
ATOM     14  C   UNL     1      -4.287  -3.628  -0.275  0.00  0.00    +0.026 A 
ATOM     15  C   UNL     1      -3.014  -3.251   0.106  0.00  0.00    +0.006 A 
BRANCH  10  17
ATOM     16  C   UNL     1      -1.396  -0.956   2.270  0.00  0.00    +0.012 C 
ATOM     17  C   UNL     1      -1.386  -2.416   1.813  0.00  0.00    +0.013 C 
ATOM     18  C   UNL     1      -0.916  -3.308   2.964  0.00  0.00    +0.012 C 
ENDBRANCH  10  17
ENDBRANCH   1  13
BRANCH   3  19
ATOM     19  C   UNL     1      -9.793  -5.706   0.548  0.00  0.00    +0.002 A 
ATOM     20  C   UNL     1      -9.796  -6.483   1.704  0.00  0.00    +0.013 A 
ATOM     21  C   UNL     1     -10.903  -7.243   2.020  0.00  0.00    +0.046 A 
ATOM     22  C   UNL     1     -12.013  -7.234   1.187  0.00  0.00    +0.120 A 
ATOM     23  C   UNL     1     -12.013  -6.461   0.035  0.00  0.00    +0.046 A 
ATOM     24  C   UNL     1     -10.912  -5.694  -0.284  0.00  0.00    +0.013 A 
BRANCH  22  25
ATOM     25  O   UNL     1     -13.102  -7.984   1.501  0.00  0.00    -0.495 OA
ATOM     26  C   UNL     1     -14.210  -7.928   0.600  0.00  0.00    +0.277 C 
ENDBRANCH  22  25
ENDBRANCH   3  19
BRANCH   7  27
ATOM     27  C   UNL     1      -7.048  -1.317  -3.887  0.00  0.00    +0.203 C 
BRANCH  27  28
ATOM     28  N   UNL     1      -8.061  -1.108  -4.925  0.00  0.00    -0.290 N 
ATOM     29  C   UNL     1      -8.021  -1.831  -6.061  0.00  0.00    +0.219 C 
ATOM     30  O   UNL     1      -8.805  -1.598  -6.957  0.00  0.00    -0.275 OA
BRANCH  29  31
ATOM     31  C   UNL     1      -7.002  -2.930  -6.219  0.00  0.00    +0.069 C 
ATOM     32  C   UNL     1      -7.374  -3.802  -7.420  0.00  0.00    +0.017 C 
ATOM     33  C   UNL     1      -5.619  -2.315  -6.445  0.00  0.00    +0.017 C 
ENDBRANCH  29  31
BRANCH  28  34
ATOM     34  C   UNL     1      -9.118  -0.113  -4.727  0.00  0.00    +0.136 C 
BRANCH  34  35
ATOM     35  C   UNL     1      -8.653   1.240  -5.269  0.00  0.00    +0.178 C 
BRANCH  35  36
ATOM     36  O   UNL     1      -8.477   1.151  -6.684  0.00  0.00    -0.381 OA
ATOM     37  C   UNL     1      -8.041   2.368  -7.293  0.00  0.00    +0.194 C 
ENDBRANCH  35  36
ENDBRANCH  34  35
ENDBRANCH  28  34
ENDBRANCH  27  28
ENDBRANCH   7  27
TORSDOF 10
