REMARK  Name = ZINC16401530
REMARK  10 active torsions:
REMARK  status: ('A' for Active; 'I' for Inactive)
REMARK    1  A    between atoms: C_3  and  S_23
REMARK    2  A    between atoms: C_6  and  C_7
REMARK    3  A    between atoms: C_7  and  N_8
REMARK    4  A    between atoms: N_8  and  C_9
REMARK    5  A    between atoms: C_9  and  N_11
REMARK    6  A    between atoms: N_11  and  N_12
REMARK    7  A    between atoms: N_12  and  C_13
REMARK    8  A    between atoms: C_16  and  S_19
REMARK    9  A    between atoms: S_19  and  N_22
REMARK   10  A    between atoms: S_23  and  N_26
REMARK                            x       y       z     vdW  Elec       q    Type
REMARK                         _______ _______ _______ _____ _____    ______ ____
ROOT
ATOM      1  C   UNL     1      -0.268   1.258  -2.409  0.00  0.00    +0.147 C 
ATOM      2  S   UNL     1       1.135   0.294  -2.585  0.00  0.00    -0.017 S 
ENDROOT
BRANCH   1   3
ATOM      3  N   UNL     1      -0.721   1.571  -1.179  0.00  0.00    -0.321 N 
ATOM      4  H   UNL     1      -1.516   2.118  -1.079  0.00  0.00    +0.148 HD
BRANCH   3   5
ATOM      5  C   UNL     1      -0.013   1.086   0.008  0.00  0.00    +0.138 C 
BRANCH   5  11
ATOM      6  C   UNL     1      -0.360   2.779   1.819  0.00  0.00    +0.007 A 
ATOM      7  C   UNL     1      -1.010   3.227   2.953  0.00  0.00    +0.029 A 
ATOM      8  C   UNL     1      -2.012   2.463   3.523  0.00  0.00    +0.105 A 
ATOM      9  C   UNL     1      -2.366   1.254   2.955  0.00  0.00    +0.029 A 
ATOM     10  C   UNL     1      -1.719   0.808   1.818  0.00  0.00    +0.007 A 
ATOM     11  C   UNL     1      -0.718   1.572   1.248  0.00  0.00    -0.030 A 
BRANCH   8  12
ATOM     12  S   UNL     1      -2.837   3.032   4.972  0.00  0.00    +0.056 S 
ATOM     13  O   UNL     1      -2.695   4.446   4.992  0.00  0.00    -0.153 OA
ATOM     14  O   UNL     1      -4.107   2.394   4.993  0.00  0.00    -0.153 OA
BRANCH  12  15
ATOM     15  N   UNL     1      -1.995   2.453   6.274  0.00  0.00    -0.204 NA
ATOM     16  H   UNL     1      -1.204   1.909   6.137  0.00  0.00    +0.144 HD
ATOM     17  H   UNL     1      -2.292   2.659   7.175  0.00  0.00    +0.144 HD
ENDBRANCH  12  15
ENDBRANCH   8  12
ENDBRANCH   5  11
ENDBRANCH   3   5
ENDBRANCH   1   3
BRANCH   1  18
ATOM     18  N   UNL     1      -0.920   1.705  -3.501  0.00  0.00    -0.248 N 
ATOM     19  H   UNL     1      -0.594   1.480  -4.386  0.00  0.00    +0.172 HD
BRANCH  18  20
ATOM     20  N   UNL     1      -2.069   2.494  -3.357  0.00  0.00    -0.265 N 
ATOM     21  H   UNL     1      -2.395   2.719  -2.472  0.00  0.00    +0.170 HD
BRANCH  20  22
ATOM     22  C   UNL     1      -2.744   2.957  -4.489  0.00  0.00    +0.044 A 
ATOM     23  C   UNL     1      -2.275   2.640  -5.757  0.00  0.00    +0.026 A 
ATOM     24  C   UNL     1      -2.949   3.094  -6.874  0.00  0.00    +0.030 A 
ATOM     25  C   UNL     1      -4.082   3.873  -6.730  0.00  0.00    +0.105 A 
ATOM     26  C   UNL     1      -4.549   4.195  -5.469  0.00  0.00    +0.030 A 
ATOM     27  C   UNL     1      -3.883   3.739  -4.348  0.00  0.00    +0.026 A 
BRANCH  25  28
ATOM     28  S   UNL     1      -4.935   4.456  -8.158  0.00  0.00    +0.056 S 
ATOM     29  O   UNL     1      -4.612   3.565  -9.216  0.00  0.00    -0.153 OA
ATOM     30  O   UNL     1      -6.275   4.708  -7.756  0.00  0.00    -0.153 OA
BRANCH  28  31
ATOM     31  N   UNL     1      -4.277   5.923  -8.556  0.00  0.00    -0.204 NA
ATOM     32  H   UNL     1      -3.555   6.291  -8.023  0.00  0.00    +0.144 HD
ATOM     33  H   UNL     1      -4.613   6.413  -9.323  0.00  0.00    +0.144 HD
ENDBRANCH  28  31
ENDBRANCH  25  28
ENDBRANCH  20  22
ENDBRANCH  18  20
ENDBRANCH   1  18
TORSDOF 10
