REMARK  Name = ZINC06409811
REMARK  9 active torsions:
REMARK  status: ('A' for Active; 'I' for Inactive)
REMARK    1  A    between atoms: C_1  and  C_2
REMARK    2  A    between atoms: C_7  and  C_14
REMARK    3  A    between atoms: C_14  and  C_16
REMARK    4  A    between atoms: C_14  and  N_67
REMARK    5  A    between atoms: N_20  and  C_21
REMARK    6  A    between atoms: C_26  and  C_27
REMARK    7  A    between atoms: C_26  and  N_67
REMARK    8  A    between atoms: C_34  and  C_35
REMARK    9  A    between atoms: C_34  and  N_67
REMARK                            x       y       z     vdW  Elec       q    Type
REMARK                         _______ _______ _______ _____ _____    ______ ____
ROOT
ATOM      1  C   UNL     1       1.216  -4.092  -1.560  0.00  0.00    +0.040 C 
ENDROOT
BRANCH   1   8
ATOM      2  C   UNL     1       0.417  -6.301  -9.183  0.00  0.00    +0.044 C 
ATOM      3  C   UNL     1       0.378  -6.014  -7.704  0.00  0.00    -0.048 A 
ATOM      4  C   UNL     1      -0.625  -6.572  -6.922  0.00  0.00    +0.004 A 
ATOM      5  C   UNL     1      -0.679  -6.324  -5.580  0.00  0.00    +0.010 A 
ATOM      6  C   UNL     1       0.285  -5.501  -4.988  0.00  0.00    -0.001 A 
ATOM      7  C   UNL     1       0.259  -5.218  -3.552  0.00  0.00    +0.017 A 
ATOM      8  C   UNL     1       1.216  -4.408  -3.034  0.00  0.00    +0.011 A 
ATOM      9  C   UNL     1       2.215  -3.864  -3.869  0.00  0.00    +0.251 A 
ATOM     10  O   UNL     1       3.068  -3.142  -3.383  0.00  0.00    -0.268 OA
ATOM     11  N   UNL     1       2.249  -4.122  -5.189  0.00  0.00    -0.322 N 
ATOM     12  H   UNL     1       2.950  -3.732  -5.734  0.00  0.00    +0.169 HD
ATOM     13  C   UNL     1       1.303  -4.933  -5.777  0.00  0.00    +0.049 A 
ATOM     14  C   UNL     1       1.337  -5.200  -7.142  0.00  0.00    +0.029 A 
ENDBRANCH   1   8
BRANCH   1  15
ATOM     15  C   UNL     1       2.421  -4.723  -0.911  0.00  0.00    +0.143 A 
ATOM     16  N   UNL     1       3.661  -4.309  -0.995  0.00  0.00    -0.115 NA
ATOM     17  N   UNL     1       4.396  -5.110  -0.304  0.00  0.00    -0.023 NA
ATOM     18  N   UNL     1       3.656  -6.025   0.218  0.00  0.00    -0.044 NA
ATOM     19  N   UNL     1       2.431  -5.818  -0.129  0.00  0.00    -0.227 N 
BRANCH  19  20
ATOM     20  C   UNL     1       1.270  -6.625   0.255  0.00  0.00    +0.111 C 
ATOM     21  C   UNL     1       1.145  -6.674   1.792  0.00  0.00    +0.027 C 
ATOM     22  C   UNL     1       0.660  -8.117   2.086  0.00  0.00    +0.002 C 
ATOM     23  C   UNL     1       1.440  -8.959   1.046  0.00  0.00    +0.002 C 
ATOM     24  C   UNL     1       1.457  -8.076  -0.219  0.00  0.00    +0.027 C 
ENDBRANCH  19  20
ENDBRANCH   1  15
BRANCH   1  25
ATOM     25  N   UNL     1       1.287  -2.627  -1.385  0.00  0.00    +0.397 N 
ATOM     26  H   UNL     1       2.130  -2.275  -1.854  0.00  0.00    -0.079 HD
BRANCH  25  27
ATOM     27  C   UNL     1       1.364  -2.293   0.053  0.00  0.00    -0.041 C 
BRANCH  27  28
ATOM     28  C   UNL     1       1.804  -0.859   0.195  0.00  0.00    -0.064 A 
ATOM     29  C   UNL     1       0.864   0.154   0.203  0.00  0.00    +0.003 A 
ATOM     30  C   UNL     1       1.266   1.470   0.333  0.00  0.00    +0.020 A 
ATOM     31  C   UNL     1       2.611   1.773   0.456  0.00  0.00    +0.041 A 
ATOM     32  C   UNL     1       3.551   0.758   0.447  0.00  0.00    +0.020 A 
ATOM     33  C   UNL     1       3.147  -0.557   0.317  0.00  0.00    +0.003 A 
ATOM     34 CL   UNL     1       3.117   3.425   0.619  0.00  0.00    -0.084 Cl
ENDBRANCH  27  28
ENDBRANCH  25  27
BRANCH  25  35
ATOM     35  C   UNL     1       0.099  -1.987  -1.988  0.00  0.00    -0.001 C 
BRANCH  35  36
ATOM     36  C   UNL     1      -1.163  -2.507  -1.350  0.00  0.00    +0.089 A 
ATOM     37  C   UNL     1      -1.831  -1.925  -0.338  0.00  0.00    +0.042 A 
ATOM     38  C   UNL     1      -2.947  -2.747  -0.058  0.00  0.00    +0.041 A 
ATOM     39  C   UNL     1      -2.894  -3.781  -0.915  0.00  0.00    +0.195 A 
ATOM     40  O   UNL     1      -1.815  -3.628  -1.700  0.00  0.00    -0.470 OA
ENDBRANCH  35  36
ENDBRANCH  25  35
ENDBRANCH   1  25
TORSDOF 8
