REMARK  Name = ZINC13783900
REMARK  5 active torsions:
REMARK  status: ('A' for Active; 'I' for Inactive)
REMARK    1  A    between atoms: N_9  and  C1*_13
REMARK    2  A    between atoms: C2*_15  and  O2*_25
REMARK    3  A    between atoms: C3*_17  and  O3*_24
REMARK    4  A    between atoms: C4*_19  and  C5*_22
REMARK    5  A    between atoms: C5*_22  and  O5*_23
REMARK                            x       y       z     vdW  Elec       q    Type
REMARK                         _______ _______ _______ _____ _____    ______ ____
ROOT
ATOM      1  C   UNL     1      -0.712   3.561   0.028  0.00  0.00    +0.201 A 
ATOM      2  N   UNL     1       0.564   4.023   0.018  0.00  0.00    -0.312 N 
ATOM      3  H   UNL     1       0.730   4.979   0.022  0.00  0.00    +0.170 HD
ATOM      4  C   UNL     1       1.604   3.160   0.004  0.00  0.00    +0.279 A 
ATOM      5  O   UNL     1       2.753   3.565  -0.005  0.00  0.00    -0.265 OA
ATOM      6  C   UNL     1       1.321   1.771  -0.001  0.00  0.00    +0.173 A 
ATOM      7  C   UNL     1      -0.017   1.365   0.009  0.00  0.00    +0.170 A 
ATOM      8  N   UNL     1      -0.989   2.287   0.029  0.00  0.00    -0.218 NA
ATOM      9  N   UNL     1       0.002  -0.004   0.002  0.00  0.00    -0.270 N 
ATOM     10  C   UNL     1       1.308  -0.396  -0.013  0.00  0.00    +0.208 A 
ATOM     11  N   UNL     1       2.083   0.652  -0.014  0.00  0.00    -0.210 NA
ATOM     12 CL   UNL     1       1.856  -2.043  -0.026  0.00  0.00    -0.043 Cl
ENDROOT
BRANCH   9  13
ATOM     13  C1* UNL     1      -1.167  -0.886   0.008  0.00  0.00    +0.255 C 
ATOM     14  C2* UNL     1      -1.390  -1.507  -1.395  0.00  0.00    +0.195 C 
ATOM     15  C3* UNL     1      -2.171  -2.801  -1.057  0.00  0.00    +0.178 C 
ATOM     16  C4* UNL     1      -1.848  -3.060   0.428  0.00  0.00    +0.177 C 
ATOM     17  O4* UNL     1      -0.934  -2.035   0.851  0.00  0.00    -0.346 OA
BRANCH  15  18
ATOM     18  O3* UNL     1      -3.574  -2.600  -1.238  0.00  0.00    -0.386 OA
ATOM     19  H3* UNL     1      -4.112  -3.378  -1.040  0.00  0.00    +0.210 HD
ENDBRANCH  15  18
BRANCH  14  20
ATOM     20  O2* UNL     1      -0.142  -1.814  -2.020  0.00  0.00    -0.385 OA
ATOM     21  H2* UNL     1      -0.229  -2.205  -2.901  0.00  0.00    +0.210 HD
ENDBRANCH  14  20
BRANCH  16  22
ATOM     22  C5* UNL     1      -1.200  -4.437   0.587  0.00  0.00    +0.190 C 
BRANCH  22  23
ATOM     23  O5* UNL     1      -1.011  -4.717   1.975  0.00  0.00    -0.392 OA
ATOM     24  H5* UNL     1      -0.604  -5.576   2.151  0.00  0.00    +0.210 HD
ENDBRANCH  22  23
ENDBRANCH  16  22
ENDBRANCH   9  13
TORSDOF 5
