REMARK  Name = ZINC46055831
REMARK  10 active torsions:
REMARK  status: ('A' for Active; 'I' for Inactive)
REMARK    1  A    between atoms: C_1  and  C_2
REMARK    2  A    between atoms: C_7  and  C_8
REMARK    3  A    between atoms: C_8  and  N_9
REMARK    4  A    between atoms: C_17  and  C_18
REMARK    5  A    between atoms: C_18  and  N_19
REMARK    6  A    between atoms: C_22  and  C_25
REMARK    7  A    between atoms: N_27  and  C_28
REMARK    8  A    between atoms: C_28  and  C_30
REMARK    9  A    between atoms: C_28  and  C_31
REMARK   10  A    between atoms: C_31  and  C_32
REMARK                            x       y       z     vdW  Elec       q    Type
REMARK                         _______ _______ _______ _____ _____    ______ ____
ROOT
ATOM      1  N   UNL     1      -2.129  -2.684   3.425  0.00  0.00    +0.383 N 
ATOM      2  C   UNL     1      -1.136  -2.817   2.353  0.00  0.00    -0.078 C 
ATOM      3  C   UNL     1      -1.492  -4.015   1.469  0.00  0.00    -0.006 C 
ATOM      4  C   UNL     1      -1.500  -5.287   2.321  0.00  0.00    +0.071 C 
ATOM      5  C   UNL     1      -2.485  -5.108   3.480  0.00  0.00    -0.006 C 
ATOM      6  C   UNL     1      -2.092  -3.870   4.289  0.00  0.00    -0.078 C 
ATOM      7  H   UNL     1      -3.048  -2.593   3.020  0.00  0.00    -0.081 HD
ENDROOT
BRANCH   4   8
ATOM      8  C   UNL     1      -1.926  -6.458   1.474  0.00  0.00    +0.216 C 
ATOM      9  O   UNL     1      -2.197  -6.293   0.303  0.00  0.00    -0.276 OA
ATOM     10  N   UNL     1      -2.005  -7.689   2.017  0.00  0.00    -0.312 N 
ATOM     11  H   UNL     1      -1.788  -7.821   2.953  0.00  0.00    +0.149 HD
BRANCH  10  12
ATOM     12  C   UNL     1      -2.420  -8.828   1.194  0.00  0.00    +0.077 C 
ATOM     13  C   UNL     1      -1.204  -9.392   0.455  0.00  0.00    +0.028 C 
BRANCH  12  14
ATOM     14  C   UNL     1      -3.022  -9.913   2.089  0.00  0.00    +0.096 C 
BRANCH  14  15
ATOM     15  C   UNL     1      -4.288  -9.396   2.722  0.00  0.00    +0.107 A 
ATOM     16  C   UNL     1      -5.526  -9.510   2.209  0.00  0.00    +0.045 A 
ATOM     17  C   UNL     1      -6.407  -8.890   3.125  0.00  0.00    +0.041 A 
ATOM     18  C   UNL     1      -5.655  -8.436   4.143  0.00  0.00    +0.195 A 
ATOM     19  O   UNL     1      -4.373  -8.750   3.896  0.00  0.00    -0.468 OA
ENDBRANCH  14  15
ENDBRANCH  12  14
ENDBRANCH  10  12
ENDBRANCH   4   8
BRANCH   1  20
ATOM     20  C   UNL     1      -1.827  -1.489   4.224  0.00  0.00    -0.024 C 
BRANCH  20  29
ATOM     21  N   UNL     1      -0.927   0.277   2.617  0.00  0.00    -0.341 N 
ATOM     22  C   UNL     1      -1.379   1.387   1.939  0.00  0.00    +0.049 A 
ATOM     23  C   UNL     1      -0.777   2.285   1.063  0.00  0.00    +0.026 A 
ATOM     24  C   UNL     1      -1.513   3.323   0.535  0.00  0.00    +0.002 A 
ATOM     25  C   UNL     1      -2.851   3.483   0.868  0.00  0.00    +0.001 A 
ATOM     26  C   UNL     1      -3.462   2.614   1.727  0.00  0.00    +0.010 A 
ATOM     27  C   UNL     1      -2.735   1.554   2.273  0.00  0.00    +0.000 A 
ATOM     28  C   UNL     1      -3.061   0.466   3.198  0.00  0.00    +0.029 A 
ATOM     29  C   UNL     1      -1.944  -0.262   3.357  0.00  0.00    +0.004 A 
BRANCH  21  30
ATOM     30  C   UNL     1       0.437  -0.252   2.551  0.00  0.00    +0.157 C 
BRANCH  30  37
ATOM     31  C   UNL     1       1.481  -2.039   4.566  0.00  0.00    +0.044 C 
ATOM     32  C   UNL     1       1.744  -0.559   4.663  0.00  0.00    -0.046 A 
ATOM     33  C   UNL     1       2.490  -0.056   5.714  0.00  0.00    +0.004 A 
ATOM     34  C   UNL     1       2.731   1.302   5.802  0.00  0.00    +0.000 A 
ATOM     35  C   UNL     1       2.227   2.158   4.841  0.00  0.00    +0.000 A 
ATOM     36  C   UNL     1       1.482   1.655   3.790  0.00  0.00    +0.005 A 
ATOM     37  C   UNL     1       1.245   0.296   3.699  0.00  0.00    -0.025 A 
ENDBRANCH  30  37
ENDBRANCH  21  30
ENDBRANCH  20  29
ENDBRANCH   1  20
TORSDOF 8
