REMARK  Name = ZINC03021296
REMARK  5 active torsions:
REMARK  status: ('A' for Active; 'I' for Inactive)
REMARK    1  A    between atoms: C_5  and  C_7
REMARK    2  A    between atoms: C_7  and  S_8
REMARK    3  A    between atoms: S_8  and  C_9
REMARK    4  A    between atoms: C_15  and  S_21
REMARK    5  A    between atoms: S_21  and  N_24
REMARK                            x       y       z     vdW  Elec       q    Type
REMARK                         _______ _______ _______ _____ _____    ______ ____
ROOT
ATOM      1  C   UNL     1       0.002  -0.004   0.002  0.00  0.00    +0.212 A 
ATOM      2  N   UNL     1       1.145  -0.677  -0.013  0.00  0.00    -0.201 NA
ATOM      3  C   UNL     1       2.294  -0.008  -0.020  0.00  0.00    +0.162 A 
ATOM      4  C   UNL     1       2.247   1.401  -0.012  0.00  0.00    +0.137 A 
ATOM      5  C   UNL     1       3.647   1.862  -0.024  0.00  0.00    +0.031 A 
ATOM      6  C   UNL     1       4.243   3.120  -0.023  0.00  0.00    +0.040 A 
ATOM      7  C   UNL     1       5.617   3.227  -0.037  0.00  0.00    +0.106 A 
ATOM      8  C   UNL     1       6.405   2.087  -0.052  0.00  0.00    +0.030 A 
ATOM      9  C   UNL     1       5.828   0.835  -0.053  0.00  0.00    +0.028 A 
ATOM     10  C   UNL     1       4.443   0.707  -0.038  0.00  0.00    +0.050 A 
ATOM     11  N   UNL     1       3.610  -0.400  -0.036  0.00  0.00    -0.338 N 
ATOM     12  H   UNL     1       3.913  -1.321  -0.045  0.00  0.00    +0.167 HD
ATOM     13  N   UNL     1       1.073   2.014   0.003  0.00  0.00    -0.143 NA
ATOM     14  N   UNL     1      -0.016   1.325   0.009  0.00  0.00    -0.122 NA
ENDROOT
BRANCH   7  15
ATOM     15  S   UNL     1       6.374   4.818  -0.036  0.00  0.00    +0.061 S 
ATOM     16  O   UNL     1       7.667   4.653  -0.602  0.00  0.00    -0.153 OA
ATOM     17  O   UNL     1       5.418   5.723  -0.572  0.00  0.00    -0.153 OA
BRANCH  15  18
ATOM     18  N   UNL     1       6.601   5.252   1.546  0.00  0.00    -0.177 NA
ATOM     19  C   UNL     1       5.565   5.996   2.274  0.00  0.00    +0.109 C 
ATOM     20  C   UNL     1       5.236   5.236   3.568  0.00  0.00    +0.017 C 
ATOM     21  C   UNL     1       6.524   5.012   4.363  0.00  0.00    +0.003 C 
ATOM     22  C   UNL     1       7.493   4.162   3.538  0.00  0.00    +0.017 C 
ATOM     23  C   UNL     1       7.846   4.904   2.246  0.00  0.00    +0.109 C 
ENDBRANCH  15  18
ENDBRANCH   7  15
BRANCH   1  24
ATOM     24  S   UNL     1      -1.522  -0.889   0.012  0.00  0.00    -0.080 S 
BRANCH  24  25
ATOM     25  C   UNL     1      -2.688   0.495   0.030  0.00  0.00    +0.114 C 
BRANCH  25  30
ATOM     26  C   UNL     1      -6.050  -0.761  -1.142  0.00  0.00    +0.000 A 
ATOM     27  C   UNL     1      -6.686  -1.012   0.060  0.00  0.00    +0.001 A 
ATOM     28  C   UNL     1      -6.029  -0.776   1.253  0.00  0.00    +0.020 A 
ATOM     29  C   UNL     1      -4.734  -0.288   1.244  0.00  0.00    +0.045 A 
ATOM     30  C   UNL     1      -4.098  -0.037   0.041  0.00  0.00    -0.019 A 
ATOM     31  C   UNL     1      -4.759  -0.269  -1.151  0.00  0.00    +0.006 A 
ATOM     32 CL   UNL     1      -3.908   0.010   2.741  0.00  0.00    -0.083 Cl
ENDBRANCH  25  30
ENDBRANCH  24  25
ENDBRANCH   1  24
TORSDOF 5
