REMARK  Name = ZINC08831755
REMARK  10 active torsions:
REMARK  status: ('A' for Active; 'I' for Inactive)
REMARK    1  A    between atoms: C_1  and  C_2
REMARK    2  A    between atoms: N_5  and  C_8
REMARK    3  A    between atoms: C_11  and  N_15
REMARK    4  A    between atoms: N_15  and  C_16
REMARK    5  A    between atoms: C_16  and  N_18
REMARK    6  A    between atoms: C_19  and  C_21
REMARK    7  A    between atoms: C_22  and  C_23
REMARK    8  A    between atoms: C_26  and  C_29
REMARK    9  A    between atoms: C_29  and  C_30
REMARK   10  A    between atoms: C_29  and  C_31
REMARK                            x       y       z     vdW  Elec       q    Type
REMARK                         _______ _______ _______ _____ _____    ______ ____
ROOT
ATOM      1  C   UNL     1       1.345  -2.052  -0.653  0.00  0.00    +0.141 C 
ATOM      2  S   UNL     1       0.123  -2.979  -1.413  0.00  0.00    -0.018 S 
ENDROOT
BRANCH   1   3
ATOM      3  N   UNL     1       1.279  -0.706  -0.672  0.00  0.00    -0.264 N 
ATOM      4  C   UNL     1       0.252  -0.090  -1.290  0.00  0.00    +0.242 C 
ATOM      5  O   UNL     1      -0.617  -0.749  -1.830  0.00  0.00    -0.270 OA
ATOM      6  H   UNL     1       1.972  -0.180  -0.242  0.00  0.00    +0.157 HD
BRANCH   4   7
ATOM      7  C   UNL     1       0.180   1.371  -1.311  0.00  0.00    +0.068 C 
ATOM      8  C   UNL     1      -0.845   1.988  -1.934  0.00  0.00    +0.013 C 
BRANCH   8   9
ATOM      9  C   UNL     1      -0.916   3.458  -1.955  0.00  0.00    -0.025 A 
ATOM     10  C   UNL     1       0.074   4.219  -1.326  0.00  0.00    +0.008 A 
ATOM     11  C   UNL     1       0.002   5.595  -1.353  0.00  0.00    +0.004 A 
ATOM     12  C   UNL     1      -1.052   6.224  -1.994  0.00  0.00    -0.045 A 
ATOM     13  C   UNL     1      -2.038   5.478  -2.615  0.00  0.00    +0.004 A 
ATOM     14  C   UNL     1      -1.978   4.100  -2.600  0.00  0.00    +0.008 A 
BRANCH  12  15
ATOM     15  C   UNL     1      -1.126   7.729  -2.015  0.00  0.00    +0.013 C 
ATOM     16  C   UNL     1      -1.194   8.256  -0.580  0.00  0.00    +0.012 C 
ATOM     17  C   UNL     1       0.118   8.291  -2.706  0.00  0.00    +0.012 C 
ENDBRANCH  12  15
ENDBRANCH   8   9
ENDBRANCH   4   7
ENDBRANCH   1   3
BRANCH   1  18
ATOM     18  N   UNL     1       2.372  -2.667  -0.035  0.00  0.00    -0.297 N 
ATOM     19  H   UNL     1       3.096  -2.143   0.342  0.00  0.00    +0.154 HD
BRANCH  18  23
ATOM     20  C   UNL     1       2.440  -6.828   0.258  0.00  0.00    +0.048 A 
ATOM     21  C   UNL     1       2.739  -6.048   1.368  0.00  0.00    +0.026 A 
ATOM     22  C   UNL     1       2.722  -4.671   1.269  0.00  0.00    +0.025 A 
ATOM     23  C   UNL     1       2.395  -4.065   0.063  0.00  0.00    +0.034 A 
ATOM     24  C   UNL     1       2.095  -4.844  -1.047  0.00  0.00    +0.045 A 
ATOM     25  C   UNL     1       2.118  -6.222  -0.950  0.00  0.00    +0.064 A 
ATOM     26 CL   UNL     1       1.744  -7.196  -2.338  0.00  0.00    -0.082 Cl
BRANCH  20  31
ATOM     27  C   UNL     1       1.984 -12.334   1.430  0.00  0.00    +0.007 C 
ATOM     28  C   UNL     1       1.847 -10.811   1.484  0.00  0.00    -0.011 C 
ATOM     29  C   UNL     1       1.188 -10.310   0.195  0.00  0.00    +0.022 C 
ATOM     30  C   UNL     1       1.110  -8.782   0.228  0.00  0.00    +0.105 C 
ATOM     31  N   UNL     1       2.462  -8.224   0.357  0.00  0.00    -0.329 N 
ATOM     32  C   UNL     1       3.096  -8.653   1.610  0.00  0.00    +0.105 C 
ATOM     33  C   UNL     1       3.234 -10.177   1.618  0.00  0.00    +0.022 C 
ENDBRANCH  20  31
ENDBRANCH  18  23
ENDBRANCH   1  18
TORSDOF 7
