REMARK  Name = ZINC20632300
REMARK  4 active torsions:
REMARK  status: ('A' for Active; 'I' for Inactive)
REMARK    1  A    between atoms: C_1  and  C_2
REMARK    2  A    between atoms: C_12  and  S_14
REMARK    3  A    between atoms: S_14  and  C_15
REMARK    4  A    between atoms: C_15  and  C_16
REMARK                            x       y       z     vdW  Elec       q    Type
REMARK                         _______ _______ _______ _____ _____    ______ ____
ROOT
ATOM      1  C   UNL     1       1.172  13.832  -0.977  0.00  0.00    +0.008 C 
ATOM      2  C   UNL     1       1.368  12.660  -0.014  0.00  0.00    -0.001 C 
ATOM      3  C   UNL     1       0.854  11.377  -0.663  0.00  0.00    +0.060 C 
ATOM      4  C   UNL     1       0.911  10.222   0.298  0.00  0.00    +0.057 A 
ATOM      5  C   UNL     1       0.925  10.429   1.695  0.00  0.00    +0.057 A 
ATOM      6  C   UNL     1       0.964   9.338   2.546  0.00  0.00    +0.129 A 
ATOM      7  N   UNL     1       0.992   8.101   2.009  0.00  0.00    -0.202 N 
ATOM      8  C   UNL     1       0.984   7.936   0.651  0.00  0.00    +0.254 A 
ATOM      9  N   UNL     1       0.945   8.994  -0.170  0.00  0.00    -0.215 NA
ATOM     10  N   UNL     1       1.024   6.630   0.413  0.00  0.00    -0.183 NA
ATOM     11  C   UNL     1       1.048   5.962   1.565  0.00  0.00    +0.211 A 
ATOM     12  N   UNL     1       1.033   6.816   2.568  0.00  0.00    -0.137 NA
ATOM     13  C   UNL     1       0.902  11.796   2.240  0.00  0.00    +0.167 C 
ATOM     14  O   UNL     1       1.124  12.009   3.413  0.00  0.00    -0.292 OA
ATOM     15  C   UNL     1       0.590  12.927   1.281  0.00  0.00    +0.083 C 
ENDROOT
BRANCH  11  16
ATOM     16  S   UNL     1       1.098   4.208   1.724  0.00  0.00    -0.080 S 
BRANCH  16  17
ATOM     17  C   UNL     1       1.099   3.612   0.011  0.00  0.00    +0.113 C 
BRANCH  17  18
ATOM     18  C   UNL     1       1.141   2.106   0.003  0.00  0.00    -0.029 A 
ATOM     19  C   UNL     1      -0.017   1.389   0.010  0.00  0.00    +0.005 A 
ATOM     20  C   UNL     1       0.002  -0.004   0.002  0.00  0.00    +0.001 A 
ATOM     21  C   UNL     1       1.178  -0.689  -0.013  0.00  0.00    +0.008 A 
ATOM     22  C   UNL     1       2.393   0.016  -0.021  0.00  0.00    -0.018 A 
ATOM     23  C   UNL     1       2.374   1.434  -0.013  0.00  0.00    -0.014 A 
ATOM     24  C   UNL     1       3.590   2.139  -0.022  0.00  0.00    +0.009 A 
ATOM     25  C   UNL     1       4.766   1.455  -0.037  0.00  0.00    +0.001 A 
ATOM     26  C   UNL     1       4.785   0.061  -0.045  0.00  0.00    +0.001 A 
ATOM     27  C   UNL     1       3.628  -0.656  -0.037  0.00  0.00    +0.008 A 
ENDBRANCH  17  18
ENDBRANCH  16  17
ENDBRANCH  11  16
TORSDOF 3
