REMARK  Name = ZINC64057259
REMARK  9 active torsions:
REMARK  status: ('A' for Active; 'I' for Inactive)
REMARK    1  A    between atoms: C_1  and  O_2
REMARK    2  A    between atoms: O_2  and  C_3
REMARK    3  A    between atoms: C_5  and  O_31
REMARK    4  A    between atoms: C_8  and  N_9
REMARK    5  A    between atoms: C_11  and  C_16
REMARK    6  A    between atoms: N_18  and  C_19
REMARK    7  A    between atoms: C_19  and  C_20
REMARK    8  A    between atoms: C_20  and  C_21
REMARK    9  A    between atoms: O_31  and  C_32
REMARK                            x       y       z     vdW  Elec       q    Type
REMARK                         _______ _______ _______ _____ _____    ______ ____
ROOT
ATOM      1  N   UNL     1      -0.070  -2.779  -0.012  0.00  0.00    -0.267 N 
ATOM      2  C   UNL     1       0.638  -3.233   1.190  0.00  0.00    +0.127 C 
ATOM      3  C   UNL     1       1.592  -4.349   0.710  0.00  0.00    +0.101 C 
ATOM      4  C   UNL     1       1.800  -3.969  -0.774  0.00  0.00    +0.110 C 
ATOM      5  C   UNL     1       0.560  -3.179  -1.130  0.00  0.00    +0.221 C 
ATOM      6  O   UNL     1       0.190  -2.938  -2.260  0.00  0.00    -0.275 OA
ENDROOT
BRANCH   1  12
ATOM      7  C   UNL     1      -1.201  -0.638   0.010  0.00  0.00    +0.145 A 
ATOM      8  C   UNL     1      -2.373   0.100   0.019  0.00  0.00    +0.094 A 
ATOM      9  C   UNL     1      -3.599  -0.548   0.027  0.00  0.00    +0.142 A 
ATOM     10  C   UNL     1      -3.653  -1.935   0.026  0.00  0.00    +0.084 A 
ATOM     11  C   UNL     1      -2.485  -2.674   0.016  0.00  0.00    +0.051 A 
ATOM     12  C   UNL     1      -1.256  -2.029   0.003  0.00  0.00    +0.080 A 
ATOM     13 CL   UNL     1      -5.189  -2.743   0.036  0.00  0.00    -0.080 Cl
BRANCH   7  15
ATOM     14  C   UNL     1      -0.017   1.425   0.010  0.00  0.00    +0.277 C 
ATOM     15  O   UNL     1       0.002  -0.004   0.002  0.00  0.00    -0.493 OA
ENDBRANCH   7  15
BRANCH   9  16
ATOM     16  O   UNL     1      -4.750   0.176   0.037  0.00  0.00    -0.494 OA
ATOM     17  C   UNL     1      -4.621   1.600   0.038  0.00  0.00    +0.277 C 
ENDBRANCH   9  16
ENDBRANCH   1  12
BRANCH   3  18
ATOM     18  C   UNL     1       2.895  -4.306   1.466  0.00  0.00    +0.218 C 
ATOM     19  O   UNL     1       3.073  -3.466   2.321  0.00  0.00    -0.275 OA
ATOM     20  N   UNL     1       3.863  -5.203   1.191  0.00  0.00    -0.315 N 
ATOM     21  H   UNL     1       3.721  -5.876   0.507  0.00  0.00    +0.149 HD
BRANCH  20  22
ATOM     22  C   UNL     1       5.130  -5.162   1.926  0.00  0.00    +0.108 C 
BRANCH  22  23
ATOM     23  C   UNL     1       6.047  -6.279   1.424  0.00  0.00    +0.052 C 
BRANCH  23  24
ATOM     24  C   UNL     1       7.350  -6.237   2.180  0.00  0.00    -0.040 C 
ATOM     25  C   UNL     1       7.679  -6.959   3.275  0.00  0.00    -0.001 A 
ATOM     26  C   UNL     1       6.949  -7.960   4.062  0.00  0.00    +0.010 A 
ATOM     27  C   UNL     1       7.555  -8.523   5.132  0.00  0.00    +0.001 A 
ATOM     28  C   UNL     1       8.859  -8.173   5.509  0.00  0.00    +0.002 A 
ATOM     29  C   UNL     1       9.592  -7.261   4.836  0.00  0.00    +0.026 A 
ATOM     30  C   UNL     1       9.055  -6.608   3.693  0.00  0.00    +0.043 A 
ATOM     31  N   UNL     1       9.557  -5.704   2.888  0.00  0.00    -0.380 N 
ATOM     32  C   UNL     1       8.558  -5.383   1.863  0.00  0.00    +0.144 C 
ATOM     33  H   UNL     1      10.443  -5.314   2.956  0.00  0.00    +0.160 HD
ENDBRANCH  23  24
ENDBRANCH  22  23
ENDBRANCH  20  22
ENDBRANCH   3  18
TORSDOF 7
