REMARK  Name = ZINC34847050
REMARK  16 active torsions:
REMARK  status: ('A' for Active; 'I' for Inactive)
REMARK    1  A    between atoms: C_1  and  C_2
REMARK    2  A    between atoms: C_2  and  C_3
REMARK    3  A    between atoms: C_3  and  N_4
REMARK    4  A    between atoms: C_5  and  C_38
REMARK    5  A    between atoms: C_6  and  C_34
REMARK    6  A    between atoms: C_7  and  C_12
REMARK    7  A    between atoms: C_16  and  N_18
REMARK    8  A    between atoms: N_21  and  C_22
REMARK    9  A    between atoms: C_23  and  C_31
REMARK   10  A    between atoms: C_27  and  C_28
REMARK   11  A    between atoms: C_28  and  C_29
REMARK   12  A    between atoms: C_28  and  C_30
REMARK   13  A    between atoms: C_31  and  C_32
REMARK   14  A    between atoms: C_31  and  C_33
REMARK   15  A    between atoms: C_34  and  O_36
REMARK   16  A    between atoms: O_36  and  C_37
REMARK                            x       y       z     vdW  Elec       q    Type
REMARK                         _______ _______ _______ _____ _____    ______ ____
ROOT
ATOM      1  C   UNL     1       1.363  -5.250  -2.769  0.00  0.00    -0.021 A 
ATOM      2  C   UNL     1       2.549  -5.352  -3.472  0.00  0.00    +0.006 A 
ATOM      3  C   UNL     1       3.061  -6.596  -3.793  0.00  0.00    +0.002 A 
ATOM      4  C   UNL     1       2.388  -7.741  -3.410  0.00  0.00    +0.023 A 
ATOM      5  C   UNL     1       1.197  -7.641  -2.704  0.00  0.00    +0.035 A 
ATOM      6  C   UNL     1       0.689  -6.390  -2.379  0.00  0.00    +0.029 A 
ENDROOT
BRANCH   1  10
ATOM      7  N   UNL     1       1.558  -1.486  -3.563  0.00  0.00    -0.259 N 
ATOM      8  C   UNL     1       0.527  -2.167  -4.146  0.00  0.00    +0.024 C 
ATOM      9  C   UNL     1       0.103  -3.349  -3.648  0.00  0.00    +0.078 C 
ATOM     10  C   UNL     1       0.809  -3.892  -2.422  0.00  0.00    +0.144 C 
ATOM     11  N   UNL     1       1.907  -3.081  -1.871  0.00  0.00    -0.288 N 
ATOM     12  C   UNL     1       2.219  -1.922  -2.483  0.00  0.00    +0.307 C 
ATOM     13  O   UNL     1       3.127  -1.247  -2.038  0.00  0.00    -0.252 OA
ATOM     14  C   UNL     1      -0.147  -1.591  -5.364  0.00  0.00    +0.061 C 
ATOM     15  H   UNL     1       2.397  -3.376  -1.087  0.00  0.00    +0.151 HD
BRANCH   9  16
ATOM     16  C   UNL     1      -0.965  -4.054  -4.250  0.00  0.00    +0.339 C 
ATOM     17  O   UNL     1      -1.518  -3.599  -5.233  0.00  0.00    -0.245 OA
BRANCH  16  18
ATOM     18  O   UNL     1      -1.371  -5.233  -3.733  0.00  0.00    -0.465 OA
ATOM     19  C   UNL     1      -2.455  -5.892  -4.392  0.00  0.00    +0.280 C 
ENDBRANCH  16  18
ENDBRANCH   9  16
BRANCH   7  20
ATOM     20  C   UNL     1       1.966  -0.210  -4.156  0.00  0.00    +0.114 C 
BRANCH  20  22
ATOM     21  C   UNL     1       1.496   2.242  -4.244  0.00  0.00    +0.005 C 
ATOM     22  C   UNL     1       1.069   0.910  -3.624  0.00  0.00    +0.016 C 
ENDBRANCH  20  22
ENDBRANCH   7  20
ENDBRANCH   1  10
BRANCH   5  23
ATOM     23  N   UNL     1       0.514  -8.798  -2.315  0.00  0.00    -0.269 N 
ATOM     24  C   UNL     1       1.203  -9.900  -1.956  0.00  0.00    +0.308 C 
ATOM     25  O   UNL     1       2.415  -9.916  -2.051  0.00  0.00    -0.252 OA
ATOM     26  N   UNL     1       0.548 -10.983  -1.492  0.00  0.00    -0.269 N 
ATOM     27  H   UNL     1      -0.456  -8.808  -2.304  0.00  0.00    +0.156 HD
ATOM     28  H   UNL     1      -0.421 -10.998  -1.488  0.00  0.00    +0.156 HD
BRANCH  26  29
ATOM     29  C   UNL     1       1.268 -12.085  -1.017  0.00  0.00    +0.042 A 
ATOM     30  C   UNL     1       1.269 -13.276  -1.731  0.00  0.00    -0.023 A 
ATOM     31  C   UNL     1       1.980 -14.361  -1.259  0.00  0.00    +0.006 A 
ATOM     32  C   UNL     1       2.691 -14.264  -0.077  0.00  0.00    +0.001 A 
ATOM     33  C   UNL     1       2.692 -13.079   0.637  0.00  0.00    +0.006 A 
ATOM     34  C   UNL     1       1.988 -11.988   0.167  0.00  0.00    -0.023 A 
BRANCH  34  35
ATOM     35  C   UNL     1       1.994 -10.695   0.942  0.00  0.00    +0.015 C 
ATOM     36  C   UNL     1       1.486 -10.949   2.362  0.00  0.00    +0.012 C 
ATOM     37  C   UNL     1       3.420 -10.144   1.002  0.00  0.00    +0.012 C 
ENDBRANCH  34  35
BRANCH  30  38
ATOM     38  C   UNL     1       0.494 -13.383  -3.019  0.00  0.00    +0.015 C 
ATOM     39  C   UNL     1       1.430 -13.841  -4.140  0.00  0.00    +0.012 C 
ATOM     40  C   UNL     1      -0.636 -14.401  -2.851  0.00  0.00    +0.012 C 
ENDBRANCH  30  38
ENDBRANCH  26  29
ENDBRANCH   5  23
TORSDOF 9
