REMARK  Name = ZINC51122963
REMARK  3 active torsions:
REMARK  status: ('A' for Active; 'I' for Inactive)
REMARK    1  A    between atoms: C_3  and  C_9
REMARK    2  A    between atoms: N_7  and  N_8
REMARK    3  A    between atoms: N_11  and  C_12
REMARK                            x       y       z     vdW  Elec       q    Type
REMARK                         _______ _______ _______ _____ _____    ______ ____
ROOT
ATOM      1  C   UNL     1       3.998   1.287  -1.094  0.00  0.00    +0.267 C 
ATOM      2  O   UNL     1       4.264   1.888  -2.116  0.00  0.00    -0.268 OA
ATOM      3  N   UNL     1       4.831   1.354  -0.037  0.00  0.00    -0.278 N 
ATOM      4  H   UNL     1       4.584   0.936   0.803  0.00  0.00    +0.155 HD
ENDROOT
BRANCH   3   5
ATOM      5  C   UNL     1       6.053   2.027  -0.150  0.00  0.00    +0.071 A 
ATOM      6  C   UNL     1       7.185   1.347  -0.584  0.00  0.00    +0.065 A 
ATOM      7  C   UNL     1       8.390   2.015  -0.695  0.00  0.00    +0.037 A 
ATOM      8  C   UNL     1       8.470   3.359  -0.375  0.00  0.00    +0.021 A 
ATOM      9  C   UNL     1       7.345   4.039   0.057  0.00  0.00    +0.037 A 
ATOM     10  C   UNL     1       6.135   3.378   0.164  0.00  0.00    +0.065 A 
ATOM     11 CL   UNL     1       4.723   4.234   0.698  0.00  0.00    -0.082 Cl
ATOM     12 BR   UNL     1      10.121   4.268  -0.528  0.00  0.00    -0.050 Br
ATOM     13 CL   UNL     1       7.086  -0.339  -0.984  0.00  0.00    -0.082 Cl
ENDBRANCH   3   5
BRANCH   1  16
ATOM     14  C   UNL     1       0.742  -0.339  -2.014  0.00  0.00    +0.006 A 
ATOM     15  C   UNL     1       1.902   0.418  -2.104  0.00  0.00    +0.033 A 
ATOM     16  C   UNL     1       2.757   0.482  -1.009  0.00  0.00    +0.128 A 
ATOM     17  N   UNL     1       2.473  -0.172   0.112  0.00  0.00    -0.226 NA
ATOM     18  C   UNL     1       1.377  -0.900   0.228  0.00  0.00    +0.133 A 
ATOM     19  C   UNL     1       0.477  -1.006  -0.833  0.00  0.00    +0.045 A 
ATOM     20  N   UNL     1       1.119  -1.569   1.418  0.00  0.00    -0.268 N 
ATOM     21  H   UNL     1       0.316  -2.105   1.509  0.00  0.00    +0.167 HD
BRANCH  20  22
ATOM     22  N   UNL     1       1.995  -1.470   2.461  0.00  0.00    -0.255 NA
ATOM     23  H   UNL     1       1.676  -2.006   3.254  0.00  0.00    +0.140 HD
ATOM     24  H   UNL     1       2.922  -1.754   2.182  0.00  0.00    +0.140 HD
ENDBRANCH  20  22
ENDBRANCH   1  16
TORSDOF 3
