REMARK  Name = ZINC20132577
REMARK  6 active torsions:
REMARK  status: ('A' for Active; 'I' for Inactive)
REMARK    1  A    between atoms: C_1  and  C_2
REMARK    2  A    between atoms: C_2  and  C_4
REMARK    3  A    between atoms: C_2  and  N_12
REMARK    4  A    between atoms: C_6  and  O_11
REMARK    5  A    between atoms: C_9  and  O_10
REMARK    6  A    between atoms: N_12  and  C_13
REMARK                            x       y       z     vdW  Elec       q    Type
REMARK                         _______ _______ _______ _____ _____    ______ ____
ROOT
ATOM      1  C   UNL     1      -2.958   4.515  -1.383  0.00  0.00    +0.033 C 
ATOM      2  C   UNL     1      -2.560   4.150   0.049  0.00  0.00    +0.101 C 
ENDROOT
BRANCH   2   3
ATOM      3  C   UNL     1      -1.245   3.414   0.032  0.00  0.00    +0.017 A 
ATOM      4  C   UNL     1      -1.227   2.033   0.019  0.00  0.00    +0.054 A 
ATOM      5  C   UNL     1      -0.016   1.356   0.009  0.00  0.00    +0.117 A 
ATOM      6  C   UNL     1       1.175   2.066   0.002  0.00  0.00    +0.049 A 
ATOM      7  C   UNL     1       1.157   3.446   0.009  0.00  0.00    +0.049 A 
ATOM      8  C   UNL     1      -0.054   4.124   0.024  0.00  0.00    +0.122 A 
BRANCH   8   9
ATOM      9  O   UNL     1      -0.072   5.483   0.030  0.00  0.00    -0.506 OA
ATOM     10  H   UNL     1       0.873   6.046   0.024  0.00  0.00    +0.292 HD
ENDBRANCH   8   9
BRANCH   5  11
ATOM     11  O   UNL     1       0.002  -0.004   0.002  0.00  0.00    -0.507 OA
ATOM     12  H   UNL     1       0.962  -0.541  -0.005  0.00  0.00    +0.292 HD
ENDBRANCH   5  11
ENDBRANCH   2   3
BRANCH   2  13
ATOM     13  N   UNL     1      -3.592   3.293   0.639  0.00  0.00    -0.337 N 
ATOM     14  H   UNL     1      -3.482   2.199   0.609  0.00  0.00    +0.147 HD
BRANCH  13  15
ATOM     15  C   UNL     1      -4.718   3.866   1.241  0.00  0.00    +0.028 A 
ATOM     16  C   UNL     1      -4.855   5.253   1.278  0.00  0.00    +0.025 A 
ATOM     17  C   UNL     1      -5.957   5.833   1.867  0.00  0.00    +0.028 A 
ATOM     18  C   UNL     1      -6.945   5.034   2.432  0.00  0.00    +0.047 A 
ATOM     19  C   UNL     1      -6.811   3.634   2.396  0.00  0.00    +0.001 A 
ATOM     20  C   UNL     1      -5.692   3.055   1.792  0.00  0.00    +0.033 A 
ATOM     21  C   UNL     1      -7.998   3.095   3.063  0.00  0.00    +0.027 A 
ATOM     22  C   UNL     1      -8.745   4.144   3.444  0.00  0.00    +0.083 A 
ATOM     23  N   UNL     1      -8.133   5.311   3.076  0.00  0.00    -0.361 N 
ATOM     24  H   UNL     1      -8.450   6.354   3.221  0.00  0.00    +0.165 HD
ENDBRANCH  13  15
ENDBRANCH   2  13
TORSDOF 5
