REMARK  Name = ZINC36503097
REMARK  17 active torsions:
REMARK  status: ('A' for Active; 'I' for Inactive)
REMARK    1  A    between atoms: C_1  and  C_2
REMARK    2  A    between atoms: C_2  and  C_3
REMARK    3  A    between atoms: C_3  and  C_4
REMARK    4  A    between atoms: N_6  and  C_7
REMARK    5  A    between atoms: N_6  and  C_13
REMARK    6  A    between atoms: C_7  and  C_8
REMARK    7  A    between atoms: C_13  and  C_15
REMARK    8  A    between atoms: C_13  and  C_25
REMARK    9  A    between atoms: C_17  and  N_22
REMARK   10  A    between atoms: N_27  and  C_28
REMARK   11  A    between atoms: C_28  and  C_29
REMARK   12  A    between atoms: C_28  and  C_30
REMARK   13  A    between atoms: C_28  and  C_31
REMARK   14  A    between atoms: C_31  and  C_32
REMARK   15  A    between atoms: C_32  and  C_33
REMARK   16  A    between atoms: C_32  and  C_34
REMARK   17  A    between atoms: C_32  and  C_35
REMARK                            x       y       z     vdW  Elec       q    Type
REMARK                         _______ _______ _______ _____ _____    ______ ____
ROOT
ATOM      1  C   UNL     1      -0.902  -6.087   1.603  0.00  0.00    +0.194 C 
ENDROOT
BRANCH   1   2
ATOM      2  C   UNL     1      -1.739  -6.236   0.359  0.00  0.00    +0.002 A 
ATOM      3  C   UNL     1      -3.118  -6.191   0.444  0.00  0.00    +0.040 A 
ATOM      4  C   UNL     1      -3.886  -6.327  -0.697  0.00  0.00    +0.127 A 
ATOM      5  C   UNL     1      -3.276  -6.510  -1.924  0.00  0.00    +0.034 A 
ATOM      6  C   UNL     1      -1.897  -6.555  -2.011  0.00  0.00    +0.022 A 
ATOM      7  C   UNL     1      -1.128  -6.412  -0.869  0.00  0.00    +0.047 A 
ATOM      8 CL   UNL     1       0.604  -6.462  -0.978  0.00  0.00    -0.083 Cl
BRANCH   4   9
ATOM      9  N   UNL     1      -5.363  -6.279  -0.606  0.00  0.00    +0.056 N 
ATOM     10  O   UNL     1      -5.895  -6.027   0.450  0.00  0.00    -0.126 OA
ATOM     11  O   UNL     1      -6.037  -6.492  -1.587  0.00  0.00    -0.126 OA
ENDBRANCH   4   9
ENDBRANCH   1   2
BRANCH   1  12
ATOM     12  C   UNL     1      -1.754  -6.359   2.817  0.00  0.00    +0.239 C 
ATOM     13  O   UNL     1      -2.105  -5.442   3.529  0.00  0.00    -0.273 OA
ATOM     14  N   UNL     1      -2.124  -7.621   3.111  0.00  0.00    -0.308 N 
ATOM     15  H   UNL     1      -1.784  -8.362   2.585  0.00  0.00    +0.149 HD
BRANCH  14  16
ATOM     16  C   UNL     1      -3.042  -7.874   4.224  0.00  0.00    +0.030 C 
ATOM     17  C   UNL     1      -2.322  -7.608   5.548  0.00  0.00    +0.031 C 
ATOM     18  C   UNL     1      -4.254  -6.947   4.108  0.00  0.00    +0.031 C 
BRANCH  16  19
ATOM     19  C   UNL     1      -3.508  -9.331   4.181  0.00  0.00    +0.031 C 
BRANCH  19  20
ATOM     20  C   UNL     1      -4.357  -9.557   2.928  0.00  0.00    -0.036 C 
ATOM     21  C   UNL     1      -3.763  -8.768   1.760  0.00  0.00    +0.010 C 
ATOM     22  C   UNL     1      -4.370 -11.047   2.583  0.00  0.00    +0.010 C 
ATOM     23  C   UNL     1      -5.788  -9.082   3.190  0.00  0.00    +0.010 C 
ENDBRANCH  19  20
ENDBRANCH  16  19
ENDBRANCH  14  16
ENDBRANCH   1  12
BRANCH   1  26
ATOM     24  C   UNL     1      -1.208  -3.670   1.599  0.00  0.00    +0.217 C 
ATOM     25  O   UNL     1      -2.401  -3.850   1.472  0.00  0.00    -0.276 OA
ATOM     26  N   UNL     1      -0.371  -4.724   1.675  0.00  0.00    -0.279 N 
BRANCH  24  27
ATOM     27  C   UNL     1      -0.662  -2.267   1.673  0.00  0.00    +0.096 C 
BRANCH  27  29
ATOM     28  C   UNL     1      -1.258   0.159   1.638  0.00  0.00    +0.004 C 
ATOM     29  C   UNL     1      -1.813  -1.265   1.564  0.00  0.00    +0.006 C 
ENDBRANCH  27  29
ENDBRANCH  24  27
BRANCH  26  30
ATOM     30  C   UNL     1       1.069  -4.506   1.828  0.00  0.00    +0.183 C 
BRANCH  30  31
ATOM     31  C   UNL     1       1.403  -4.360   3.290  0.00  0.00    +0.122 A 
ATOM     32  C   UNL     1       1.819  -5.346   4.104  0.00  0.00    +0.046 A 
ATOM     33  C   UNL     1       2.013  -4.770   5.381  0.00  0.00    +0.041 A 
ATOM     34  C   UNL     1       1.703  -3.465   5.270  0.00  0.00    +0.195 A 
ATOM     35  O   UNL     1       1.339  -3.222   4.000  0.00  0.00    -0.466 OA
ENDBRANCH  30  31
ENDBRANCH  26  30
ENDBRANCH   1  26
TORSDOF 11
