REMARK  Name = ZINC19639146
REMARK  11 active torsions:
REMARK  status: ('A' for Active; 'I' for Inactive)
REMARK    1  A    between atoms: C_1  and  C_2
REMARK    2  A    between atoms: C_4  and  C_31
REMARK    3  A    between atoms: C_6  and  C_8
REMARK    4  A    between atoms: N_10  and  C_11
REMARK    5  A    between atoms: C_11  and  N_13
REMARK    6  A    between atoms: N_13  and  C_14
REMARK    7  A    between atoms: C_15  and  C_28
REMARK    8  A    between atoms: C_20  and  C_24
REMARK    9  A    between atoms: C_24  and  C_25
REMARK   10  A    between atoms: C_24  and  C_26
REMARK   11  A    between atoms: C_24  and  C_27
REMARK                            x       y       z     vdW  Elec       q    Type
REMARK                         _______ _______ _______ _____ _____    ______ ____
ROOT
ATOM      1  C   UNL     1       0.076  -2.908   7.158  0.00  0.00    +0.084 A 
ATOM      2  C   UNL     1       0.070  -2.400   8.448  0.00  0.00    +0.068 A 
ATOM      3  C   UNL     1       0.090  -3.358   9.539  0.00  0.00    -0.023 A 
ATOM      4  C   UNL     1       0.112  -4.648   9.142  0.00  0.00    -0.004 A 
ATOM      5  S   UNL     1       0.099  -4.573   7.374  0.00  0.00    -0.077 S 
ATOM      6  C   UNL     1       0.138  -5.860  10.020  0.00  0.00    +0.046 C 
ATOM      7  C   UNL     1       0.515  -5.418  11.442  0.00  0.00    -0.000 C 
ATOM      8  C   UNL     1      -0.342  -4.209  11.828  0.00  0.00    +0.009 C 
ATOM      9  C   UNL     1       0.085  -2.985  11.015  0.00  0.00    +0.037 C 
ENDROOT
BRANCH   2  10
ATOM     10  C   UNL     1       0.045  -0.956   8.699  0.00  0.00    +0.244 C 
ATOM     11  O   UNL     1      -1.019  -0.375   8.807  0.00  0.00    -0.270 OA
ATOM     12  N   UNL     1       1.201  -0.272   8.812  0.00  0.00    -0.325 N 
ATOM     13  H   UNL     1       2.049  -0.735   8.726  0.00  0.00    +0.145 HD
ATOM     14  H   UNL     1       1.185   0.684   8.978  0.00  0.00    +0.145 HD
ENDBRANCH   2  10
BRANCH   7  15
ATOM     15  C   UNL     1       0.259  -6.565  12.421  0.00  0.00    -0.035 C 
ATOM     16  C   UNL     1       1.107  -7.774  12.023  0.00  0.00    +0.011 C 
ATOM     17  C   UNL     1       0.635  -6.121  13.836  0.00  0.00    +0.011 C 
ATOM     18  C   UNL     1      -1.223  -6.946  12.383  0.00  0.00    +0.011 C 
ENDBRANCH   7  15
BRANCH   1  19
ATOM     19  N   UNL     1       0.061  -2.204   5.965  0.00  0.00    -0.291 N 
ATOM     20  H   UNL     1       0.048  -1.234   5.974  0.00  0.00    +0.154 HD
BRANCH  19  21
ATOM     21  C   UNL     1       0.064  -2.867   4.791  0.00  0.00    +0.141 C 
ATOM     22  S   UNL     1       0.086  -4.579   4.775  0.00  0.00    -0.018 S 
BRANCH  21  25
ATOM     23  C   UNL     1       0.052  -2.845   2.457  0.00  0.00    +0.250 C 
ATOM     24  O   UNL     1       0.068  -4.061   2.446  0.00  0.00    -0.270 OA
ATOM     25  N   UNL     1       0.049  -2.183   3.630  0.00  0.00    -0.264 N 
ATOM     26  H   UNL     1       0.036  -1.213   3.639  0.00  0.00    +0.157 HD
BRANCH  23  32
ATOM     27  C   UNL     1      -0.018   1.503   0.010  0.00  0.00    +0.044 C 
ATOM     28  C   UNL     1       0.002  -0.004   0.002  0.00  0.00    -0.049 A 
ATOM     29  C   UNL     1       0.006  -0.688  -1.201  0.00  0.00    +0.006 A 
ATOM     30  C   UNL     1       0.024  -2.071  -1.218  0.00  0.00    -0.049 A 
ATOM     31  C   UNL     1       0.039  -2.778  -0.033  0.00  0.00    +0.016 A 
ATOM     32  C   UNL     1       0.036  -2.095   1.184  0.00  0.00    +0.038 A 
ATOM     33  C   UNL     1       0.023  -0.699   1.194  0.00  0.00    +0.016 A 
ATOM     34  C   UNL     1       0.027  -2.807  -2.533  0.00  0.00    +0.044 C 
ENDBRANCH  23  32
ENDBRANCH  21  25
ENDBRANCH  19  21
ENDBRANCH   1  19
TORSDOF 6
