REMARK  Name = ZINC02927870
REMARK  8 active torsions:
REMARK  status: ('A' for Active; 'I' for Inactive)
REMARK    1  A    between atoms: C_1  and  C_2
REMARK    2  A    between atoms: C_2  and  C_3
REMARK    3  A    between atoms: C_3  and  C_4
REMARK    4  A    between atoms: C_4  and  O_5
REMARK    5  A    between atoms: O_5  and  C_6
REMARK    6  A    between atoms: C_11  and  C_12
REMARK    7  A    between atoms: C_24  and  S_27
REMARK    8  A    between atoms: S_27  and  C_28
REMARK                            x       y       z     vdW  Elec       q    Type
REMARK                         _______ _______ _______ _____ _____    ______ ____
ROOT
ATOM      1  C   UNL     1       1.969  -0.648   1.163  0.00  0.00    +0.297 C 
ATOM      2  N   UNL     1       2.032   0.733   1.631  0.00  0.00    -0.305 N 
ATOM      3  C   UNL     1       2.211   1.752   0.692  0.00  0.00    +0.039 A 
ATOM      4  C   UNL     1       3.388   2.475   0.630  0.00  0.00    +0.024 A 
ATOM      5  C   UNL     1       3.540   3.463  -0.326  0.00  0.00    +0.002 A 
ATOM      6  C   UNL     1       2.521   3.733  -1.223  0.00  0.00    +0.001 A 
ATOM      7  C   UNL     1       1.336   3.026  -1.168  0.00  0.00    +0.012 A 
ATOM      8  C   UNL     1       1.167   2.036  -0.208  0.00  0.00    +0.028 A 
ATOM      9  C   UNL     1      -0.091   1.268  -0.100  0.00  0.00    +0.156 A 
ATOM     10  C   UNL     1      -0.042  -0.141   0.010  0.00  0.00    +0.248 A 
ATOM     11  N   UNL     1      -1.178  -0.809   0.115  0.00  0.00    -0.184 NA
ATOM     12  C   UNL     1      -2.329  -0.141   0.111  0.00  0.00    +0.212 A 
ATOM     13  N   UNL     1      -2.353   1.181   0.002  0.00  0.00    -0.122 NA
ATOM     14  N   UNL     1      -1.269   1.871  -0.098  0.00  0.00    -0.141 NA
ATOM     15  O   UNL     1       1.153  -0.777   0.004  0.00  0.00    -0.449 OA
ATOM     16  H   UNL     1       1.952   0.939   2.575  0.00  0.00    +0.150 HD
ENDROOT
BRANCH   1  22
ATOM     17  C   UNL     1       4.188  -1.597   1.846  0.00  0.00    +0.129 A 
ATOM     18  C   UNL     1       5.470  -2.031   1.542  0.00  0.00    +0.046 A 
ATOM     19  C   UNL     1       5.922  -1.988   0.238  0.00  0.00    +0.004 A 
ATOM     20  C   UNL     1       5.098  -1.513  -0.765  0.00  0.00    +0.001 A 
ATOM     21  C   UNL     1       3.817  -1.085  -0.467  0.00  0.00    +0.012 A 
ATOM     22  C   UNL     1       3.363  -1.121   0.838  0.00  0.00    +0.053 A 
BRANCH  17  23
ATOM     23  O   UNL     1       3.741  -1.637   3.129  0.00  0.00    -0.492 OA
BRANCH  23  24
ATOM     24  C   UNL     1       4.645  -2.139   4.115  0.00  0.00    +0.229 C 
BRANCH  24  25
ATOM     25  C   UNL     1       3.971  -2.108   5.488  0.00  0.00    +0.041 C 
BRANCH  25  27
ATOM     26  C   UNL     1       4.264  -2.615   7.917  0.00  0.00    +0.004 C 
ATOM     27  C   UNL     1       4.939  -2.646   6.544  0.00  0.00    -0.000 C 
ENDBRANCH  25  27
ENDBRANCH  24  25
ENDBRANCH  23  24
ENDBRANCH  17  23
ENDBRANCH   1  22
BRANCH  12  28
ATOM     28  S   UNL     1      -3.845  -1.027   0.251  0.00  0.00    -0.088 S 
ATOM     29  C   UNL     1      -5.020   0.349   0.189  0.00  0.00    +0.093 C 
ENDBRANCH  12  28
TORSDOF 6
