REMARK  Name = ZINC34256449
REMARK  5 active torsions:
REMARK  status: ('A' for Active; 'I' for Inactive)
REMARK    1  A    between atoms: C_7  and  C_11
REMARK    2  A    between atoms: C_11  and  C_12
REMARK    3  A    between atoms: C_12  and  C_14
REMARK    4  A    between atoms: C_12  and  N_29
REMARK    5  A    between atoms: C_16  and  C_19
REMARK                            x       y       z     vdW  Elec       q    Type
REMARK                         _______ _______ _______ _____ _____    ______ ____
ROOT
ATOM      1  C   UNL     1       0.236  -3.589  -1.455  0.00  0.00    +0.017 C 
ENDROOT
BRANCH   1   2
ATOM      2  C   UNL     1      -0.602  -4.842  -1.466  0.00  0.00    +0.182 A 
ATOM      3  N   UNL     1      -0.202  -6.011  -1.868  0.00  0.00    -0.210 NA
ATOM      4  C   UNL     1      -1.231  -6.890  -1.728  0.00  0.00    +0.164 A 
ATOM      5  C   UNL     1      -2.284  -6.196  -1.218  0.00  0.00    +0.230 A 
ATOM      6  O   UNL     1      -1.875  -4.927  -1.056  0.00  0.00    -0.449 OA
BRANCH   4   7
ATOM      7  C   UNL     1      -1.209  -8.325  -2.067  0.00  0.00    +0.268 C 
ATOM      8  O   UNL     1      -2.201  -9.006  -1.893  0.00  0.00    -0.268 OA
ATOM      9  N   UNL     1      -0.088  -8.882  -2.569  0.00  0.00    -0.296 N 
ATOM     10  C   UNL     1       1.117  -8.068  -2.776  0.00  0.00    +0.108 C 
ATOM     11  C   UNL     1       1.680  -7.657  -1.421  0.00  0.00    +0.019 C 
ATOM     12  C   UNL     1       2.325  -8.882  -0.751  0.00  0.00    +0.002 C 
ATOM     13  C   UNL     1       1.236  -9.772  -0.163  0.00  0.00    +0.000 C 
ATOM     14  C   UNL     1       1.176 -11.121  -0.901  0.00  0.00    +0.002 C 
ATOM     15  C   UNL     1       1.263 -10.888  -2.409  0.00  0.00    +0.019 C 
ATOM     16  C   UNL     1      -0.058 -10.295  -2.905  0.00  0.00    +0.108 C 
ENDBRANCH   4   7
ENDBRANCH   1   2
BRANCH   1  17
ATOM     17  N   UNL     1      -0.552  -2.469  -1.986  0.00  0.00    +0.386 N 
ATOM     18  H   UNL     1      -1.370  -2.331  -1.412  0.00  0.00    -0.089 HD
ATOM     19  H   UNL     1       0.009  -1.630  -1.979  0.00  0.00    -0.089 HD
ATOM     20  H   UNL     1      -0.836  -2.676  -2.932  0.00  0.00    -0.089 HD
ENDBRANCH   1  17
BRANCH   1  21
ATOM     21  C   UNL     1       0.666  -3.275  -0.021  0.00  0.00    +0.030 C 
BRANCH  21  28
ATOM     22  C   UNL     1      -0.017   1.362   0.009  0.00  0.00    +0.001 A 
ATOM     23  C   UNL     1       1.170   2.083   0.002  0.00  0.00    +0.002 A 
ATOM     24  C   UNL     1       2.386   1.436  -0.013  0.00  0.00    +0.026 A 
ATOM     25  C   UNL     1       2.428   0.046  -0.021  0.00  0.00    +0.047 A 
ATOM     26  C   UNL     1       1.223  -0.681  -0.013  0.00  0.00    +0.003 A 
ATOM     27  C   UNL     1       0.002  -0.004   0.002  0.00  0.00    +0.010 A 
ATOM     28  C   UNL     1       1.604  -2.095  -0.025  0.00  0.00    -0.023 A 
ATOM     29  C   UNL     1       2.945  -2.141  -0.038  0.00  0.00    +0.087 A 
ATOM     30  N   UNL     1       3.455  -0.871  -0.036  0.00  0.00    -0.360 N 
ATOM     31  H   UNL     1       4.399  -0.650  -0.044  0.00  0.00    +0.165 HD
ENDBRANCH  21  28
ENDBRANCH   1  21
TORSDOF 5
