REMARK  Name = ZINC35779122
REMARK  3 active torsions:
REMARK  status: ('A' for Active; 'I' for Inactive)
REMARK    1  A    between atoms: C_5  and  N_7
REMARK    2  A    between atoms: C_8  and  N_17
REMARK    3  A    between atoms: C_10  and  C_12
REMARK                            x       y       z     vdW  Elec       q    Type
REMARK                         _______ _______ _______ _____ _____    ______ ____
ROOT
ATOM      1  N   UNL     1       1.239  -2.082  -0.003  0.00  0.00    -0.217 N 
ATOM      2  C   UNL     1       0.152  -2.899   0.075  0.00  0.00    +0.120 A 
ATOM      3  C   UNL     1       0.595  -4.183   0.010  0.00  0.00    +0.074 A 
ATOM      4  C   UNL     1       1.999  -4.148  -0.113  0.00  0.00    +0.102 A 
ATOM      5  N   UNL     1       2.379  -2.885  -0.125  0.00  0.00    -0.164 NA
ENDROOT
BRANCH   1  10
ATOM      6  C   UNL     1       0.478   1.364   1.037  0.00  0.00    +0.002 A 
ATOM      7  C   UNL     1       1.177   2.085   0.087  0.00  0.00    +0.001 A 
ATOM      8  C   UNL     1       1.898   1.428  -0.893  0.00  0.00    +0.017 A 
ATOM      9  C   UNL     1       1.920   0.046  -0.926  0.00  0.00    +0.043 A 
ATOM     10  C   UNL     1       1.218  -0.681   0.027  0.00  0.00    +0.081 A 
ATOM     11  C   UNL     1       0.496  -0.017   1.010  0.00  0.00    +0.029 A 
ATOM     12 BR   UNL     1       2.905  -0.853  -2.267  0.00  0.00    -0.048 Br
ENDBRANCH   1  10
BRANCH   4  13
ATOM     13  C   UNL     1       2.890  -5.323  -0.215  0.00  0.00    +0.039 A 
ATOM     14  C   UNL     1       4.254  -5.364  -0.330  0.00  0.00    +0.018 A 
ATOM     15  C   UNL     1       4.875  -6.592  -0.410  0.00  0.00    +0.008 A 
ATOM     16  C   UNL     1       4.120  -7.719  -0.374  0.00  0.00    +0.046 A 
ATOM     17  S   UNL     1       2.469  -7.058  -0.214  0.00  0.00    -0.095 S 
ENDBRANCH   4  13
BRANCH   2  18
ATOM     18  N   UNL     1      -1.173  -2.494   0.200  0.00  0.00    -0.343 N 
ATOM     19  H   UNL     1      -1.399  -1.552   0.153  0.00  0.00    +0.144 HD
ATOM     20  H   UNL     1      -1.872  -3.154   0.335  0.00  0.00    +0.144 HD
ENDBRANCH   2  18
TORSDOF 3
