REMARK  Name = ZINC34259563
REMARK  7 active torsions:
REMARK  status: ('A' for Active; 'I' for Inactive)
REMARK    1  A    between atoms: C_1  and  C_2
REMARK    2  A    between atoms: C_2  and  C_4
REMARK    3  A    between atoms: C_2  and  O_37
REMARK    4  A    between atoms: C_4  and  C_34
REMARK    5  A    between atoms: C_9  and  C_12
REMARK    6  A    between atoms: N_24  and  C_27
REMARK    7  A    between atoms: C_27  and  C_28
REMARK                            x       y       z     vdW  Elec       q    Type
REMARK                         _______ _______ _______ _____ _____    ______ ____
ROOT
ATOM      1  C   UNL     1      -1.445  -0.272  -0.107  0.00  0.00    +0.074 C 
ATOM      2  C   UNL     1      -1.280  -1.786  -0.184  0.00  0.00    +0.088 C 
ATOM      3  C   UNL     1      -2.778  -2.129  -0.531  0.00  0.00    +0.077 C 
ATOM      4  C   UNL     1      -3.097  -1.201  -1.623  0.00  0.00    -0.026 C 
ATOM      5  N   UNL     1      -2.298   0.038  -1.301  0.00  0.00    +0.397 N 
ATOM      6  C   UNL     1      -2.843  -3.537  -0.222  0.00  0.00    +0.225 C 
ATOM      7  O   UNL     1      -3.505  -4.386  -0.778  0.00  0.00    -0.275 OA
ATOM      8  N   UNL     1      -1.990  -3.705   0.841  0.00  0.00    -0.237 N 
ATOM      9  C   UNL     1      -1.173  -2.615   1.057  0.00  0.00    +0.225 C 
ATOM     10  O   UNL     1      -0.511  -2.370   2.042  0.00  0.00    -0.275 OA
ATOM     11  H   UNL     1      -2.916   0.807  -1.090  0.00  0.00    -0.083 HD
ATOM     12  H   UNL     1      -1.713   0.272  -2.088  0.00  0.00    -0.083 HD
ENDROOT
BRANCH   4  13
ATOM     13  C   UNL     1      -2.689  -1.789  -2.949  0.00  0.00    -0.053 A 
ATOM     14  C   UNL     1      -1.456  -1.529  -3.462  0.00  0.00    +0.002 A 
ATOM     15  C   UNL     1      -1.060  -2.064  -4.687  0.00  0.00    +0.001 A 
ATOM     16  C   UNL     1      -1.897  -2.862  -5.406  0.00  0.00    +0.008 A 
ATOM     17  C   UNL     1      -3.178  -3.153  -4.908  0.00  0.00    -0.018 A 
ATOM     18  C   UNL     1      -3.578  -2.613  -3.660  0.00  0.00    -0.016 A 
ATOM     19  C   UNL     1      -4.858  -2.909  -3.159  0.00  0.00    +0.009 A 
ATOM     20  C   UNL     1      -5.692  -3.712  -3.875  0.00  0.00    +0.001 A 
ATOM     21  C   UNL     1      -5.296  -4.247  -5.100  0.00  0.00    +0.001 A 
ATOM     22  C   UNL     1      -4.070  -3.972  -5.622  0.00  0.00    +0.008 A 
ENDBRANCH   4  13
BRANCH   1  23
ATOM     23  C   UNL     1      -2.146   0.128   1.166  0.00  0.00    +0.349 C 
ATOM     24  O   UNL     1      -3.227   0.690   1.116  0.00  0.00    -0.248 OA
ATOM     25  O   UNL     1      -1.633  -0.112   2.245  0.00  0.00    -0.248 OA
ENDBRANCH   1  23
BRANCH   1  27
ATOM     26  C   UNL     1      -0.296   1.942  -0.260  0.00  0.00    +0.037 C 
ATOM     27  C   UNL     1      -0.088   0.427  -0.217  0.00  0.00    +0.112 C 
BRANCH  27  28
ATOM     28  O   UNL     1       0.715   0.088   0.916  0.00  0.00    -0.393 OA
ATOM     29  H   UNL     1       1.591   0.496   0.912  0.00  0.00    +0.210 HD
ENDBRANCH  27  28
ENDBRANCH   1  27
BRANCH   8  30
ATOM     30  C   UNL     1      -1.942  -4.921   1.657  0.00  0.00    +0.151 C 
BRANCH  30  31
ATOM     31  C   UNL     1      -0.944  -5.884   1.065  0.00  0.00    -0.030 A 
ATOM     32  C   UNL     1      -1.352  -6.806   0.118  0.00  0.00    +0.005 A 
ATOM     33  C   UNL     1      -0.437  -7.689  -0.425  0.00  0.00    +0.000 A 
ATOM     34  C   UNL     1       0.885  -7.649  -0.022  0.00  0.00    +0.000 A 
ATOM     35  C   UNL     1       1.292  -6.726   0.923  0.00  0.00    +0.000 A 
ATOM     36  C   UNL     1       0.379  -5.841   1.463  0.00  0.00    +0.005 A 
ENDBRANCH  30  31
ENDBRANCH   8  30
TORSDOF 6
