REMARK  Name = ZINC61468697
REMARK  3 active torsions:
REMARK  status: ('A' for Active; 'I' for Inactive)
REMARK    1  A    between atoms: C_7  and  C_9
REMARK    2  A    between atoms: C_9  and  S_10
REMARK    3  A    between atoms: S_10  and  C_11
REMARK                            x       y       z     vdW  Elec       q    Type
REMARK                         _______ _______ _______ _____ _____    ______ ____
ROOT
ATOM      1  C   UNL     1       3.030  -2.146   1.542  0.00  0.00    +0.165 C 
ENDROOT
BRANCH   1   8
ATOM      2  C   UNL     1      -0.019   1.526   0.010  0.00  0.00    +0.003 C 
ATOM      3  C   UNL     1       1.417   2.058  -0.000  0.00  0.00    +0.019 C 
ATOM      4  C   UNL     1       2.144   1.577   1.259  0.00  0.00    +0.108 C 
ATOM      5  N   UNL     1       2.043   0.113   1.334  0.00  0.00    -0.301 N 
ATOM      6  C   UNL     1       0.714  -0.508   1.262  0.00  0.00    +0.108 C 
ATOM      7  C   UNL     1       0.002  -0.004   0.002  0.00  0.00    +0.019 C 
ATOM      8  C   UNL     1       3.149  -0.646   1.466  0.00  0.00    +0.225 C 
ATOM      9  O   UNL     1       4.241  -0.121   1.524  0.00  0.00    -0.275 OA
ENDBRANCH   1   8
BRANCH   1  10
ATOM     10  S   UNL     1       4.681  -2.877   1.716  0.00  0.00    -0.146 S 
BRANCH  10  11
ATOM     11  C   UNL     1       4.365  -4.661   1.792  0.00  0.00    +0.069 C 
ATOM     12  C   UNL     1       3.597  -4.999   3.081  0.00  0.00    +0.038 C 
ATOM     13  C   UNL     1       3.604  -6.529   3.314  0.00  0.00    +0.167 C 
ATOM     14  S   UNL     1       5.164  -7.055   2.494  0.00  0.00    -0.030 S 
ATOM     15  O   UNL     1       4.849  -7.924   1.415  0.00  0.00    -0.174 OA
ATOM     16  O   UNL     1       6.088  -7.480   3.487  0.00  0.00    -0.174 OA
ATOM     17  C   UNL     1       5.715  -5.433   1.816  0.00  0.00    +0.180 C 
ENDBRANCH  10  11
ENDBRANCH   1  10
TORSDOF 3
