REMARK  Name = ZINC62716060
REMARK  6 active torsions:
REMARK  status: ('A' for Active; 'I' for Inactive)
REMARK    1  A    between atoms: C_1  and  C_2
REMARK    2  A    between atoms: C_5  and  N_8
REMARK    3  A    between atoms: C_9  and  C_11
REMARK    4  A    between atoms: C_11  and  C_19
REMARK    5  A    between atoms: C_14  and  C_16
REMARK    6  A    between atoms: C_19  and  C_21
REMARK                            x       y       z     vdW  Elec       q    Type
REMARK                         _______ _______ _______ _____ _____    ______ ____
ROOT
ATOM      1  N   UNL     1       0.241  -4.112   0.088  0.00  0.00    -0.281 N 
ATOM      2  C   UNL     1       0.155  -4.850   1.212  0.00  0.00    +0.253 C 
ATOM      3  O   UNL     1      -0.041  -4.306   2.284  0.00  0.00    -0.270 OA
ATOM      4  H   UNL     1       0.272  -4.548  -0.777  0.00  0.00    +0.155 HD
ENDROOT
BRANCH   1   9
ATOM      5  C   UNL     1       0.422   1.548   0.418  0.00  0.00    +0.044 C 
ATOM      6  C   UNL     1       0.374   0.045   0.331  0.00  0.00    -0.050 A 
ATOM      7  C   UNL     1       1.034  -0.608  -0.694  0.00  0.00    +0.005 A 
ATOM      8  C   UNL     1       0.992  -1.986  -0.777  0.00  0.00    +0.023 A 
ATOM      9  C   UNL     1       0.286  -2.716   0.170  0.00  0.00    +0.034 A 
ATOM     10  C   UNL     1      -0.376  -2.057   1.198  0.00  0.00    +0.023 A 
ATOM     11  C   UNL     1      -0.325  -0.679   1.279  0.00  0.00    +0.005 A 
ENDBRANCH   1   9
BRANCH   2  12
ATOM     12  C   UNL     1       0.298  -6.305   1.145  0.00  0.00    +0.099 C 
ATOM     13  C   UNL     1      -0.791  -7.101   0.750  0.00  0.00    +0.059 C 
ATOM     14  S   UNL     1      -2.343  -6.765   0.292  0.00  0.00    -0.091 S 
ATOM     15  C   UNL     1      -2.728  -8.515   0.047  0.00  0.00    +0.227 C 
ATOM     16  S   UNL     1      -1.007  -8.728   0.560  0.00  0.00    -0.091 S 
BRANCH  15  17
ATOM     17  C   UNL     1      -2.996  -8.898  -1.385  0.00  0.00    +0.379 C 
ATOM     18  O   UNL     1      -2.732 -10.022  -1.776  0.00  0.00    -0.244 OA
ATOM     19  O   UNL     1      -3.478  -8.083  -2.154  0.00  0.00    -0.244 OA
ENDBRANCH  15  17
BRANCH  12  20
ATOM     20  C   UNL     1       1.526  -6.908   1.476  0.00  0.00    +0.167 C 
ATOM     21  O   UNL     1       1.613  -8.118   1.531  0.00  0.00    -0.292 OA
ATOM     22  C   UNL     1       2.732  -6.051   1.761  0.00  0.00    +0.092 C 
ENDBRANCH  12  20
ENDBRANCH   2  12
TORSDOF 4
