REMARK  Name = ZINC51113838
REMARK  6 active torsions:
REMARK  status: ('A' for Active; 'I' for Inactive)
REMARK    1  A    between atoms: C_1  and  C_2
REMARK    2  A    between atoms: C_2  and  C_4
REMARK    3  A    between atoms: C_2  and  N_11
REMARK    4  A    between atoms: C_12  and  C_14
REMARK    5  A    between atoms: C_19  and  N_20
REMARK    6  A    between atoms: N_20  and  N_21
REMARK                            x       y       z     vdW  Elec       q    Type
REMARK                         _______ _______ _______ _____ _____    ______ ____
ROOT
ATOM      1  N   UNL     1      -1.364  -0.534   0.014  0.00  0.00    -0.305 N 
ATOM      2  C   UNL     1      -2.027  -0.660   1.181  0.00  0.00    +0.246 C 
ATOM      3  O   UNL     1      -1.483  -0.355   2.225  0.00  0.00    -0.270 OA
ATOM      4  H   UNL     1      -1.798  -0.777  -0.819  0.00  0.00    +0.150 HD
ENDROOT
BRANCH   2   5
ATOM      5  C   UNL     1      -3.411  -1.168   1.191  0.00  0.00    +0.059 A 
ATOM      6  C   UNL     1      -4.082  -1.405  -0.011  0.00  0.00    +0.015 A 
ATOM      7  C   UNL     1      -5.375  -1.879   0.005  0.00  0.00    +0.001 A 
ATOM      8  C   UNL     1      -6.016  -2.123   1.210  0.00  0.00    +0.002 A 
ATOM      9  C   UNL     1      -5.368  -1.894   2.405  0.00  0.00    +0.025 A 
ATOM     10  C   UNL     1      -4.061  -1.422   2.409  0.00  0.00    +0.053 A 
BRANCH  10  11
ATOM     11  N   UNL     1      -3.403  -1.196   3.611  0.00  0.00    -0.282 N 
ATOM     12  H   UNL     1      -2.521  -0.793   3.613  0.00  0.00    +0.166 HD
BRANCH  11  13
ATOM     13  N   UNL     1      -3.999  -1.542   4.791  0.00  0.00    -0.256 NA
ATOM     14  H   UNL     1      -4.252  -2.519   4.795  0.00  0.00    +0.140 HD
ATOM     15  H   UNL     1      -3.405  -1.319   5.575  0.00  0.00    +0.140 HD
ENDBRANCH  11  13
ENDBRANCH  10  11
ENDBRANCH   2   5
BRANCH   1  17
ATOM     16  C   UNL     1      -0.007   1.500  -0.010  0.00  0.00    +0.033 C 
ATOM     17  C   UNL     1       0.011  -0.029   0.004  0.00  0.00    +0.100 C 
BRANCH  17  18
ATOM     18  C   UNL     1       0.722  -0.535  -1.226  0.00  0.00    -0.027 A 
ATOM     19  C   UNL     1       0.058  -0.582  -2.437  0.00  0.00    +0.008 A 
ATOM     20  C   UNL     1       0.709  -1.045  -3.565  0.00  0.00    +0.038 A 
ATOM     21  C   UNL     1       2.027  -1.461  -3.481  0.00  0.00    +0.123 A 
ATOM     22  C   UNL     1       2.692  -1.412  -2.267  0.00  0.00    +0.038 A 
ATOM     23  C   UNL     1       2.040  -0.945  -1.142  0.00  0.00    +0.008 A 
ATOM     24  F   UNL     1       2.665  -1.913  -4.583  0.00  0.00    -0.205 F 
ENDBRANCH  17  18
ENDBRANCH   1  17
TORSDOF 5
