REMARK  Name = ZINC22430997
REMARK  11 active torsions:
REMARK  status: ('A' for Active; 'I' for Inactive)
REMARK    1  A    between atoms: C_1  and  C_2
REMARK    2  A    between atoms: C_5  and  S_8
REMARK    3  A    between atoms: S_8  and  N_11
REMARK    4  A    between atoms: N_11  and  C_12
REMARK    5  A    between atoms: N_11  and  C_27
REMARK    6  A    between atoms: C_12  and  C_13
REMARK    7  A    between atoms: N_15  and  C_16
REMARK    8  A    between atoms: C_16  and  C_18
REMARK    9  A    between atoms: C_16  and  C_19
REMARK   10  A    between atoms: C_22  and  O_25
REMARK   11  A    between atoms: O_25  and  C_26
REMARK                            x       y       z     vdW  Elec       q    Type
REMARK                         _______ _______ _______ _____ _____    ______ ____
ROOT
ATOM      1  N   UNL     1       1.237  -2.078  -0.020  0.00  0.00    -0.194 N 
ENDROOT
BRANCH   1   2
ATOM      2  C   UNL     1       1.219  -0.681  -0.024  0.00  0.00    +0.052 A 
ATOM      3  C   UNL     1       0.298   0.005   0.757  0.00  0.00    +0.026 A 
ATOM      4  C   UNL     1       0.282   1.386   0.752  0.00  0.00    +0.017 A 
ATOM      5  C   UNL     1       1.183   2.086  -0.031  0.00  0.00    +0.018 A 
ATOM      6  C   UNL     1       2.102   1.406  -0.810  0.00  0.00    +0.017 A 
ATOM      7  C   UNL     1       2.122   0.025  -0.809  0.00  0.00    +0.026 A 
ATOM      8 BR   UNL     1       1.159   3.977  -0.035  0.00  0.00    -0.050 Br
ENDBRANCH   1   2
BRANCH   1   9
ATOM      9  S   UNL     1       2.602  -2.887   0.453  0.00  0.00    +0.075 S 
ATOM     10  O   UNL     1       2.610  -4.119  -0.255  0.00  0.00    -0.150 OA
ATOM     11  O   UNL     1       3.674  -1.956   0.374  0.00  0.00    -0.150 OA
BRANCH   9  16
ATOM     12  C   UNL     1       1.933  -4.255   6.291  0.00  0.00    +0.044 C 
ATOM     13  C   UNL     1       2.100  -3.913   4.833  0.00  0.00    -0.050 A 
ATOM     14  C   UNL     1       1.665  -4.796   3.862  0.00  0.00    +0.005 A 
ATOM     15  C   UNL     1       1.819  -4.482   2.524  0.00  0.00    +0.029 A 
ATOM     16  C   UNL     1       2.407  -3.286   2.158  0.00  0.00    +0.109 A 
ATOM     17  C   UNL     1       2.846  -2.406   3.129  0.00  0.00    +0.029 A 
ATOM     18  C   UNL     1       2.689  -2.717   4.466  0.00  0.00    +0.005 A 
ENDBRANCH   9  16
ENDBRANCH   1   9
BRANCH   1  19
ATOM     19  C   UNL     1       0.049  -2.827  -0.435  0.00  0.00    +0.227 C 
BRANCH  19  20
ATOM     20  C   UNL     1       0.046  -2.975  -1.935  0.00  0.00    +0.233 C 
ATOM     21  O   UNL     1       0.948  -2.501  -2.592  0.00  0.00    -0.274 OA
ATOM     22  N   UNL     1      -0.959  -3.634  -2.545  0.00  0.00    -0.307 N 
ATOM     23  H   UNL     1      -1.778  -4.063  -1.949  0.00  0.00    +0.149 HD
BRANCH  22  24
ATOM     24  C   UNL     1      -0.962  -3.778  -4.003  0.00  0.00    +0.100 C 
ATOM     25  C   UNL     1      -1.588  -2.534  -4.637  0.00  0.00    +0.033 C 
BRANCH  24  26
ATOM     26  C   UNL     1      -1.763  -4.995  -4.386  0.00  0.00    -0.027 A 
ATOM     27  C   UNL     1      -2.935  -5.289  -3.713  0.00  0.00    +0.009 A 
ATOM     28  C   UNL     1      -3.675  -6.401  -4.067  0.00  0.00    +0.046 A 
ATOM     29  C   UNL     1      -3.235  -7.229  -5.090  0.00  0.00    +0.120 A 
ATOM     30  C   UNL     1      -2.057  -6.934  -5.760  0.00  0.00    +0.046 A 
ATOM     31  C   UNL     1      -1.324  -5.818  -5.407  0.00  0.00    +0.009 A 
BRANCH  29  32
ATOM     32  O   UNL     1      -3.958  -8.327  -5.435  0.00  0.00    -0.495 OA
ATOM     33  C   UNL     1      -5.161  -8.569  -4.702  0.00  0.00    +0.277 C 
ENDBRANCH  29  32
ENDBRANCH  24  26
ENDBRANCH  22  24
ENDBRANCH  19  20
ENDBRANCH   1  19
TORSDOF 8
