REMARK  Name = ZINC05589066
REMARK  5 active torsions:
REMARK  status: ('A' for Active; 'I' for Inactive)
REMARK    1  A    between atoms: C_3  and  C_10
REMARK    2  A    between atoms: C_5  and  N_7
REMARK    3  A    between atoms: C_21  and  C_26
REMARK    4  A    between atoms: C_26  and  C_28
REMARK    5  A    between atoms: C_29  and  C_30
REMARK                            x       y       z     vdW  Elec       q    Type
REMARK                         _______ _______ _______ _____ _____    ______ ____
ROOT
ATOM      1  C   UNL     1      -6.217   3.314   0.107  0.00  0.00    +0.105 C 
ATOM      2  C   UNL     1      -6.009   2.020   0.873  0.00  0.00    +0.029 C 
ATOM      3  C   UNL     1      -7.154   0.999   0.886  0.00  0.00    +0.033 C 
ATOM      4  C   UNL     1      -6.391  -0.319   1.036  0.00  0.00    -0.030 C 
ATOM      5  C   UNL     1      -5.161  -0.188   0.554  0.00  0.00    -0.023 C 
ATOM      6  C   UNL     1      -5.006   1.189   0.018  0.00  0.00    +0.049 C 
ATOM      7  C   UNL     1      -3.705   1.893   0.035  0.00  0.00    -0.019 A 
ATOM      8  C   UNL     1      -2.506   1.224   0.021  0.00  0.00    +0.017 A 
ATOM      9  C   UNL     1      -1.303   1.935   0.019  0.00  0.00    +0.022 A 
ATOM     10  C   UNL     1      -1.326   3.333   0.032  0.00  0.00    +0.013 A 
ATOM     11  C   UNL     1      -2.528   4.001   0.043  0.00  0.00    +0.024 A 
ATOM     12  C   UNL     1      -3.729   3.296   0.053  0.00  0.00    +0.031 A 
ATOM     13  N   UNL     1      -4.908   4.001   0.122  0.00  0.00    -0.336 N 
ATOM     14  H   UNL     1      -4.880   4.970   0.159  0.00  0.00    +0.147 HD
ENDROOT
BRANCH   1  17
ATOM     15  C   UNL     1      -7.871   5.699   2.521  0.00  0.00    +0.003 A 
ATOM     16  C   UNL     1      -6.917   4.917   1.897  0.00  0.00    +0.005 A 
ATOM     17  C   UNL     1      -7.258   4.162   0.791  0.00  0.00    -0.025 A 
ATOM     18  C   UNL     1      -8.556   4.181   0.315  0.00  0.00    +0.038 A 
ATOM     19  C   UNL     1      -9.511   4.958   0.942  0.00  0.00    +0.127 A 
ATOM     20  C   UNL     1      -9.168   5.717   2.046  0.00  0.00    +0.033 A 
BRANCH  19  21
ATOM     21  N   UNL     1     -10.901   4.978   0.433  0.00  0.00    +0.056 N 
ATOM     22  O   UNL     1     -11.203   4.309  -0.539  0.00  0.00    -0.126 OA
ATOM     23  O   UNL     1     -11.742   5.663   0.986  0.00  0.00    -0.126 OA
ENDBRANCH  19  21
ENDBRANCH   1  17
BRANCH   9  24
ATOM     24  C   UNL     1      -0.015   1.214   0.009  0.00  0.00    +0.186 C 
ATOM     25  O   UNL     1       0.002  -0.004   0.002  0.00  0.00    -0.287 OA
BRANCH  24  26
ATOM     26  C   UNL     1       1.200   1.938   0.001  0.00  0.00    +0.055 C 
ATOM     27  C   UNL     1       2.386   1.275  -0.014  0.00  0.00    +0.050 C 
BRANCH  27  28
ATOM     28  C   UNL     1       3.601   1.998  -0.022  0.00  0.00    +0.128 A 
ATOM     29  C   UNL     1       4.871   1.456  -0.031  0.00  0.00    +0.049 A 
ATOM     30  C   UNL     1       5.765   2.537  -0.039  0.00  0.00    +0.042 A 
ATOM     31  C   UNL     1       5.026   3.669  -0.025  0.00  0.00    +0.195 A 
ATOM     32  O   UNL     1       3.726   3.342  -0.015  0.00  0.00    -0.464 OA
ENDBRANCH  27  28
ENDBRANCH  24  26
ENDBRANCH   9  24
TORSDOF 5
