REMARK  Name = ZINC20573713
REMARK  4 active torsions:
REMARK  status: ('A' for Active; 'I' for Inactive)
REMARK    1  A    between atoms: C_6  and  C_7
REMARK    2  A    between atoms: C_7  and  C_8
REMARK    3  A    between atoms: N_10  and  C_11
REMARK    4  A    between atoms: C_11  and  C_12
REMARK                            x       y       z     vdW  Elec       q    Type
REMARK                         _______ _______ _______ _____ _____    ______ ____
ROOT
ATOM      1  C   UNL     1      -4.608  -2.714  -3.015  0.00  0.00    +0.233 C 
ATOM      2  O   UNL     1      -5.118  -3.030  -1.962  0.00  0.00    -0.274 OA
ATOM      3  N   UNL     1      -5.198  -3.053  -4.179  0.00  0.00    -0.300 N 
ATOM      4  C   UNL     1      -4.588  -2.682  -5.463  0.00  0.00    +0.110 C 
ATOM      5  C   UNL     1      -5.626  -1.930  -6.302  0.00  0.00    +0.047 C 
ATOM      6  C   UNL     1      -6.891  -2.781  -6.426  0.00  0.00    +0.064 C 
ATOM      7  C   UNL     1      -7.481  -3.035  -5.040  0.00  0.00    +0.047 C 
ATOM      8  C   UNL     1      -6.461  -3.804  -4.186  0.00  0.00    +0.110 C 
ATOM      9  C   UNL     1      -7.899  -2.070  -7.288  0.00  0.00    +0.057 A 
ATOM     10  C   UNL     1      -8.152  -2.400  -8.575  0.00  0.00    +0.039 A 
ATOM     11  N   UNL     1      -9.094  -1.577  -9.036  0.00  0.00    -0.349 N 
ATOM     12  C   UNL     1      -9.437  -0.744  -8.086  0.00  0.00    +0.171 A 
ATOM     13  N   UNL     1      -8.709  -1.023  -6.979  0.00  0.00    -0.348 N 
ATOM     14  H   UNL     1      -8.757  -0.563  -6.126  0.00  0.00    +0.166 HD
ATOM     15  C   UNL     1      -7.441  -3.523  -9.290  0.00  0.00    +0.070 C 
ATOM     16  C   UNL     1      -6.193  -3.887  -8.475  0.00  0.00    +0.088 C 
ATOM     17  N   UNL     1      -6.558  -4.066  -7.063  0.00  0.00    -0.305 NA
ATOM     18  H   UNL     1      -5.825  -4.541  -6.558  0.00  0.00    +0.123 HD
ATOM     19  H   UNL     1      -9.465  -1.592  -9.931  0.00  0.00    +0.166 HD
ENDROOT
BRANCH   1  20
ATOM     20  C   UNL     1      -3.313  -1.943  -3.024  0.00  0.00    +0.200 C 
BRANCH  20  23
ATOM     21  C   UNL     1      -1.738  -1.024  -1.407  0.00  0.00    +0.218 C 
ATOM     22  O   UNL     1      -1.070  -0.616  -2.333  0.00  0.00    -0.275 OA
ATOM     23  N   UNL     1      -2.880  -1.701  -1.646  0.00  0.00    -0.306 N 
ATOM     24  H   UNL     1      -3.414  -2.027  -0.905  0.00  0.00    +0.149 HD
BRANCH  21  25
ATOM     25  C   UNL     1      -1.293  -0.775   0.011  0.00  0.00    +0.130 C 
BRANCH  25  31
ATOM     26  C   UNL     1      -0.017   1.378   0.010  0.00  0.00    +0.005 A 
ATOM     27  C   UNL     1       1.171   2.086   0.002  0.00  0.00    +0.020 A 
ATOM     28  C   UNL     1       2.378   1.410  -0.013  0.00  0.00    +0.041 A 
ATOM     29  C   UNL     1       2.396   0.027  -0.021  0.00  0.00    +0.020 A 
ATOM     30  C   UNL     1       1.208  -0.679  -0.013  0.00  0.00    +0.005 A 
ATOM     31  C   UNL     1       0.002  -0.004   0.002  0.00  0.00    -0.039 A 
ATOM     32 CL   UNL     1       3.870   2.298  -0.023  0.00  0.00    -0.084 Cl
ENDBRANCH  25  31
ENDBRANCH  21  25
ENDBRANCH  20  23
ENDBRANCH   1  20
TORSDOF 4
