REMARK  Name = ZINC36307508
REMARK  14 active torsions:
REMARK  status: ('A' for Active; 'I' for Inactive)
REMARK    1  A    between atoms: C_1  and  N_2
REMARK    2  A    between atoms: C_3  and  O_29
REMARK    3  A    between atoms: C_4  and  C_13
REMARK    4  A    between atoms: C_5  and  C_7
REMARK    5  A    between atoms: C_13  and  N_14
REMARK    6  A    between atoms: N_14  and  C_15
REMARK    7  A    between atoms: N_14  and  C_21
REMARK    8  A    between atoms: C_15  and  C_16
REMARK    9  A    between atoms: C_21  and  C_22
REMARK   10  A    between atoms: C_22  and  C_24
REMARK   11  A    between atoms: C_22  and  O_28
REMARK   12  A    between atoms: C_24  and  C_25
REMARK   13  A    between atoms: C_25  and  C_26
REMARK   14  A    between atoms: O_29  and  C_30
REMARK                            x       y       z     vdW  Elec       q    Type
REMARK                         _______ _______ _______ _____ _____    ______ ____
ROOT
ATOM      1  C   UNL     1       1.295   0.259  -0.528  0.00  0.00    +0.176 C 
ATOM      2  N   UNL     1       0.822  -1.127  -0.476  0.00  0.00    -0.235 N 
ATOM      3  C   UNL     1       0.550  -1.918  -1.546  0.00  0.00    +0.221 A 
ATOM      4  C   UNL     1       0.140  -3.123  -1.075  0.00  0.00    +0.025 A 
ATOM      5  C   UNL     1       0.162  -3.067   0.332  0.00  0.00    +0.098 A 
ATOM      6  N   UNL     1       0.576  -1.869   0.686  0.00  0.00    -0.168 NA
ENDROOT
BRANCH   5   7
ATOM      7  C   UNL     1      -0.212  -4.168   1.254  0.00  0.00    +0.002 A 
ATOM      8  C   UNL     1      -1.346  -4.937   1.001  0.00  0.00    +0.010 A 
ATOM      9  C   UNL     1      -1.689  -5.960   1.862  0.00  0.00    +0.001 A 
ATOM     10  C   UNL     1      -0.909  -6.222   2.974  0.00  0.00    +0.000 A 
ATOM     11  C   UNL     1       0.217  -5.461   3.230  0.00  0.00    +0.001 A 
ATOM     12  C   UNL     1       0.573  -4.439   2.372  0.00  0.00    +0.010 A 
ENDBRANCH   5   7
BRANCH   4  13
ATOM     13  C   UNL     1      -0.267  -4.311  -1.909  0.00  0.00    -0.035 C 
BRANCH  13  14
ATOM     14  N   UNL     1       0.931  -5.056  -2.317  0.00  0.00    +0.389 N 
ATOM     15  H   UNL     1       1.573  -4.432  -2.782  0.00  0.00    -0.081 HD
BRANCH  14  16
ATOM     16  C   UNL     1       0.547  -6.137  -3.235  0.00  0.00    -0.003 C 
BRANCH  16  17
ATOM     17  C   UNL     1      -0.013  -5.544  -4.502  0.00  0.00    +0.089 A 
ATOM     18  C   UNL     1       0.687  -5.263  -5.616  0.00  0.00    +0.042 A 
ATOM     19  C   UNL     1      -0.228  -4.725  -6.550  0.00  0.00    +0.041 A 
ATOM     20  C   UNL     1      -1.432  -4.709  -5.951  0.00  0.00    +0.195 A 
ATOM     21  O   UNL     1      -1.297  -5.212  -4.713  0.00  0.00    -0.470 OA
ENDBRANCH  16  17
ENDBRANCH  14  16
BRANCH  14  22
ATOM     22  C   UNL     1       1.579  -5.630  -1.130  0.00  0.00    -0.046 C 
BRANCH  22  23
ATOM     23  C   UNL     1       2.892  -6.300  -1.539  0.00  0.00    +0.098 C 
BRANCH  23  24
ATOM     24  O   UNL     1       3.801  -5.309  -2.024  0.00  0.00    -0.394 OA
ATOM     25  H   UNL     1       4.020  -4.625  -1.377  0.00  0.00    +0.210 HD
ENDBRANCH  23  24
BRANCH  23  26
ATOM     26  C   UNL     1       3.505  -7.003  -0.326  0.00  0.00    +0.033 C 
BRANCH  26  27
ATOM     27  C   UNL     1       4.751  -7.777  -0.761  0.00  0.00    +0.029 C 
BRANCH  27  28
ATOM     28  C   UNL     1       5.355  -8.470   0.433  0.00  0.00    -0.034 C 
ATOM     29  C   UNL     1       5.563  -9.763   0.403  0.00  0.00    +0.004 C 
ENDBRANCH  27  28
ENDBRANCH  26  27
ENDBRANCH  23  26
ENDBRANCH  22  23
ENDBRANCH  14  22
ENDBRANCH  13  14
ENDBRANCH   4  13
BRANCH   3  30
ATOM     30  O   UNL     1       0.667  -1.566  -2.851  0.00  0.00    -0.438 OA
BRANCH  30  31
ATOM     31  C   UNL     1      -0.407  -0.995  -3.457  0.00  0.00    +0.131 A 
ATOM     32  C   UNL     1      -1.535  -0.677  -2.715  0.00  0.00    +0.049 A 
ATOM     33  C   UNL     1      -2.626  -0.095  -3.331  0.00  0.00    +0.042 A 
ATOM     34  C   UNL     1      -2.594   0.170  -4.690  0.00  0.00    +0.124 A 
ATOM     35  C   UNL     1      -1.469  -0.147  -5.432  0.00  0.00    +0.042 A 
ATOM     36  C   UNL     1      -0.374  -0.723  -4.817  0.00  0.00    +0.049 A 
ATOM     37  F   UNL     1      -3.661   0.739  -5.292  0.00  0.00    -0.205 F 
ENDBRANCH  30  31
ENDBRANCH   3  30
TORSDOF 13
