REMARK  Name = ZINC28572177
REMARK  12 active torsions:
REMARK  status: ('A' for Active; 'I' for Inactive)
REMARK    1  A    between atoms: C_1  and  C_2
REMARK    2  A    between atoms: C_2  and  C_3
REMARK    3  A    between atoms: C_2  and  C_4
REMARK    4  A    between atoms: C_2  and  C_5
REMARK    5  A    between atoms: C_7  and  C_32
REMARK    6  A    between atoms: C_9  and  N_11
REMARK    7  A    between atoms: N_14  and  C_17
REMARK    8  A    between atoms: C_17  and  C_18
REMARK    9  A    between atoms: C_18  and  C_19
REMARK   10  A    between atoms: C_19  and  C_20
REMARK   11  A    between atoms: C_20  and  N_21
REMARK   12  A    between atoms: C_25  and  C_28
REMARK                            x       y       z     vdW  Elec       q    Type
REMARK                         _______ _______ _______ _____ _____    ______ ____
ROOT
ATOM      1  N   UNL     1       8.659   6.512  -3.675  0.00  0.00    -0.319 N 
ATOM      2  C   UNL     1       8.868   5.171  -4.238  0.00  0.00    +0.088 C 
ATOM      3  C   UNL     1       7.531   4.427  -4.285  0.00  0.00    -0.060 C 
ATOM      4  N   UNL     1       6.971   4.345  -2.929  0.00  0.00    +0.382 N 
ATOM      5  C   UNL     1       6.763   5.686  -2.366  0.00  0.00    -0.060 C 
ATOM      6  C   UNL     1       8.099   6.431  -2.319  0.00  0.00    +0.088 C 
ATOM      7  H   UNL     1       7.698   3.819  -2.292  0.00  0.00    -0.082 HD
ENDROOT
BRANCH   1  12
ATOM      8  C   UNL     1      12.080   7.402  -4.168  0.00  0.00    +0.137 A 
ATOM      9  N   UNL     1      12.138   8.637  -3.712  0.00  0.00    -0.227 NA
ATOM     10  C   UNL     1      11.062   9.236  -3.222  0.00  0.00    +0.149 A 
ATOM     11  C   UNL     1       9.863   8.551  -3.197  0.00  0.00    +0.076 A 
ATOM     12  C   UNL     1       9.836   7.243  -3.683  0.00  0.00    +0.125 A 
ATOM     13  N   UNL     1      10.959   6.710  -4.159  0.00  0.00    -0.217 NA
BRANCH   8  15
ATOM     14  C   UNL     1      13.107   6.378  -6.180  0.00  0.00    +0.019 C 
ATOM     15  C   UNL     1      13.330   6.763  -4.716  0.00  0.00    +0.022 C 
ATOM     16  C   UNL     1      14.492   7.754  -4.621  0.00  0.00    +0.019 C 
ATOM     17  C   UNL     1      13.661   5.510  -3.903  0.00  0.00    +0.019 C 
ENDBRANCH   8  15
BRANCH  10  18
ATOM     18  C   UNL     1      11.145  10.648  -2.703  0.00  0.00    +0.434 C 
ATOM     19  F   UNL     1      12.425  11.159  -2.944  0.00  0.00    -0.164 F 
ATOM     20  F   UNL     1      10.195  11.441  -3.355  0.00  0.00    -0.164 F 
ATOM     21  F   UNL     1      10.893  10.655  -1.327  0.00  0.00    -0.164 F 
ENDBRANCH  10  18
ENDBRANCH   1  12
BRANCH   4  22
ATOM     22  C   UNL     1       5.723   3.571  -2.920  0.00  0.00    -0.079 C 
BRANCH  22  23
ATOM     23  C   UNL     1       5.303   3.295  -1.475  0.00  0.00    -0.017 C 
BRANCH  23  24
ATOM     24  C   UNL     1       4.003   2.488  -1.466  0.00  0.00    +0.020 C 
BRANCH  24  25
ATOM     25  C   UNL     1       3.584   2.212  -0.021  0.00  0.00    +0.125 C 
BRANCH  25  26
ATOM     26  N   UNL     1       2.339   1.440  -0.013  0.00  0.00    -0.315 N 
ATOM     27  C   UNL     1       1.147   2.089   0.002  0.00  0.00    +0.089 A 
ATOM     28  C   UNL     1      -0.017   1.398   0.010  0.00  0.00    +0.018 A 
ATOM     29  C   UNL     1       0.002  -0.004   0.002  0.00  0.00    +0.019 A 
ATOM     30  C   UNL     1       1.201  -0.655  -0.013  0.00  0.00    +0.119 A 
ATOM     31  C   UNL     1       2.390   0.095  -0.020  0.00  0.00    +0.263 A 
ATOM     32  O   UNL     1       3.470  -0.475  -0.034  0.00  0.00    -0.267 OA
BRANCH  30  33
ATOM     33  C   UNL     1       1.250  -2.161  -0.021  0.00  0.00    +0.422 C 
ATOM     34  F   UNL     1      -0.053  -2.670  -0.011  0.00  0.00    -0.166 F 
ATOM     35  F   UNL     1       1.913  -2.600  -1.172  0.00  0.00    -0.166 F 
ATOM     36  F   UNL     1       1.935  -2.611   1.112  0.00  0.00    -0.166 F 
ENDBRANCH  30  33
ENDBRANCH  25  26
ENDBRANCH  24  25
ENDBRANCH  23  24
ENDBRANCH  22  23
ENDBRANCH   4  22
TORSDOF 9
