REMARK  Name = ZINC31046744
REMARK  8 active torsions:
REMARK  status: ('A' for Active; 'I' for Inactive)
REMARK    1  A    between atoms: C_1  and  C_2
REMARK    2  A    between atoms: C_5  and  C_8
REMARK    3  A    between atoms: C_8  and  C_10
REMARK    4  A    between atoms: C_8  and  N_16
REMARK    5  A    between atoms: C_17  and  C_19
REMARK    6  A    between atoms: N_24  and  C_26
REMARK    7  A    between atoms: C_26  and  C_27
REMARK    8  A    between atoms: C_29  and  C_32
REMARK                            x       y       z     vdW  Elec       q    Type
REMARK                         _______ _______ _______ _____ _____    ______ ____
ROOT
ATOM      1  C   UNL     1       1.317  -0.740  -0.015  0.00  0.00    +0.058 C 
ATOM      2  C   UNL     1       2.126  -0.370   1.232  0.00  0.00    +0.009 C 
ATOM      3  C   UNL     1       3.433  -1.167   1.238  0.00  0.00    -0.018 C 
ATOM      4  C   UNL     1       3.113  -2.663   1.196  0.00  0.00    -0.078 C 
ATOM      5  N   UNL     1       2.340  -2.966  -0.015  0.00  0.00    +0.386 N 
ATOM      6  C   UNL     1       1.059  -2.248  -0.020  0.00  0.00    -0.065 C 
ATOM      7  H   UNL     1       2.923  -2.617  -0.881  0.00  0.00    -0.081 HD
ENDROOT
BRANCH   1   9
ATOM      8  N   UNL     1      -0.016   1.344   0.009  0.00  0.00    -0.304 N 
ATOM      9  C   UNL     1       0.002  -0.004   0.002  0.00  0.00    +0.215 C 
ATOM     10  O   UNL     1      -1.040  -0.625   0.009  0.00  0.00    -0.276 OA
ATOM     11  H   UNL     1       0.929   1.907   0.008  0.00  0.00    +0.150 HD
BRANCH   8  12
ATOM     12  C   UNL     1      -1.295   2.059   0.019  0.00  0.00    +0.134 C 
BRANCH  12  17
ATOM     13  C   UNL     1      -0.553   7.295   2.348  0.00  0.00    +0.044 C 
ATOM     14  C   UNL     1      -0.747   5.930   1.741  0.00  0.00    -0.050 A 
ATOM     15  C   UNL     1      -1.882   5.197   2.034  0.00  0.00    +0.004 A 
ATOM     16  C   UNL     1      -2.059   3.944   1.477  0.00  0.00    +0.006 A 
ATOM     17  C   UNL     1      -1.102   3.425   0.626  0.00  0.00    -0.023 A 
ATOM     18  C   UNL     1       0.035   4.155   0.337  0.00  0.00    +0.006 A 
ATOM     19  C   UNL     1       0.210   5.410   0.890  0.00  0.00    +0.004 A 
ENDBRANCH  12  17
BRANCH  12  20
ATOM     20  C   UNL     1      -1.800   2.204  -1.393  0.00  0.00    -0.023 A 
ATOM     21  C   UNL     1      -0.919   2.501  -2.415  0.00  0.00    +0.006 A 
ATOM     22  C   UNL     1      -1.382   2.629  -3.712  0.00  0.00    +0.000 A 
ATOM     23  C   UNL     1      -2.728   2.470  -3.984  0.00  0.00    +0.000 A 
ATOM     24  C   UNL     1      -3.610   2.178  -2.960  0.00  0.00    +0.000 A 
ATOM     25  C   UNL     1      -3.146   2.044  -1.665  0.00  0.00    +0.006 A 
ENDBRANCH  12  20
ENDBRANCH   8  12
ENDBRANCH   1   9
BRANCH   5  26
ATOM     26  C   UNL     1       2.134  -4.413  -0.160  0.00  0.00    +0.022 C 
BRANCH  26  27
ATOM     27  C   UNL     1       3.433  -5.133   0.094  0.00  0.00    +0.211 A 
ATOM     28  N   UNL     1       3.868  -5.569   1.250  0.00  0.00    -0.193 NA
ATOM     29  C   UNL     1       5.064  -6.146   0.995  0.00  0.00    +0.202 A 
ATOM     30  N   UNL     1       5.286  -6.021  -0.288  0.00  0.00    -0.056 NA
ATOM     31  O   UNL     1       4.361  -5.442  -0.817  0.00  0.00    -0.340 OA
BRANCH  29  32
ATOM     32  C   UNL     1       5.958  -6.795   1.985  0.00  0.00    +0.023 A 
ATOM     33  C   UNL     1       5.591  -6.850   3.328  0.00  0.00    +0.013 A 
ATOM     34  C   UNL     1       6.423  -7.461   4.244  0.00  0.00    +0.021 A 
ATOM     35  C   UNL     1       7.627  -8.006   3.832  0.00  0.00    +0.041 A 
ATOM     36  C   UNL     1       8.000  -7.948   2.500  0.00  0.00    +0.021 A 
ATOM     37  C   UNL     1       7.171  -7.346   1.576  0.00  0.00    +0.013 A 
ATOM     38 CL   UNL     1       8.674  -8.766   4.991  0.00  0.00    -0.084 Cl
ENDBRANCH  29  32
ENDBRANCH  26  27
ENDBRANCH   5  26
TORSDOF 7
