REMARK  Name = ZINC21902449
REMARK  11 active torsions:
REMARK  status: ('A' for Active; 'I' for Inactive)
REMARK    1  A    between atoms: C_1  and  C_2
REMARK    2  A    between atoms: C_5  and  C_9
REMARK    3  A    between atoms: C_7  and  C_8
REMARK    4  A    between atoms: C_9  and  C_11
REMARK    5  A    between atoms: C_9  and  N_12
REMARK    6  A    between atoms: C_13  and  C_15
REMARK    7  A    between atoms: C_15  and  S_16
REMARK    8  A    between atoms: S_16  and  C_17
REMARK    9  A    between atoms: C_20  and  C_29
REMARK   10  A    between atoms: N_21  and  C_22
REMARK   11  A    between atoms: C_22  and  C_23
REMARK                            x       y       z     vdW  Elec       q    Type
REMARK                         _______ _______ _______ _____ _____    ______ ____
ROOT
ATOM      1  C   UNL     1      -4.305   0.126  -0.226  0.00  0.00    +0.192 A 
ATOM      2  N   UNL     1      -4.653   1.375  -0.024  0.00  0.00    -0.122 NA
ATOM      3  N   UNL     1      -3.615   2.086   0.240  0.00  0.00    -0.128 NA
ATOM      4  C   UNL     1      -2.538   1.335   0.215  0.00  0.00    +0.167 A 
ATOM      5  N   UNL     1      -2.946   0.055  -0.081  0.00  0.00    -0.300 N 
ENDROOT
BRANCH   4   6
ATOM      6  C   UNL     1      -1.152   1.779   0.464  0.00  0.00    +0.044 A 
ATOM      7  C   UNL     1      -0.057   1.475  -0.279  0.00  0.00    +0.095 A 
ATOM      8  N   UNL     1       1.046   2.073   0.259  0.00  0.00    -0.360 N 
ATOM      9  H   UNL     1       2.030   1.941  -0.215  0.00  0.00    +0.165 HD
ATOM     10  C   UNL     1       0.698   2.787   1.385  0.00  0.00    +0.047 A 
ATOM     11  C   UNL     1      -0.687   2.635   1.569  0.00  0.00    +0.010 A 
ATOM     12  C   UNL     1      -1.321   3.256   2.643  0.00  0.00    +0.011 A 
ATOM     13  C   UNL     1      -0.584   4.017   3.523  0.00  0.00    +0.001 A 
ATOM     14  C   UNL     1       0.784   4.168   3.343  0.00  0.00    +0.002 A 
ATOM     15  C   UNL     1       1.424   3.561   2.285  0.00  0.00    +0.026 A 
ENDBRANCH   4   6
BRANCH   1  16
ATOM     16  S   UNL     1      -5.386  -1.210  -0.613  0.00  0.00    -0.077 S 
BRANCH  16  17
ATOM     17  C   UNL     1      -6.971  -0.338  -0.628  0.00  0.00    +0.173 C 
BRANCH  17  19
ATOM     18  N   UNL     1      -9.354  -0.882  -1.012  0.00  0.00    -0.308 N 
ATOM     19  C   UNL     1      -8.077  -1.311  -0.946  0.00  0.00    +0.224 C 
ATOM     20  O   UNL     1      -7.819  -2.479  -1.144  0.00  0.00    -0.275 OA
ATOM     21  H   UNL     1      -9.588   0.177  -0.833  0.00  0.00    +0.149 HD
BRANCH  18  22
ATOM     22  C   UNL     1     -10.429  -1.828  -1.322  0.00  0.00    +0.100 C 
ATOM     23  C   UNL     1     -10.555  -1.978  -2.839  0.00  0.00    +0.033 C 
BRANCH  22  28
ATOM     24  C   UNL     1     -15.411   0.143   0.841  0.00  0.00    +0.044 C 
ATOM     25  C   UNL     1     -14.112  -0.371   0.278  0.00  0.00    -0.048 A 
ATOM     26  C   UNL     1     -13.219   0.505  -0.312  0.00  0.00    +0.004 A 
ATOM     27  C   UNL     1     -12.026   0.034  -0.826  0.00  0.00    +0.006 A 
ATOM     28  C   UNL     1     -11.728  -1.314  -0.758  0.00  0.00    -0.027 A 
ATOM     29  C   UNL     1     -12.620  -2.190  -0.167  0.00  0.00    +0.009 A 
ATOM     30  C   UNL     1     -13.812  -1.718   0.350  0.00  0.00    -0.047 A 
ATOM     31  C   UNL     1     -14.784  -2.673   0.993  0.00  0.00    +0.044 C 
ENDBRANCH  22  28
ENDBRANCH  18  22
ENDBRANCH  17  19
ENDBRANCH  16  17
ENDBRANCH   1  16
BRANCH   5  32
ATOM     32  C   UNL     1      -2.102  -1.135  -0.214  0.00  0.00    +0.157 C 
BRANCH  32  33
ATOM     33  C   UNL     1      -1.863  -1.748   1.167  0.00  0.00    +0.138 C 
ATOM     34  C   UNL     1      -0.878  -2.931   1.052  0.00  0.00    +0.035 C 
ATOM     35  C   UNL     1      -1.480  -3.958   2.050  0.00  0.00    +0.031 C 
ATOM     36  C   UNL     1      -2.995  -3.678   1.885  0.00  0.00    +0.160 C 
ATOM     37  O   UNL     1      -3.095  -2.258   1.692  0.00  0.00    -0.375 OA
ENDBRANCH  32  33
ENDBRANCH   5  32
TORSDOF 8
