REMARK  Name = ZINC11443765
REMARK  9 active torsions:
REMARK  status: ('A' for Active; 'I' for Inactive)
REMARK    1  A    between atoms: C_1  and  C_2
REMARK    2  A    between atoms: C_2  and  C_4
REMARK    3  A    between atoms: C_2  and  O_18
REMARK    4  A    between atoms: N_6  and  C_7
REMARK    5  A    between atoms: C_9  and  N_15
REMARK    6  A    between atoms: C_12  and  O_13
REMARK    7  A    between atoms: O_13  and  C_14
REMARK    8  A    between atoms: O_18  and  C_19
REMARK    9  A    between atoms: C_19  and  C_21
REMARK                            x       y       z     vdW  Elec       q    Type
REMARK                         _______ _______ _______ _____ _____    ______ ____
ROOT
ATOM      1  C   UNL     1      -6.888  -0.544  -1.499  0.00  0.00    +0.062 C 
ATOM      2  C   UNL     1      -6.189  -0.918  -0.190  0.00  0.00    +0.259 C 
ENDROOT
BRANCH   2   3
ATOM      3  C   UNL     1      -4.893  -0.156  -0.078  0.00  0.00    +0.258 C 
ATOM      4  O   UNL     1      -3.837  -0.752  -0.087  0.00  0.00    -0.271 OA
ATOM      5  N   UNL     1      -4.908   1.187   0.032  0.00  0.00    -0.279 N 
ATOM      6  H   UNL     1      -5.752   1.657   0.120  0.00  0.00    +0.155 HD
BRANCH   5   7
ATOM      7  C   UNL     1      -3.705   1.904   0.019  0.00  0.00    +0.078 A 
ATOM      8  C   UNL     1      -2.583   1.369  -0.597  0.00  0.00    +0.059 A 
ATOM      9  C   UNL     1      -1.397   2.079  -0.608  0.00  0.00    +0.128 A 
ATOM     10  C   UNL     1      -1.324   3.320  -0.003  0.00  0.00    +0.036 A 
ATOM     11  C   UNL     1      -2.439   3.862   0.608  0.00  0.00    +0.050 A 
ATOM     12  C   UNL     1      -3.632   3.157   0.624  0.00  0.00    +0.141 A 
BRANCH   9  13
ATOM     13  N   UNL     1      -0.200   1.507  -1.265  0.00  0.00    +0.056 N 
ATOM     14  O   UNL     1      -0.261   0.411  -1.794  0.00  0.00    -0.126 OA
ATOM     15  O   UNL     1       0.844   2.133  -1.280  0.00  0.00    -0.126 OA
ENDBRANCH   9  13
BRANCH  12  16
ATOM     16  O   UNL     1      -4.728   3.686   1.230  0.00  0.00    -0.493 OA
ATOM     17  C   UNL     1      -4.580   4.974   1.830  0.00  0.00    +0.277 C 
ENDBRANCH  12  16
ENDBRANCH   5   7
ENDBRANCH   2   3
BRANCH   2  18
ATOM     18  O   UNL     1      -5.915  -2.344  -0.177  0.00  0.00    -0.448 OA
BRANCH  18  19
ATOM     19  C   UNL     1      -6.867  -3.145   0.342  0.00  0.00    +0.348 C 
ATOM     20  O   UNL     1      -7.899  -2.665   0.771  0.00  0.00    -0.244 OA
BRANCH  19  21
ATOM     21  C   UNL     1      -6.660  -4.596   0.387  0.00  0.00    +0.116 A 
ATOM     22  C   UNL     1      -7.493  -5.558   0.873  0.00  0.00    +0.070 A 
ATOM     23  C   UNL     1      -7.107  -6.910   0.821  0.00  0.00    +0.009 A 
ATOM     24  C   UNL     1      -7.830  -8.046   1.268  0.00  0.00    +0.013 A 
ATOM     25  C   UNL     1      -7.308  -9.293   1.149  0.00  0.00    +0.039 A 
ATOM     26  C   UNL     1      -6.051  -9.507   0.589  0.00  0.00    +0.124 A 
ATOM     27  C   UNL     1      -5.314  -8.427   0.141  0.00  0.00    +0.054 A 
ATOM     28  C   UNL     1      -5.833  -7.156   0.256  0.00  0.00    +0.024 A 
ATOM     29  S   UNL     1      -5.250  -5.535  -0.172  0.00  0.00    -0.080 S 
ATOM     30  F   UNL     1      -5.557 -10.760   0.484  0.00  0.00    -0.205 F 
ATOM     31 CL   UNL     1      -9.029  -5.117   1.550  0.00  0.00    -0.082 Cl
ENDBRANCH  19  21
ENDBRANCH  18  19
ENDBRANCH   2  18
TORSDOF 7
