REMARK  Name = ZINC23236240
REMARK  11 active torsions:
REMARK  status: ('A' for Active; 'I' for Inactive)
REMARK    1  A    between atoms: C_1  and  N_2
REMARK    2  A    between atoms: N_2  and  C_3
REMARK    3  A    between atoms: N_2  and  C_4
REMARK    4  A    between atoms: C_4  and  C_6
REMARK    5  A    between atoms: C_4  and  C_28
REMARK    6  A    between atoms: C_6  and  N_7
REMARK    7  A    between atoms: C_8  and  C_10
REMARK    8  A    between atoms: C_15  and  O_16
REMARK    9  A    between atoms: O_16  and  C_17
REMARK   10  A    between atoms: C_17  and  C_18
REMARK   11  A    between atoms: N_20  and  C_21
REMARK                            x       y       z     vdW  Elec       q    Type
REMARK                         _______ _______ _______ _____ _____    ______ ____
ROOT
ATOM      1  C   UNL     1      -1.044  -0.836  -1.405  0.00  0.00    +0.078 A 
ATOM      2  C   UNL     1      -2.311  -0.277  -1.218  0.00  0.00    +0.017 A 
ATOM      3  C   UNL     1      -3.437  -1.037  -1.446  0.00  0.00    +0.001 A 
ATOM      4  C   UNL     1      -3.320  -2.357  -1.850  0.00  0.00    +0.004 A 
ATOM      5  C   UNL     1      -2.074  -2.924  -2.034  0.00  0.00    +0.046 A 
ATOM      6  C   UNL     1      -0.929  -2.172  -1.814  0.00  0.00    +0.133 A 
ENDROOT
BRANCH   1   8
ATOM      7  N   UNL     1       0.052   1.257  -0.775  0.00  0.00    -0.312 N 
ATOM      8  C   UNL     1       0.167  -0.027  -1.167  0.00  0.00    +0.248 C 
ATOM      9  O   UNL     1       1.267  -0.518  -1.326  0.00  0.00    -0.270 OA
ATOM     10  H   UNL     1      -0.944   1.702  -0.631  0.00  0.00    +0.149 HD
BRANCH   7  11
ATOM     11  C   UNL     1       1.254   2.061  -0.539  0.00  0.00    +0.097 C 
BRANCH  11  12
ATOM     12  C   UNL     1       0.848   3.471  -0.105  0.00  0.00    +0.016 C 
BRANCH  12  13
ATOM     13  C   UNL     1       2.078   4.332   0.019  0.00  0.00    +0.093 A 
ATOM     14  C   UNL     1       2.717   4.632   1.164  0.00  0.00    +0.043 A 
ATOM     15  C   UNL     1       3.810   5.459   0.819  0.00  0.00    +0.041 A 
ATOM     16  C   UNL     1       3.774   5.617  -0.516  0.00  0.00    +0.195 A 
ATOM     17  O   UNL     1       2.726   4.927  -0.996  0.00  0.00    -0.469 OA
ENDBRANCH  12  13
BRANCH  12  19
ATOM     18  C   UNL     1      -0.440   5.420  -0.742  0.00  0.00    -0.096 C 
ATOM     19  N   UNL     1      -0.057   4.050  -1.108  0.00  0.00    +0.384 N 
ATOM     20  C   UNL     1       0.548   4.012  -2.446  0.00  0.00    -0.096 C 
ATOM     21  H   UNL     1      -0.970   3.438  -1.132  0.00  0.00    -0.082 HD
ENDBRANCH  12  19
ENDBRANCH  11  12
ENDBRANCH   7  11
ENDBRANCH   1   8
BRANCH   6  22
ATOM     22  O   UNL     1       0.295  -2.727  -1.993  0.00  0.00    -0.482 OA
BRANCH  22  23
ATOM     23  C   UNL     1       0.333  -4.093  -2.410  0.00  0.00    +0.324 C 
BRANCH  23  24
ATOM     24  C   UNL     1       1.767  -4.534  -2.556  0.00  0.00    +0.255 C 
ATOM     25  O   UNL     1       2.668  -3.755  -2.325  0.00  0.00    -0.272 OA
ATOM     26  N   UNL     1       2.049  -5.794  -2.942  0.00  0.00    -0.283 N 
ATOM     27  H   UNL     1       1.236  -6.523  -3.075  0.00  0.00    +0.155 HD
BRANCH  26  28
ATOM     28  C   UNL     1       3.375  -6.175  -3.175  0.00  0.00    +0.034 A 
ATOM     29  C   UNL     1       3.672  -7.084  -4.182  0.00  0.00    +0.024 A 
ATOM     30  C   UNL     1       4.982  -7.454  -4.413  0.00  0.00    +0.017 A 
ATOM     31  C   UNL     1       5.998  -6.928  -3.634  0.00  0.00    +0.018 A 
ATOM     32  C   UNL     1       5.705  -6.027  -2.626  0.00  0.00    +0.017 A 
ATOM     33  C   UNL     1       4.397  -5.649  -2.395  0.00  0.00    +0.024 A 
ATOM     34 BR   UNL     1       7.790  -7.442  -3.949  0.00  0.00    -0.050 Br
ENDBRANCH  26  28
ENDBRANCH  23  24
ENDBRANCH  22  23
ENDBRANCH   6  22
TORSDOF 9
