REMARK  Name = ZINC40921734
REMARK  6 active torsions:
REMARK  status: ('A' for Active; 'I' for Inactive)
REMARK    1  A    between atoms: C_1  and  C_2
REMARK    2  A    between atoms: C_2  and  C_32
REMARK    3  A    between atoms: C_6  and  C_14
REMARK    4  A    between atoms: C_17  and  O_20
REMARK    5  A    between atoms: O_20  and  C_21
REMARK    6  A    between atoms: C_21  and  C_22
REMARK                            x       y       z     vdW  Elec       q    Type
REMARK                         _______ _______ _______ _____ _____    ______ ____
ROOT
ATOM      1  C   UNL     1      -0.019   1.526   0.010  0.00  0.00    +0.011 C 
ATOM      2  C   UNL     1       0.002  -0.004   0.002  0.00  0.00    -0.023 C 
ATOM      3  C   UNL     1      -1.431  -0.539   0.041  0.00  0.00    +0.058 C 
ATOM      4  C   UNL     1      -1.407  -2.050   0.072  0.00  0.00    +0.020 C 
ATOM      5  C   UNL     1      -0.397  -2.714   0.672  0.00  0.00    +0.041 C 
ATOM      6  C   UNL     1      -0.353  -4.226   0.736  0.00  0.00    +0.177 C 
ATOM      7  N   UNL     1      -1.321  -4.790  -0.193  0.00  0.00    -0.201 N 
ATOM      8  C   UNL     1      -2.307  -4.063  -0.782  0.00  0.00    +0.240 A 
ATOM      9  N   UNL     1      -2.986  -4.876  -1.539  0.00  0.00    -0.092 NA
ATOM     10  N   UNL     1      -2.495  -6.066  -1.471  0.00  0.00    -0.021 NA
ATOM     11  N   UNL     1      -1.478  -6.089  -0.671  0.00  0.00    -0.042 NA
ATOM     12  N   UNL     1      -2.448  -2.708  -0.538  0.00  0.00    -0.286 N 
ATOM     13  C   UNL     1       0.672  -2.019   1.267  0.00  0.00    +0.164 C 
ATOM     14  O   UNL     1       1.558  -2.646   1.813  0.00  0.00    -0.292 OA
ATOM     15  C   UNL     1       0.742  -0.517   1.242  0.00  0.00    +0.086 C 
ATOM     16  C   UNL     1       0.705  -0.503  -1.262  0.00  0.00    +0.011 C 
ATOM     17  H   UNL     1      -3.257  -2.237  -0.791  0.00  0.00    +0.155 HD
ENDROOT
BRANCH   6  18
ATOM     18  C   UNL     1      -0.682  -4.678   2.135  0.00  0.00    -0.018 A 
ATOM     19  C   UNL     1      -1.906  -4.359   2.694  0.00  0.00    +0.009 A 
ATOM     20  C   UNL     1      -2.209  -4.771   3.977  0.00  0.00    +0.046 A 
ATOM     21  C   UNL     1      -1.286  -5.508   4.704  0.00  0.00    +0.121 A 
ATOM     22  C   UNL     1      -0.059  -5.827   4.141  0.00  0.00    +0.046 A 
ATOM     23  C   UNL     1       0.238  -5.416   2.856  0.00  0.00    +0.009 A 
BRANCH  21  24
ATOM     24  O   UNL     1      -1.582  -5.915   5.966  0.00  0.00    -0.487 OA
BRANCH  24  25
ATOM     25  C   UNL     1      -0.583  -6.669   6.656  0.00  0.00    +0.264 C 
BRANCH  25  26
ATOM     26  C   UNL     1      -1.086  -7.029   8.030  0.00  0.00    -0.010 A 
ATOM     27  C   UNL     1      -0.857  -6.178   9.095  0.00  0.00    +0.008 A 
ATOM     28  C   UNL     1      -1.318  -6.508  10.356  0.00  0.00    +0.015 A 
ATOM     29  C   UNL     1      -2.009  -7.691  10.552  0.00  0.00    +0.018 A 
ATOM     30  C   UNL     1      -2.238  -8.542   9.486  0.00  0.00    +0.015 A 
ATOM     31  C   UNL     1      -1.781  -8.209   8.224  0.00  0.00    +0.008 A 
ATOM     32 BR   UNL     1      -2.639  -8.143  12.276  0.00  0.00    -0.050 Br
ENDBRANCH  25  26
ENDBRANCH  24  25
ENDBRANCH  21  24
ENDBRANCH   6  18
TORSDOF 4
