REMARK  Name = ZINC02998847
REMARK  6 active torsions:
REMARK  status: ('A' for Active; 'I' for Inactive)
REMARK    1  A    between atoms: C_4  and  C_7
REMARK    2  A    between atoms: C_7  and  S_8
REMARK    3  A    between atoms: S_8  and  C_9
REMARK    4  A    between atoms: C_14  and  N_18
REMARK    5  A    between atoms: C_19  and  C_21
REMARK    6  A    between atoms: C_24  and  N_27
REMARK                            x       y       z     vdW  Elec       q    Type
REMARK                         _______ _______ _______ _____ _____    ______ ____
ROOT
ATOM      1  C   UNL     1       5.643  -2.021  -1.481  0.00  0.00    +0.136 A 
ATOM      2  N   UNL     1       6.296  -2.195  -0.354  0.00  0.00    -0.233 NA
ATOM      3  C   UNL     1       7.486  -2.833  -0.296  0.00  0.00    +0.080 A 
ATOM      4  C   UNL     1       8.285  -3.085   0.843  0.00  0.00    +0.031 A 
ATOM      5  C   UNL     1       9.469  -3.747   0.735  0.00  0.00    +0.025 A 
ATOM      6  C   UNL     1       9.941  -4.200  -0.495  0.00  0.00    +0.035 A 
ATOM      7  C   UNL     1       9.184  -3.970  -1.637  0.00  0.00    +0.040 A 
ATOM      8  C   UNL     1       7.989  -3.304  -1.530  0.00  0.00    +0.042 A 
ATOM      9  S   UNL     1       6.722  -2.805  -2.671  0.00  0.00    -0.061 S 
ENDROOT
BRANCH   6  10
ATOM     10  N   UNL     1      11.163  -4.878  -0.579  0.00  0.00    -0.281 N 
ATOM     11  C   UNL     1      11.934  -4.744  -1.677  0.00  0.00    +0.248 C 
ATOM     12  O   UNL     1      11.616  -3.962  -2.551  0.00  0.00    -0.270 OA
ATOM     13  H   UNL     1      11.494  -5.520   0.251  0.00  0.00    +0.155 HD
BRANCH  11  14
ATOM     14  C   UNL     1      13.166  -5.549  -1.817  0.00  0.00    +0.037 A 
ATOM     15  C   UNL     1      13.537  -6.444  -0.812  0.00  0.00    +0.015 A 
ATOM     16  C   UNL     1      14.685  -7.196  -0.952  0.00  0.00    +0.033 A 
ATOM     17  C   UNL     1      15.474  -7.056  -2.080  0.00  0.00    +0.126 A 
ATOM     18  C   UNL     1      15.115  -6.167  -3.077  0.00  0.00    +0.033 A 
ATOM     19  C   UNL     1      13.966  -5.413  -2.952  0.00  0.00    +0.015 A 
BRANCH  17  20
ATOM     20  N   UNL     1      16.708  -7.862  -2.220  0.00  0.00    +0.056 N 
ATOM     21  O   UNL     1      17.405  -7.741  -3.212  0.00  0.00    -0.126 OA
ATOM     22  O   UNL     1      17.027  -8.645  -1.344  0.00  0.00    -0.126 OA
ENDBRANCH  17  20
ENDBRANCH  11  14
ENDBRANCH   6  10
BRANCH   1  23
ATOM     23  S   UNL     1       4.096  -1.223  -1.750  0.00  0.00    -0.094 S 
BRANCH  23  24
ATOM     24  C   UNL     1       3.695  -0.734  -0.054  0.00  0.00    +0.111 C 
BRANCH  24  28
ATOM     25  C   UNL     1      -0.055   1.311  -0.011  0.00  0.00    +0.000 A 
ATOM     26  C   UNL     1       1.118   2.022  -0.184  0.00  0.00    +0.000 A 
ATOM     27  C   UNL     1       2.331   1.360  -0.198  0.00  0.00    +0.004 A 
ATOM     28  C   UNL     1       2.372  -0.013  -0.038  0.00  0.00    -0.037 A 
ATOM     29  C   UNL     1       1.199  -0.723   0.135  0.00  0.00    +0.004 A 
ATOM     30  C   UNL     1      -0.014  -0.062   0.149  0.00  0.00    +0.000 A 
ENDBRANCH  24  28
ENDBRANCH  23  24
ENDBRANCH   1  23
TORSDOF 6
