REMARK  Name = ZINC33604698
REMARK  12 active torsions:
REMARK  status: ('A' for Active; 'I' for Inactive)
REMARK    1  A    between atoms: C_1  and  C_2
REMARK    2  A    between atoms: C_2  and  C_3
REMARK    3  A    between atoms: C_7  and  C_41
REMARK    4  A    between atoms: C_8  and  N_9
REMARK    5  A    between atoms: C_14  and  C_32
REMARK    6  A    between atoms: C_17  and  C_22
REMARK    7  A    between atoms: C_17  and  C_29
REMARK    8  A    between atoms: C_22  and  C_23
REMARK    9  A    between atoms: C_35  and  N_38
REMARK   10  A    between atoms: N_38  and  C_39
REMARK   11  A    between atoms: N_38  and  C_40
REMARK   12  A    between atoms: C_41  and  C_42
REMARK                            x       y       z     vdW  Elec       q    Type
REMARK                         _______ _______ _______ _____ _____    ______ ____
ROOT
ATOM      1  N   UNL     1      -2.858   1.347   1.193  0.00  0.00    -0.209 N 
ATOM      2  C   UNL     1      -2.083   1.824   0.185  0.00  0.00    +0.229 C 
ATOM      3  O   UNL     1      -2.455   2.438  -0.792  0.00  0.00    -0.275 OA
ATOM      4  C   UNL     1      -0.735   1.437   0.520  0.00  0.00    +0.077 C 
ATOM      5  C   UNL     1       0.659   1.743   0.176  0.00  0.00    -0.027 C 
ATOM      6  N   UNL     1       1.456   1.192   1.321  0.00  0.00    +0.395 N 
ATOM      7  C   UNL     1       0.485   0.686   2.345  0.00  0.00    +0.048 C 
ATOM      8  C   UNL     1      -0.758   1.548   2.095  0.00  0.00    +0.086 C 
ATOM      9  C   UNL     1      -2.126   0.946   2.274  0.00  0.00    +0.229 C 
ATOM     10  O   UNL     1      -2.502   0.248   3.191  0.00  0.00    -0.275 OA
ATOM     11  H   UNL     1       2.097   0.374   0.962  0.00  0.00    -0.083 HD
ATOM     12  H   UNL     1       2.083   1.989   1.748  0.00  0.00    -0.083 HD
ENDROOT
BRANCH   1  18
ATOM     13  C   UNL     1      -4.878   0.139   0.640  0.00  0.00    -0.026 A 
ATOM     14  C   UNL     1      -6.256   0.071   0.590  0.00  0.00    +0.005 A 
ATOM     15  C   UNL     1      -7.019   1.142   1.021  0.00  0.00    +0.001 A 
ATOM     16  C   UNL     1      -6.404   2.280   1.509  0.00  0.00    +0.005 A 
ATOM     17  C   UNL     1      -5.025   2.351   1.567  0.00  0.00    -0.026 A 
ATOM     18  C   UNL     1      -4.258   1.278   1.135  0.00  0.00    +0.050 A 
BRANCH  13  20
ATOM     19  C   UNL     1      -3.689  -1.916   1.355  0.00  0.00    +0.009 C 
ATOM     20  C   UNL     1      -4.048  -1.025   0.164  0.00  0.00    +0.033 C 
ENDBRANCH  13  20
BRANCH  17  21
ATOM     21  C   UNL     1      -4.356   3.592   2.100  0.00  0.00    +0.033 C 
ATOM     22  C   UNL     1      -3.989   4.513   0.935  0.00  0.00    +0.009 C 
ENDBRANCH  17  21
ENDBRANCH   1  18
BRANCH   5  23
ATOM     23  C   UNL     1       0.858   3.232   0.060  0.00  0.00    -0.060 A 
ATOM     24  C   UNL     1       1.014   3.998   1.202  0.00  0.00    +0.004 A 
ATOM     25  C   UNL     1       1.202   5.362   1.099  0.00  0.00    +0.023 A 
ATOM     26  C   UNL     1       1.222   5.967  -0.151  0.00  0.00    +0.029 A 
ATOM     27  C   UNL     1       1.059   5.196  -1.295  0.00  0.00    +0.023 A 
ATOM     28  C   UNL     1       0.877   3.831  -1.186  0.00  0.00    +0.004 A 
BRANCH  26  29
ATOM     29  N   UNL     1       1.407   7.347  -0.258  0.00  0.00    -0.336 N 
ATOM     30  C   UNL     1       1.554   7.967  -1.577  0.00  0.00    +0.129 C 
ATOM     31  C   UNL     1       1.454   8.176   0.950  0.00  0.00    +0.129 C 
ENDBRANCH  26  29
ENDBRANCH   5  23
BRANCH   7  32
ATOM     32  C   UNL     1       1.016   0.907   3.738  0.00  0.00    +0.346 C 
ATOM     33  O   UNL     1       0.260   1.202   4.632  0.00  0.00    -0.248 OA
ATOM     34  O   UNL     1       2.329   0.775   3.984  0.00  0.00    -0.248 OA
ENDBRANCH   7  32
BRANCH   7  35
ATOM     35  C   UNL     1       0.178  -0.795   2.113  0.00  0.00    +0.003 C 
BRANCH  35  36
ATOM     36  C   UNL     1       1.442  -1.622   2.355  0.00  0.00    -0.012 C 
ATOM     37  C   UNL     1       2.478  -1.297   1.276  0.00  0.00    +0.003 C 
ATOM     38  C   UNL     1       3.742  -2.124   1.518  0.00  0.00    +0.000 C 
ATOM     39  C   UNL     1       3.396  -3.613   1.460  0.00  0.00    +0.000 C 
ATOM     40  C   UNL     1       2.361  -3.938   2.538  0.00  0.00    +0.000 C 
ATOM     41  C   UNL     1       1.096  -3.111   2.297  0.00  0.00    +0.003 C 
ENDBRANCH  35  36
ENDBRANCH   7  35
TORSDOF 8
