REMARK  Name = ZINC39198482
REMARK  7 active torsions:
REMARK  status: ('A' for Active; 'I' for Inactive)
REMARK    1  A    between atoms: C_8  and  C_29
REMARK    2  A    between atoms: C_9  and  C_10
REMARK    3  A    between atoms: C_10  and  N_11
REMARK    4  A    between atoms: C_14  and  C_17
REMARK    5  A    between atoms: N_19  and  C_20
REMARK    6  A    between atoms: C_20  and  C_21
REMARK    7  A    between atoms: C_21  and  C_22
REMARK                            x       y       z     vdW  Elec       q    Type
REMARK                         _______ _______ _______ _____ _____    ______ ____
ROOT
ATOM      1  N   UNL     1       5.322  -0.554   1.548  0.00  0.00    +0.383 N 
ATOM      2  C   UNL     1       5.200  -1.929   2.046  0.00  0.00    -0.078 C 
ATOM      3  C   UNL     1       5.562  -1.971   3.532  0.00  0.00    -0.006 C 
ATOM      4  C   UNL     1       7.004  -1.487   3.714  0.00  0.00    +0.071 C 
ATOM      5  C   UNL     1       7.138  -0.080   3.124  0.00  0.00    -0.006 C 
ATOM      6  C   UNL     1       6.717  -0.108   1.653  0.00  0.00    -0.078 C 
ATOM      7  H   UNL     1       4.734   0.055   2.097  0.00  0.00    -0.081 HD
ENDROOT
BRANCH   4   8
ATOM      8  C   UNL     1       7.342  -1.452   5.183  0.00  0.00    +0.216 C 
ATOM      9  O   UNL     1       6.512  -1.781   6.004  0.00  0.00    -0.276 OA
ATOM     10  N   UNL     1       8.566  -1.054   5.583  0.00  0.00    -0.315 N 
ATOM     11  H   UNL     1       9.229  -0.791   4.926  0.00  0.00    +0.149 HD
BRANCH  10  12
ATOM     12  C   UNL     1       8.894  -1.020   7.010  0.00  0.00    +0.109 C 
BRANCH  12  13
ATOM     13  C   UNL     1      10.335  -0.536   7.191  0.00  0.00    +0.054 C 
BRANCH  13  14
ATOM     14  C   UNL     1      10.672  -0.501   8.659  0.00  0.00    -0.043 A 
ATOM     15  C   UNL     1      10.434   0.645   9.396  0.00  0.00    +0.004 A 
ATOM     16  C   UNL     1      10.744   0.678  10.742  0.00  0.00    +0.003 A 
ATOM     17  C   UNL     1      11.292  -0.433  11.354  0.00  0.00    +0.038 A 
ATOM     18  C   UNL     1      11.531  -1.581  10.617  0.00  0.00    +0.124 A 
ATOM     19  C   UNL     1      11.215  -1.615   9.270  0.00  0.00    +0.042 A 
ATOM     20  F   UNL     1      12.068  -2.667  11.214  0.00  0.00    -0.205 F 
ENDBRANCH  13  14
ENDBRANCH  12  13
ENDBRANCH  10  12
ENDBRANCH   4   8
BRANCH   1  21
ATOM     21  C   UNL     1       4.899  -0.504   0.142  0.00  0.00    -0.022 C 
BRANCH  21  30
ATOM     22  C   UNL     1      -0.055   1.257   0.515  0.00  0.00    +0.005 A 
ATOM     23  C   UNL     1       1.144   1.966   0.697  0.00  0.00    +0.018 A 
ATOM     24  C   UNL     1       2.332   1.341   0.559  0.00  0.00    +0.093 A 
ATOM     25  N   UNL     1       2.387   0.015   0.242  0.00  0.00    -0.305 N 
ATOM     26  C   UNL     1       1.234  -0.704   0.059  0.00  0.00    +0.138 A 
ATOM     27  C   UNL     1      -0.015  -0.065   0.199  0.00  0.00    +0.047 A 
ATOM     28  N   UNL     1       1.564  -1.952  -0.237  0.00  0.00    -0.228 NA
ATOM     29  C   UNL     1       2.902  -2.062  -0.251  0.00  0.00    +0.091 A 
ATOM     30  C   UNL     1       3.434  -0.843   0.047  0.00  0.00    +0.035 A 
BRANCH  29  31
ATOM     31  C   UNL     1       3.671  -3.298  -0.539  0.00  0.00    +0.002 A 
ATOM     32  C   UNL     1       3.269  -4.514   0.008  0.00  0.00    +0.011 A 
ATOM     33  C   UNL     1       3.987  -5.661  -0.263  0.00  0.00    +0.020 A 
ATOM     34  C   UNL     1       5.105  -5.604  -1.078  0.00  0.00    +0.041 A 
ATOM     35  C   UNL     1       5.508  -4.398  -1.624  0.00  0.00    +0.020 A 
ATOM     36  C   UNL     1       4.793  -3.247  -1.364  0.00  0.00    +0.011 A 
ATOM     37 CL   UNL     1       6.004  -7.050  -1.415  0.00  0.00    -0.084 Cl
ENDBRANCH  29  31
ENDBRANCH  21  30
ENDBRANCH   1  21
TORSDOF 7
