REMARK  Name = ZINC66451030
REMARK  10 active torsions:
REMARK  status: ('A' for Active; 'I' for Inactive)
REMARK    1  A    between atoms: C_1  and  C_2
REMARK    2  A    between atoms: C_2  and  C_3
REMARK    3  A    between atoms: C_3  and  C_5
REMARK    4  A    between atoms: C_3  and  N_6
REMARK    5  A    between atoms: N_6  and  S_7
REMARK    6  A    between atoms: S_7  and  C_10
REMARK    7  A    between atoms: C_13  and  C_16
REMARK    8  A    between atoms: N_18  and  C_19
REMARK    9  A    between atoms: N_24  and  C_26
REMARK   10  A    between atoms: C_26  and  C_27
REMARK                            x       y       z     vdW  Elec       q    Type
REMARK                         _______ _______ _______ _____ _____    ______ ____
ROOT
ATOM      1  C   UNL     1       0.286   5.297  -4.721  0.00  0.00    +0.244 C 
ATOM      2  O   UNL     1      -0.653   5.209  -5.487  0.00  0.00    -0.270 OA
ATOM      3  N   UNL     1       0.739   6.510  -4.347  0.00  0.00    -0.310 N 
ATOM      4  H   UNL     1       1.489   6.580  -3.736  0.00  0.00    +0.149 HD
ENDROOT
BRANCH   3   5
ATOM      5  C   UNL     1       0.099   7.722  -4.864  0.00  0.00    +0.057 C 
ATOM      6  C   UNL     1       0.704   8.081  -6.224  0.00  0.00    +0.018 C 
ATOM      7  C   UNL     1       0.084   9.391  -6.718  0.00  0.00    -0.017 C 
ATOM      8  C   UNL     1       0.316  10.485  -5.673  0.00  0.00    -0.078 C 
ATOM      9  N   UNL     1      -0.309  10.094  -4.404  0.00  0.00    +0.387 N 
ATOM     10  C   UNL     1       0.329   8.877  -3.887  0.00  0.00    -0.056 C 
ATOM     11  H   UNL     1      -1.291   9.919  -4.553  0.00  0.00    -0.081 HD
BRANCH   9  12
ATOM     12  C   UNL     1      -0.151  11.180  -3.427  0.00  0.00    +0.018 C 
BRANCH  12  13
ATOM     13  C   UNL     1      -0.917  12.391  -3.894  0.00  0.00    +0.194 C 
ATOM     14  O   UNL     1      -1.534  12.353  -4.938  0.00  0.00    -0.278 OA
ATOM     15  N   UNL     1      -0.917  13.516  -3.152  0.00  0.00    -0.331 N 
ATOM     16  H   UNL     1      -0.423  13.547  -2.318  0.00  0.00    +0.145 HD
ATOM     17  H   UNL     1      -1.411  14.295  -3.453  0.00  0.00    +0.145 HD
ENDBRANCH  12  13
ENDBRANCH   9  12
ENDBRANCH   3   5
BRANCH   1  21
ATOM     18  C   UNL     1       2.144   1.782  -3.225  0.00  0.00    +0.105 A 
ATOM     19  C   UNL     1       1.074   1.678  -4.096  0.00  0.00    +0.029 A 
ATOM     20  C   UNL     1       0.466   2.816  -4.586  0.00  0.00    +0.015 A 
ATOM     21  C   UNL     1       0.933   4.073  -4.200  0.00  0.00    +0.037 A 
ATOM     22  C   UNL     1       2.012   4.171  -3.321  0.00  0.00    +0.015 A 
ATOM     23  C   UNL     1       2.607   3.026  -2.834  0.00  0.00    +0.029 A 
BRANCH  18  24
ATOM     24  S   UNL     1       2.914   0.324  -2.605  0.00  0.00    +0.059 S 
ATOM     25  O   UNL     1       4.235   0.691  -2.230  0.00  0.00    -0.153 OA
ATOM     26  O   UNL     1       2.648  -0.708  -3.545  0.00  0.00    -0.153 OA
BRANCH  24  27
ATOM     27  N   UNL     1       2.125  -0.091  -1.209  0.00  0.00    -0.187 NA
ATOM     28  H   UNL     1       2.594  -0.065  -0.361  0.00  0.00    +0.148 HD
BRANCH  27  29
ATOM     29  C   UNL     1       0.718  -0.497  -1.257  0.00  0.00    +0.073 C 
ATOM     30  C   UNL     1       0.630  -2.023  -1.329  0.00  0.00    +0.025 C 
BRANCH  29  32
ATOM     31  C   UNL     1      -0.019   1.526   0.010  0.00  0.00    +0.005 C 
ATOM     32  C   UNL     1       0.002  -0.004   0.002  0.00  0.00    +0.017 C 
ENDBRANCH  29  32
ENDBRANCH  27  29
ENDBRANCH  24  27
ENDBRANCH  18  24
ENDBRANCH   1  21
TORSDOF 8
