REMARK  Name = ZINC21899780
REMARK  11 active torsions:
REMARK  status: ('A' for Active; 'I' for Inactive)
REMARK    1  A    between atoms: C_1  and  C_2
REMARK    2  A    between atoms: C_2  and  N_3
REMARK    3  A    between atoms: N_3  and  C_4
REMARK    4  A    between atoms: N_3  and  S_6
REMARK    5  A    between atoms: C_4  and  C_5
REMARK    6  A    between atoms: S_6  and  C_9
REMARK    7  A    between atoms: C_16  and  C_19
REMARK    8  A    between atoms: N_17  and  C_18
REMARK    9  A    between atoms: C_19  and  C_20
REMARK   10  A    between atoms: C_20  and  C_21
REMARK   11  A    between atoms: N_29  and  C_30
REMARK                            x       y       z     vdW  Elec       q    Type
REMARK                         _______ _______ _______ _____ _____    ______ ____
ROOT
ATOM      1  C   UNL     1       2.682   0.392   6.077  0.00  0.00    +0.108 A 
ATOM      2  C   UNL     1       1.920  -0.767   6.134  0.00  0.00    +0.030 A 
ATOM      3  C   UNL     1       0.933  -1.000   5.201  0.00  0.00    +0.030 A 
ATOM      4  C   UNL     1       0.700  -0.070   4.197  0.00  0.00    +0.069 A 
ATOM      5  C   UNL     1       1.471   1.104   4.140  0.00  0.00    +0.091 A 
ATOM      6  C   UNL     1       2.467   1.319   5.097  0.00  0.00    +0.058 A 
ATOM      7  N   UNL     1       1.029   1.816   3.072  0.00  0.00    -0.232 NA
ATOM      8  C   UNL     1       0.061   1.172   2.487  0.00  0.00    +0.111 A 
ATOM      9  N   UNL     1      -0.186   0.005   3.142  0.00  0.00    -0.331 N 
ATOM     10  C   UNL     1      -1.204  -0.989   2.790  0.00  0.00    +0.150 C 
ENDROOT
BRANCH   1  11
ATOM     11  S   UNL     1       3.938   0.671   7.280  0.00  0.00    +0.061 S 
ATOM     12  O   UNL     1       4.313  -0.606   7.779  0.00  0.00    -0.153 OA
ATOM     13  O   UNL     1       4.874   1.563   6.691  0.00  0.00    -0.153 OA
BRANCH  11  14
ATOM     14  N   UNL     1       3.237   1.484   8.541  0.00  0.00    -0.177 NA
BRANCH  14  16
ATOM     15  C   UNL     1       3.663   0.606  10.784  0.00  0.00    +0.022 C 
ATOM     16  C   UNL     1       2.641   0.739   9.652  0.00  0.00    +0.106 C 
ENDBRANCH  14  16
BRANCH  14  17
ATOM     17  C   UNL     1       3.213   2.949   8.545  0.00  0.00    +0.106 C 
ATOM     18  C   UNL     1       1.883   3.438   7.968  0.00  0.00    +0.022 C 
ENDBRANCH  14  17
ENDBRANCH  11  14
ENDBRANCH   1  11
BRANCH   8  19
ATOM     19  C   UNL     1      -0.681   1.651   1.266  0.00  0.00    +0.084 C 
BRANCH  19  20
ATOM     20  C   UNL     1       0.025   1.142   0.008  0.00  0.00    +0.107 C 
BRANCH  20  21
ATOM     21  C   UNL     1      -0.717   1.621  -1.213  0.00  0.00    +0.233 C 
ATOM     22  O   UNL     1      -1.712   2.302  -1.089  0.00  0.00    -0.272 OA
ATOM     23  N   UNL     1      -0.275   1.293  -2.443  0.00  0.00    -0.274 N 
ATOM     24  C   UNL     1       0.854   0.527  -2.582  0.00  0.00    +0.096 A 
ATOM     25  C   UNL     1       1.306   0.185  -3.804  0.00  0.00    +0.018 A 
ATOM     26  C   UNL     1       0.634   0.619  -4.962  0.00  0.00    +0.005 A 
ATOM     27  C   UNL     1      -0.483   1.382  -4.849  0.00  0.00    +0.044 A 
ATOM     28  C   UNL     1      -0.956   1.733  -3.561  0.00  0.00    +0.114 A 
ATOM     29  N   UNL     1      -2.035   2.471  -3.431  0.00  0.00    -0.368 N 
ATOM     30  H   UNL     1      -2.457   2.658  -2.432  0.00  0.00    +0.161 HD
BRANCH  29  31
ATOM     31  C   UNL     1      -2.678   3.045  -4.616  0.00  0.00    +0.081 C 
ATOM     32  C   UNL     1      -2.578   4.570  -4.561  0.00  0.00    +0.024 C 
ATOM     33  C   UNL     1      -3.249   5.170  -5.799  0.00  0.00    +0.002 C 
ATOM     34  C   UNL     1      -4.721   4.756  -5.832  0.00  0.00    +0.000 C 
ATOM     35  C   UNL     1      -4.821   3.230  -5.886  0.00  0.00    +0.002 C 
ATOM     36  C   UNL     1      -4.150   2.631  -4.649  0.00  0.00    +0.024 C 
ENDBRANCH  29  31
ENDBRANCH  20  21
ENDBRANCH  19  20
ENDBRANCH   8  19
TORSDOF 8
