REMARK  Name = ZINC62052264
REMARK  5 active torsions:
REMARK  status: ('A' for Active; 'I' for Inactive)
REMARK    1  A    between atoms: C_1  and  C_2
REMARK    2  A    between atoms: C_2  and  C_4
REMARK    3  A    between atoms: C_2  and  N_12
REMARK    4  A    between atoms: C_4  and  C_5
REMARK    5  A    between atoms: C_14  and  N_20
REMARK                            x       y       z     vdW  Elec       q    Type
REMARK                         _______ _______ _______ _____ _____    ______ ____
ROOT
ATOM      1  N   UNL     1       0.711  -0.489   1.189  0.00  0.00    -0.325 N 
ATOM      2  C   UNL     1       0.029  -0.638   2.395  0.00  0.00    +0.140 A 
ATOM      3  C   UNL     1       0.712  -1.096   3.525  0.00  0.00    +0.066 A 
ATOM      4  C   UNL     1       0.017  -1.239   4.718  0.00  0.00    +0.043 A 
ATOM      5  C   UNL     1      -1.335  -0.919   4.740  0.00  0.00    +0.038 A 
ATOM      6  C   UNL     1      -1.943  -0.472   3.583  0.00  0.00    +0.128 A 
ATOM      7  N   UNL     1      -1.257  -0.340   2.462  0.00  0.00    -0.238 NA
ATOM      8 BR   UNL     1      -2.332  -1.094   6.337  0.00  0.00    -0.049 Br
ATOM      9  H   UNL     1       1.654  -0.707   1.135  0.00  0.00    +0.148 HD
ENDROOT
BRANCH   3  10
ATOM     10  N   UNL     1       2.075  -1.407   3.454  0.00  0.00    -0.355 N 
ATOM     11  H   UNL     1       2.553  -1.305   2.617  0.00  0.00    +0.142 HD
ATOM     12  H   UNL     1       2.542  -1.724   4.243  0.00  0.00    +0.142 HD
ENDBRANCH   3  10
BRANCH   1  14
ATOM     13  C   UNL     1      -0.019   1.526   0.010  0.00  0.00    +0.028 C 
ATOM     14  C   UNL     1       0.002  -0.004   0.002  0.00  0.00    +0.073 C 
BRANCH  14  15
ATOM     15  C   UNL     1       0.718  -0.497  -1.257  0.00  0.00    +0.057 C 
BRANCH  15  16
ATOM     16  C   UNL     1       0.632  -2.000  -1.327  0.00  0.00    -0.045 A 
ATOM     17  C   UNL     1       1.612  -2.777  -0.739  0.00  0.00    +0.006 A 
ATOM     18  C   UNL     1       1.533  -4.155  -0.802  0.00  0.00    +0.038 A 
ATOM     19  C   UNL     1       0.472  -4.758  -1.456  0.00  0.00    +0.123 A 
ATOM     20  C   UNL     1      -0.509  -3.979  -2.046  0.00  0.00    +0.038 A 
ATOM     21  C   UNL     1      -0.431  -2.601  -1.976  0.00  0.00    +0.006 A 
ATOM     22  F   UNL     1       0.395  -6.106  -1.520  0.00  0.00    -0.205 F 
ENDBRANCH  15  16
ENDBRANCH  14  15
ENDBRANCH   1  14
TORSDOF 4
