REMARK  Name = ZINC20681185
REMARK  5 active torsions:
REMARK  status: ('A' for Active; 'I' for Inactive)
REMARK    1  A    between atoms: C_1  and  C_2
REMARK    2  A    between atoms: C_2  and  C_3
REMARK    3  A    between atoms: C_3  and  C_4
REMARK    4  A    between atoms: N_6  and  C_7
REMARK    5  A    between atoms: C_20  and  C_23
REMARK                            x       y       z     vdW  Elec       q    Type
REMARK                         _______ _______ _______ _____ _____    ______ ____
ROOT
ATOM      1  C   UNL     1      -0.978   1.635  -3.606  0.00  0.00    +0.039 A 
ATOM      2  C   UNL     1      -2.119   2.420  -3.515  0.00  0.00    +0.025 A 
ATOM      3  C   UNL     1      -2.789   2.784  -4.668  0.00  0.00    +0.023 A 
ATOM      4  C   UNL     1      -2.340   2.355  -5.898  0.00  0.00    +0.062 A 
ATOM      5  C   UNL     1      -1.202   1.552  -6.008  0.00  0.00    +0.052 A 
ATOM      6  C   UNL     1      -0.520   1.204  -4.840  0.00  0.00    +0.003 A 
ATOM      7  C   UNL     1       0.701   0.380  -4.973  0.00  0.00    +0.050 C 
ATOM      8  C   UNL     1       1.149  -0.566  -3.922  0.00  0.00    -0.023 C 
ATOM      9  C   UNL     1       1.766  -1.586  -4.508  0.00  0.00    -0.030 C 
ATOM     10  C   UNL     1       1.742  -1.407  -6.028  0.00  0.00    +0.033 C 
ATOM     11  C   UNL     1       0.479  -0.561  -6.198  0.00  0.00    +0.029 C 
ATOM     12  C   UNL     1       0.426   0.371  -7.390  0.00  0.00    +0.105 C 
ATOM     13  N   UNL     1      -0.826   1.139  -7.285  0.00  0.00    -0.335 N 
ATOM     14 CL   UNL     1      -3.200   2.821  -7.333  0.00  0.00    -0.082 Cl
ATOM     15  H   UNL     1      -1.413   1.359  -8.188  0.00  0.00    +0.147 HD
ENDROOT
BRANCH  12  16
ATOM     16  C   UNL     1       0.431  -0.428  -8.668  0.00  0.00    -0.027 A 
ATOM     17  C   UNL     1      -0.735  -1.017  -9.120  0.00  0.00    +0.006 A 
ATOM     18  C   UNL     1      -0.731  -1.746 -10.294  0.00  0.00    +0.015 A 
ATOM     19  C   UNL     1       0.442  -1.896 -11.011  0.00  0.00    +0.018 A 
ATOM     20  C   UNL     1       1.610  -1.312 -10.556  0.00  0.00    +0.015 A 
ATOM     21  C   UNL     1       1.604  -0.578  -9.384  0.00  0.00    +0.006 A 
ATOM     22 BR   UNL     1       0.450  -2.901 -12.613  0.00  0.00    -0.050 Br
ENDBRANCH  12  16
BRANCH   1  25
ATOM     23  C   UNL     1      -0.969   1.022  -1.307  0.00  0.00    +0.217 C 
ATOM     24  O   UNL     1      -2.169   1.191  -1.269  0.00  0.00    -0.275 OA
ATOM     25  N   UNL     1      -0.288   1.272  -2.443  0.00  0.00    -0.285 N 
ATOM     26  H   UNL     1       0.808   1.191  -2.456  0.00  0.00    +0.155 HD
BRANCH  23  27
ATOM     27  C   UNL     1      -0.238   0.533  -0.083  0.00  0.00    +0.096 C 
BRANCH  27  29
ATOM     28  C   UNL     1      -0.493  -0.168   2.301  0.00  0.00    +0.004 C 
ATOM     29  C   UNL     1      -1.236   0.329   1.059  0.00  0.00    +0.006 C 
ENDBRANCH  27  29
ENDBRANCH  23  27
ENDBRANCH   1  25
TORSDOF 4
