REMARK  Name = ZINC37637827
REMARK  6 active torsions:
REMARK  status: ('A' for Active; 'I' for Inactive)
REMARK    1  A    between atoms: C_1  and  C_2
REMARK    2  A    between atoms: C_3  and  C_16
REMARK    3  A    between atoms: C_5  and  C_15
REMARK    4  A    between atoms: C_6  and  C_8
REMARK    5  A    between atoms: C_11  and  N_14
REMARK    6  A    between atoms: C_19  and  N_22
REMARK                            x       y       z     vdW  Elec       q    Type
REMARK                         _______ _______ _______ _____ _____    ______ ____
ROOT
ATOM      1  C   UNL     1       0.395   1.476  -0.097  0.00  0.00    +0.068 C 
ATOM      2  C   UNL     1       0.196  -0.017  -0.049  0.00  0.00    +0.065 A 
ATOM      3  C   UNL     1      -0.111  -0.718  -1.217  0.00  0.00    +0.092 A 
ATOM      4  N   UNL     1      -0.286  -2.037  -1.175  0.00  0.00    -0.248 NA
ATOM      5  C   UNL     1      -0.171  -2.681  -0.030  0.00  0.00    +0.065 A 
ATOM      6  C   UNL     1       0.136  -1.980   1.138  0.00  0.00    +0.092 A 
ATOM      7  N   UNL     1       0.316  -0.662   1.095  0.00  0.00    -0.248 NA
ATOM      8  C   UNL     1      -0.371  -4.174   0.018  0.00  0.00    +0.068 C 
ENDROOT
BRANCH   6   9
ATOM      9  C   UNL     1       0.265  -2.704   2.424  0.00  0.00    +0.002 A 
ATOM     10  C   UNL     1       0.980  -3.900   2.484  0.00  0.00    +0.012 A 
ATOM     11  C   UNL     1       1.099  -4.571   3.681  0.00  0.00    +0.023 A 
ATOM     12  C   UNL     1       0.507  -4.057   4.830  0.00  0.00    +0.025 A 
ATOM     13  C   UNL     1      -0.207  -2.865   4.772  0.00  0.00    +0.023 A 
ATOM     14  C   UNL     1      -0.324  -2.187   3.578  0.00  0.00    +0.012 A 
BRANCH  12  15
ATOM     15  N   UNL     1       0.629  -4.738   6.041  0.00  0.00    -0.358 N 
ATOM     16  H   UNL     1       1.127  -5.570   6.081  0.00  0.00    +0.142 HD
ATOM     17  H   UNL     1       0.216  -4.380   6.842  0.00  0.00    +0.142 HD
ENDBRANCH  12  15
ENDBRANCH   6   9
BRANCH   3  18
ATOM     18  C   UNL     1      -0.240   0.006  -2.503  0.00  0.00    +0.002 A 
ATOM     19  C   UNL     1       0.701   0.972  -2.859  0.00  0.00    +0.012 A 
ATOM     20  C   UNL     1       0.579   1.643  -4.056  0.00  0.00    +0.023 A 
ATOM     21  C   UNL     1      -0.482   1.359  -4.909  0.00  0.00    +0.025 A 
ATOM     22  C   UNL     1      -1.422   0.397  -4.556  0.00  0.00    +0.023 A 
ATOM     23  C   UNL     1      -1.300  -0.282  -3.362  0.00  0.00    +0.012 A 
BRANCH  21  24
ATOM     24  N   UNL     1      -0.604   2.040  -6.120  0.00  0.00    -0.358 N 
ATOM     25  H   UNL     1       0.051   2.712  -6.367  0.00  0.00    +0.142 HD
ATOM     26  H   UNL     1      -1.343   1.842  -6.715  0.00  0.00    +0.142 HD
ENDBRANCH  21  24
ENDBRANCH   3  18
TORSDOF 4
