REMARK  Name = ZINC15015346
REMARK  8 active torsions:
REMARK  status: ('A' for Active; 'I' for Inactive)
REMARK    1  A    between atoms: C_1  and  C_2
REMARK    2  A    between atoms: C_9  and  N_12
REMARK    3  A    between atoms: N_12  and  N_13
REMARK    4  A    between atoms: C_14  and  C_16
REMARK    5  A    between atoms: C_16  and  N_27
REMARK    6  A    between atoms: C_17  and  C_18
REMARK    7  A    between atoms: C_21  and  N_24
REMARK    8  A    between atoms: C_28  and  C_30
REMARK                            x       y       z     vdW  Elec       q    Type
REMARK                         _______ _______ _______ _____ _____    ______ ____
ROOT
ATOM      1  C   UNL     1       0.264   0.083   5.913  0.00  0.00    +0.098 C 
ATOM      2  C   UNL     1       0.508   0.336   7.219  0.00  0.00    +0.036 C 
ENDROOT
BRANCH   2   3
ATOM      3  C   UNL     1       0.575   1.726   7.699  0.00  0.00    -0.023 A 
ATOM      4  C   UNL     1       0.238   2.030   9.022  0.00  0.00    +0.010 A 
ATOM      5  C   UNL     1       0.304   3.334   9.463  0.00  0.00    +0.033 A 
ATOM      6  C   UNL     1       0.701   4.341   8.601  0.00  0.00    +0.126 A 
ATOM      7  C   UNL     1       1.035   4.049   7.290  0.00  0.00    +0.033 A 
ATOM      8  C   UNL     1       0.982   2.748   6.835  0.00  0.00    +0.010 A 
BRANCH   6   9
ATOM      9  N   UNL     1       0.768   5.739   9.084  0.00  0.00    +0.056 N 
ATOM     10  O   UNL     1       0.476   5.998  10.228  0.00  0.00    -0.126 OA
ATOM     11  O   UNL     1       1.114   6.622   8.333  0.00  0.00    -0.126 OA
ENDBRANCH   6   9
ENDBRANCH   2   3
BRANCH   1  13
ATOM     12  N   UNL     1       0.118  -1.545   4.099  0.00  0.00    -0.231 N 
ATOM     13  C   UNL     1       0.362  -1.292   5.400  0.00  0.00    +0.274 C 
ATOM     14  O   UNL     1       0.663  -2.201   6.150  0.00  0.00    -0.267 OA
ATOM     15  H   UNL     1      -0.122  -0.820   3.501  0.00  0.00    +0.173 HD
BRANCH  12  16
ATOM     16  N   UNL     1       0.212  -2.854   3.610  0.00  0.00    -0.259 N 
ATOM     17  H   UNL     1       0.527  -3.566   4.188  0.00  0.00    +0.170 HD
BRANCH  16  26
ATOM     18  C   UNL     1      -2.012   1.173   0.394  0.00  0.00    +0.044 C 
ATOM     19  C   UNL     1      -1.615  -0.280   0.341  0.00  0.00    -0.050 A 
ATOM     20  C   UNL     1      -1.800  -1.003  -0.827  0.00  0.00    +0.005 A 
ATOM     21  C   UNL     1      -1.443  -2.339  -0.899  0.00  0.00    +0.024 A 
ATOM     22  C   UNL     1      -0.891  -2.977   0.208  0.00  0.00    +0.043 A 
ATOM     23  N   UNL     1      -0.463  -4.258   0.396  0.00  0.00    -0.280 N 
ATOM     24  C   UNL     1      -0.003  -4.434   1.622  0.00  0.00    +0.264 C 
ATOM     25  O   UNL     1       0.445  -5.469   2.081  0.00  0.00    -0.268 OA
ATOM     26  C   UNL     1      -0.134  -3.123   2.349  0.00  0.00    +0.116 C 
ATOM     27  C   UNL     1      -0.703  -2.235   1.403  0.00  0.00    +0.024 A 
ATOM     28  C   UNL     1      -1.065  -0.883   1.455  0.00  0.00    +0.015 A 
ATOM     29  H   UNL     1      -0.493  -4.950  -0.282  0.00  0.00    +0.155 HD
ENDBRANCH  16  26
ENDBRANCH  12  16
ENDBRANCH   1  13
BRANCH   1  30
ATOM     30  N   UNL     1      -0.082   1.127   5.051  0.00  0.00    -0.277 N 
ATOM     31  C   UNL     1       0.718   1.436   4.011  0.00  0.00    +0.248 C 
ATOM     32  O   UNL     1       1.697   0.755   3.775  0.00  0.00    -0.270 OA
ATOM     33  H   UNL     1      -0.898   1.630   5.201  0.00  0.00    +0.155 HD
BRANCH  31  34
ATOM     34  C   UNL     1       0.405   2.602   3.159  0.00  0.00    +0.037 A 
ATOM     35  C   UNL     1      -0.679   3.425   3.467  0.00  0.00    +0.013 A 
ATOM     36  C   UNL     1      -0.966   4.512   2.667  0.00  0.00    +0.001 A 
ATOM     37  C   UNL     1      -0.181   4.787   1.561  0.00  0.00    +0.000 A 
ATOM     38  C   UNL     1       0.896   3.975   1.250  0.00  0.00    +0.001 A 
ATOM     39  C   UNL     1       1.196   2.888   2.045  0.00  0.00    +0.013 A 
ENDBRANCH  31  34
ENDBRANCH   1  30
TORSDOF 7
