REMARK  Name = ZINC20271093
REMARK  11 active torsions:
REMARK  status: ('A' for Active; 'I' for Inactive)
REMARK    1  A    between atoms: C_1  and  C_2
REMARK    2  A    between atoms: C_2  and  C_4
REMARK    3  A    between atoms: C_8  and  C_11
REMARK    4  A    between atoms: C_11  and  N_12
REMARK    5  A    between atoms: C_15  and  C_18
REMARK    6  A    between atoms: C_18  and  C_29
REMARK    7  A    between atoms: N_21  and  C_25
REMARK    8  A    between atoms: C_25  and  C_26
REMARK    9  A    between atoms: C_26  and  O_27
REMARK   10  A    between atoms: O_27  and  C_28
REMARK   11  A    between atoms: C_29  and  C_30
REMARK                            x       y       z     vdW  Elec       q    Type
REMARK                         _______ _______ _______ _____ _____    ______ ____
ROOT
ATOM      1  C   UNL     1      -1.770   2.355   1.466  0.00  0.00    +0.119 C 
ATOM      2  C   UNL     1      -1.871   1.043   2.218  0.00  0.00    +0.247 C 
ATOM      3  O   UNL     1      -2.602   0.109   1.968  0.00  0.00    -0.273 OA
ATOM      4  N   UNL     1      -0.978   1.130   3.224  0.00  0.00    -0.222 N 
ATOM      5  C   UNL     1      -0.334   2.303   3.211  0.00  0.00    +0.309 C 
ATOM      6  O   UNL     1       0.519   2.615   4.020  0.00  0.00    -0.252 OA
ATOM      7  N   UNL     1      -0.737   3.103   2.203  0.00  0.00    -0.284 N 
ATOM      8  H   UNL     1      -0.451   4.113   1.876  0.00  0.00    +0.151 HD
ENDROOT
BRANCH   1  12
ATOM      9  N   UNL     1      -4.629   5.418   2.311  0.00  0.00    +0.382 N 
ATOM     10  C   UNL     1      -4.824   4.132   2.993  0.00  0.00    -0.078 C 
ATOM     11  C   UNL     1      -3.520   3.333   2.960  0.00  0.00    -0.013 C 
ATOM     12  C   UNL     1      -3.105   3.101   1.505  0.00  0.00    +0.018 C 
ATOM     13  C   UNL     1      -2.956   4.454   0.802  0.00  0.00    -0.013 C 
ATOM     14  C   UNL     1      -4.277   5.221   0.899  0.00  0.00    -0.078 C 
ATOM     15  H   UNL     1      -3.788   5.932   2.798  0.00  0.00    -0.081 HD
BRANCH   9  16
ATOM     16  C   UNL     1      -5.819   6.270   2.442  0.00  0.00    -0.048 C 
BRANCH  16  20
ATOM     17  C   UNL     1      -5.089   9.517  -0.278  0.00  0.00    +0.018 C 
ATOM     18  C   UNL     1      -5.250   9.889   1.201  0.00  0.00    +0.012 C 
ATOM     19  C   UNL     1      -4.934   8.659   2.051  0.00  0.00    +0.029 C 
ATOM     20  C   UNL     1      -5.683   7.465   1.535  0.00  0.00    -0.090 C 
ATOM     21  C   UNL     1      -6.225   7.401   0.361  0.00  0.00    -0.029 C 
ATOM     22  C   UNL     1      -6.184   8.513  -0.646  0.00  0.00    +0.035 C 
BRANCH  17  24
ATOM     23  C   UNL     1      -6.496  11.565  -1.078  0.00  0.00    +0.039 C 
ATOM     24  C   UNL     1      -5.228  10.752  -1.130  0.00  0.00    -0.076 C 
ATOM     25  C   UNL     1      -4.246  11.120  -1.916  0.00  0.00    +0.007 C 
ENDBRANCH  17  24
ENDBRANCH  16  20
ENDBRANCH   9  16
ENDBRANCH   1  12
BRANCH   4  26
ATOM     26  C   UNL     1      -0.742   0.072   4.209  0.00  0.00    +0.146 C 
BRANCH  26  27
ATOM     27  C   UNL     1       0.356  -0.864   3.700  0.00  0.00    +0.179 C 
BRANCH  27  28
ATOM     28  O   UNL     1       1.589  -0.147   3.611  0.00  0.00    -0.381 OA
ATOM     29  C   UNL     1       2.686  -0.935   3.143  0.00  0.00    +0.194 C 
ENDBRANCH  27  28
ENDBRANCH  26  27
ENDBRANCH   4  26
BRANCH   1  30
ATOM     30  C   UNL     1      -1.332   2.114   0.020  0.00  0.00    +0.070 C 
BRANCH  30  31
ATOM     31  C   UNL     1      -0.017   1.378   0.010  0.00  0.00    -0.042 A 
ATOM     32  C   UNL     1       0.002  -0.004   0.002  0.00  0.00    +0.004 A 
ATOM     33  C   UNL     1       1.208  -0.680  -0.013  0.00  0.00    +0.003 A 
ATOM     34  C   UNL     1       2.396   0.026  -0.021  0.00  0.00    +0.038 A 
ATOM     35  C   UNL     1       2.379   1.410  -0.013  0.00  0.00    +0.124 A 
ATOM     36  C   UNL     1       1.170   2.086   0.002  0.00  0.00    +0.042 A 
ATOM     37  F   UNL     1       3.540   2.101  -0.021  0.00  0.00    -0.205 F 
ENDBRANCH  30  31
ENDBRANCH   1  30
TORSDOF 9
