REMARK  Name = ZINC51117804
REMARK  6 active torsions:
REMARK  status: ('A' for Active; 'I' for Inactive)
REMARK    1  A    between atoms: C_1  and  C_2
REMARK    2  A    between atoms: C_2  and  C_4
REMARK    3  A    between atoms: C_2  and  N_11
REMARK    4  A    between atoms: C_12  and  C_14
REMARK    5  A    between atoms: C_19  and  N_20
REMARK    6  A    between atoms: N_20  and  N_21
REMARK                            x       y       z     vdW  Elec       q    Type
REMARK                         _______ _______ _______ _____ _____    ______ ____
ROOT
ATOM      1  N   UNL     1       0.690  -0.428  -1.222  0.00  0.00    -0.305 N 
ATOM      2  C   UNL     1       2.031  -0.566  -1.223  0.00  0.00    +0.248 C 
ATOM      3  O   UNL     1       2.671  -0.289  -0.227  0.00  0.00    -0.270 OA
ATOM      4  H   UNL     1       0.179  -0.649  -2.017  0.00  0.00    +0.150 HD
ENDROOT
BRANCH   2   5
ATOM      5  C   UNL     1       2.721  -1.052  -2.432  0.00  0.00    +0.079 A 
ATOM      6  C   UNL     1       1.990  -1.491  -3.542  0.00  0.00    +0.033 A 
ATOM      7  C   UNL     1       2.685  -1.938  -4.652  0.00  0.00    +0.037 A 
ATOM      8  C   UNL     1       4.070  -1.938  -4.635  0.00  0.00    +0.128 A 
ATOM      9  N   UNL     1       4.739  -1.521  -3.579  0.00  0.00    -0.237 NA
ATOM     10  C   UNL     1       4.125  -1.078  -2.493  0.00  0.00    +0.144 A 
ATOM     11 BR   UNL     1       1.751  -2.543  -6.181  0.00  0.00    -0.049 Br
BRANCH  10  12
ATOM     12  N   UNL     1       4.868  -0.644  -1.410  0.00  0.00    -0.267 N 
ATOM     13  H   UNL     1       4.423  -0.399  -0.584  0.00  0.00    +0.167 HD
BRANCH  12  14
ATOM     14  N   UNL     1       6.228  -0.561  -1.505  0.00  0.00    -0.255 NA
ATOM     15  H   UNL     1       6.501   0.026  -2.279  0.00  0.00    +0.140 HD
ATOM     16  H   UNL     1       6.631  -0.231  -0.641  0.00  0.00    +0.140 HD
ENDBRANCH  12  14
ENDBRANCH  10  12
ENDBRANCH   2   5
BRANCH   1  18
ATOM     17  C   UNL     1       0.015   1.585  -0.009  0.00  0.00    +0.033 C 
ATOM     18  C   UNL     1       0.004   0.055  -0.021  0.00  0.00    +0.100 C 
BRANCH  18  19
ATOM     19  C   UNL     1      -1.420  -0.438  -0.023  0.00  0.00    -0.026 A 
ATOM     20  C   UNL     1      -2.141  -0.463  -1.203  0.00  0.00    +0.005 A 
ATOM     21  C   UNL     1      -3.447  -0.915  -1.206  0.00  0.00    +0.002 A 
ATOM     22  C   UNL     1      -4.033  -1.342  -0.029  0.00  0.00    +0.020 A 
ATOM     23  C   UNL     1      -3.313  -1.317   1.152  0.00  0.00    +0.041 A 
ATOM     24  C   UNL     1      -2.003  -0.870   1.153  0.00  0.00    +0.025 A 
ATOM     25 CL   UNL     1      -4.048  -1.853   2.630  0.00  0.00    -0.084 Cl
ENDBRANCH  18  19
ENDBRANCH   1  18
TORSDOF 5
