REMARK  Name = ZINC13033144
REMARK  11 active torsions:
REMARK  status: ('A' for Active; 'I' for Inactive)
REMARK    1  A    between atoms: C_1  and  C_2
REMARK    2  A    between atoms: C_7  and  C_15
REMARK    3  A    between atoms: C_13  and  C_14
REMARK    4  A    between atoms: C_15  and  N_63
REMARK    5  A    between atoms: C_16  and  C_17
REMARK    6  A    between atoms: C_16  and  N_63
REMARK    7  A    between atoms: C_22  and  C_23
REMARK    8  A    between atoms: C_22  and  N_63
REMARK    9  A    between atoms: N_27  and  C_28
REMARK   10  A    between atoms: C_28  and  C_29
REMARK   11  A    between atoms: C_29  and  C_30
REMARK                            x       y       z     vdW  Elec       q    Type
REMARK                         _______ _______ _______ _____ _____    ______ ____
ROOT
ATOM      1  N   UNL     1      -1.144  -2.015  -2.818  0.00  0.00    +0.390 N 
ATOM      2  H   UNL     1      -0.422  -2.478  -2.253  0.00  0.00    -0.080 HD
ENDROOT
BRANCH   1   3
ATOM      3  C   UNL     1      -0.539  -1.556  -4.087  0.00  0.00    -0.036 C 
BRANCH   3  10
ATOM      4  C   UNL     1      -5.241   3.780  -7.698  0.00  0.00    +0.044 C 
ATOM      5  C   UNL     1      -4.252   2.957  -6.914  0.00  0.00    -0.046 A 
ATOM      6  C   UNL     1      -3.342   3.589  -6.077  0.00  0.00    +0.004 A 
ATOM      7  C   UNL     1      -2.437   2.861  -5.358  0.00  0.00    +0.010 A 
ATOM      8  C   UNL     1      -2.428   1.466  -5.464  0.00  0.00    -0.001 A 
ATOM      9  C   UNL     1      -1.475   0.655  -4.704  0.00  0.00    +0.017 A 
ATOM     10  C   UNL     1      -1.509  -0.693  -4.851  0.00  0.00    +0.001 A 
ATOM     11  C   UNL     1      -2.453  -1.289  -5.715  0.00  0.00    +0.251 A 
ATOM     12  O   UNL     1      -2.469  -2.503  -5.830  0.00  0.00    -0.268 OA
ATOM     13  N   UNL     1      -3.334  -0.553  -6.414  0.00  0.00    -0.322 N 
ATOM     14  H   UNL     1      -3.970  -0.996  -6.998  0.00  0.00    +0.169 HD
ATOM     15  C   UNL     1      -3.348   0.822  -6.311  0.00  0.00    +0.052 A 
ATOM     16  C   UNL     1      -4.260   1.584  -7.035  0.00  0.00    -0.024 A 
ATOM     17  C   UNL     1      -5.253   0.911  -7.947  0.00  0.00    +0.046 C 
ENDBRANCH   3  10
ENDBRANCH   1   3
BRANCH   1  18
ATOM     18  C   UNL     1      -2.229  -2.980  -3.095  0.00  0.00    -0.035 C 
BRANCH  18  19
ATOM     19  C   UNL     1      -1.615  -4.291  -3.513  0.00  0.00    -0.027 A 
ATOM     20  C   UNL     1      -1.160  -5.306  -2.739  0.00  0.00    +0.009 A 
ATOM     21  C   UNL     1      -0.634  -6.430  -3.348  0.00  0.00    +0.008 A 
ATOM     22  C   UNL     1      -0.579  -6.479  -4.701  0.00  0.00    +0.045 A 
ATOM     23  S   UNL     1      -1.292  -4.907  -5.157  0.00  0.00    -0.103 S 
ENDBRANCH  18  19
ENDBRANCH   1  18
BRANCH   1  24
ATOM     24  C   UNL     1      -1.675  -0.859  -2.065  0.00  0.00    +0.001 C 
BRANCH  24  25
ATOM     25  C   UNL     1      -2.083  -1.321  -0.690  0.00  0.00    +0.135 A 
ATOM     26  N   UNL     1      -3.265  -1.758  -0.330  0.00  0.00    -0.115 NA
ATOM     27  N   UNL     1      -3.215  -2.056   0.923  0.00  0.00    -0.023 NA
ATOM     28  N   UNL     1      -2.029  -1.826   1.370  0.00  0.00    -0.044 NA
ATOM     29  N   UNL     1      -1.304  -1.366   0.407  0.00  0.00    -0.231 N 
BRANCH  29  30
ATOM     30  C   UNL     1       0.105  -0.973   0.490  0.00  0.00    +0.152 C 
BRANCH  30  31
ATOM     31  C   UNL     1       0.200   0.510   0.855  0.00  0.00    +0.058 C 
BRANCH  31  32
ATOM     32  C   UNL     1       1.649   0.914   0.940  0.00  0.00    -0.046 A 
ATOM     33  C   UNL     1       2.324   0.818   2.143  0.00  0.00    +0.004 A 
ATOM     34  C   UNL     1       3.655   1.184   2.220  0.00  0.00    +0.000 A 
ATOM     35  C   UNL     1       4.308   1.656   1.097  0.00  0.00    +0.000 A 
ATOM     36  C   UNL     1       3.632   1.757  -0.104  0.00  0.00    +0.000 A 
ATOM     37  C   UNL     1       2.303   1.386  -0.183  0.00  0.00    +0.004 A 
ENDBRANCH  31  32
ENDBRANCH  30  31
ENDBRANCH  29  30
ENDBRANCH  24  25
ENDBRANCH   1  24
TORSDOF 9
