REMARK  Name = ZINC06409954
REMARK  12 active torsions:
REMARK  status: ('A' for Active; 'I' for Inactive)
REMARK    1  A    between atoms: C_1  and  C_2
REMARK    2  A    between atoms: C_7  and  C_14
REMARK    3  A    between atoms: C_14  and  C_16
REMARK    4  A    between atoms: C_14  and  N_69
REMARK    5  A    between atoms: N_20  and  C_21
REMARK    6  A    between atoms: C_21  and  C_22
REMARK    7  A    between atoms: C_21  and  C_23
REMARK    8  A    between atoms: C_21  and  C_24
REMARK    9  A    between atoms: C_25  and  C_26
REMARK   10  A    between atoms: C_25  and  N_69
REMARK   11  A    between atoms: C_32  and  C_33
REMARK   12  A    between atoms: C_32  and  N_69
REMARK                            x       y       z     vdW  Elec       q    Type
REMARK                         _______ _______ _______ _____ _____    ______ ____
ROOT
ATOM      1  C   UNL     1       4.743  -0.617  -0.662  0.00  0.00    +0.040 C 
ENDROOT
BRANCH   1   8
ATOM      2  C   UNL     1       9.405  -0.481  -7.132  0.00  0.00    +0.044 C 
ATOM      3  C   UNL     1       8.703  -0.615  -5.806  0.00  0.00    -0.048 A 
ATOM      4  C   UNL     1       9.352  -1.230  -4.744  0.00  0.00    +0.004 A 
ATOM      5  C   UNL     1       8.734  -1.362  -3.533  0.00  0.00    +0.010 A 
ATOM      6  C   UNL     1       7.435  -0.873  -3.361  0.00  0.00    -0.001 A 
ATOM      7  C   UNL     1       6.744  -0.993  -2.076  0.00  0.00    +0.017 A 
ATOM      8  C   UNL     1       5.484  -0.505  -1.969  0.00  0.00    +0.011 A 
ATOM      9  C   UNL     1       4.865   0.113  -3.077  0.00  0.00    +0.251 A 
ATOM     10  O   UNL     1       3.733   0.548  -2.959  0.00  0.00    -0.268 OA
ATOM     11  N   UNL     1       5.493   0.232  -4.260  0.00  0.00    -0.322 N 
ATOM     12  H   UNL     1       5.038   0.662  -5.001  0.00  0.00    +0.169 HD
ATOM     13  C   UNL     1       6.773  -0.248  -4.435  0.00  0.00    +0.049 A 
ATOM     14  C   UNL     1       7.423  -0.125  -5.659  0.00  0.00    +0.029 A 
ENDBRANCH   1   8
BRANCH   1  15
ATOM     15  C   UNL     1       5.661  -1.186   0.389  0.00  0.00    +0.143 A 
ATOM     16  N   UNL     1       6.141  -2.405   0.432  0.00  0.00    -0.115 NA
ATOM     17  N   UNL     1       6.885  -2.503   1.480  0.00  0.00    -0.023 NA
ATOM     18  N   UNL     1       6.891  -1.379   2.106  0.00  0.00    -0.043 NA
ATOM     19  N   UNL     1       6.153  -0.539   1.462  0.00  0.00    -0.225 N 
BRANCH  19  20
ATOM     20  C   UNL     1       5.896   0.855   1.831  0.00  0.00    +0.059 C 
ATOM     21  C   UNL     1       4.402   1.042   2.107  0.00  0.00    +0.036 C 
ATOM     22  C   UNL     1       6.695   1.206   3.087  0.00  0.00    +0.036 C 
ATOM     23  C   UNL     1       6.320   1.773   0.683  0.00  0.00    +0.036 C 
ENDBRANCH  19  20
ENDBRANCH   1  15
BRANCH   1  24
ATOM     24  N   UNL     1       3.565  -1.491  -0.848  0.00  0.00    +0.395 N 
ATOM     25  H   UNL     1       2.909  -1.033  -1.492  0.00  0.00    -0.079 HD
BRANCH  24  26
ATOM     26  C   UNL     1       2.891  -1.713   0.448  0.00  0.00    -0.041 C 
BRANCH  26  27
ATOM     27  C   UNL     1       1.551  -2.354   0.194  0.00  0.00    -0.064 A 
ATOM     28  C   UNL     1       1.418  -3.728   0.259  0.00  0.00    +0.002 A 
ATOM     29  C   UNL     1       0.189  -4.316   0.025  0.00  0.00    +0.000 A 
ATOM     30  C   UNL     1      -0.908  -3.529  -0.273  0.00  0.00    +0.000 A 
ATOM     31  C   UNL     1      -0.775  -2.155  -0.337  0.00  0.00    +0.000 A 
ATOM     32  C   UNL     1       0.454  -1.567  -0.104  0.00  0.00    +0.002 A 
ENDBRANCH  26  27
ENDBRANCH  24  26
BRANCH  24  33
ATOM     33  C   UNL     1       3.983  -2.784  -1.429  0.00  0.00    -0.040 C 
BRANCH  33  34
ATOM     34  C   UNL     1       4.059  -2.637  -2.927  0.00  0.00    -0.046 A 
ATOM     35  C   UNL     1       2.960  -2.187  -3.634  0.00  0.00    +0.003 A 
ATOM     36  C   UNL     1       3.032  -2.047  -5.007  0.00  0.00    +0.000 A 
ATOM     37  C   UNL     1       4.199  -2.366  -5.676  0.00  0.00    +0.001 A 
ATOM     38  C   UNL     1       5.297  -2.821  -4.970  0.00  0.00    +0.020 A 
ATOM     39  C   UNL     1       5.228  -2.957  -3.595  0.00  0.00    +0.042 A 
ATOM     40 CL   UNL     1       6.606  -3.529  -2.708  0.00  0.00    -0.083 Cl
ENDBRANCH  33  34
ENDBRANCH  24  33
ENDBRANCH   1  24
TORSDOF 8
