REMARK  Name = ZINC20720251
REMARK  2 active torsions:
REMARK  status: ('A' for Active; 'I' for Inactive)
REMARK    1  A    between atoms: C_5  and  C_6
REMARK    2  A    between atoms: C_9  and  O_17
REMARK                            x       y       z     vdW  Elec       q    Type
REMARK                         _______ _______ _______ _____ _____    ______ ____
ROOT
ATOM      1  C   UNL     1      -1.286  -0.786   0.011  0.00  0.00    +0.063 C 
ATOM      2  C   UNL     1      -1.358  -1.681  -1.231  0.00  0.00    +0.108 C 
ATOM      3  C   UNL     1      -0.497  -2.900  -1.096  0.00  0.00    +0.190 C 
ATOM      4  N   UNL     1      -0.278  -3.516   0.025  0.00  0.00    -0.196 NA
ATOM      5  C   UNL     1      -0.831  -3.011   1.177  0.00  0.00    +0.181 A 
ATOM      6  C   UNL     1      -1.333  -1.680   1.224  0.00  0.00    +0.024 A 
ATOM      7  C   UNL     1      -1.799  -1.454   2.456  0.00  0.00    +0.111 A 
ATOM      8  N   UNL     1      -1.616  -2.584   3.182  0.00  0.00    -0.282 N 
ATOM      9  H   UNL     1      -1.862  -2.709   4.112  0.00  0.00    +0.188 HD
ATOM     10  N   UNL     1      -1.008  -3.546   2.353  0.00  0.00    -0.154 NA
ENDROOT
BRANCH   1  15
ATOM     11  C   UNL     1      -0.017   1.378   0.010  0.00  0.00    +0.012 A 
ATOM     12  C   UNL     1       1.160   2.051   0.002  0.00  0.00    +0.045 A 
ATOM     13  S   UNL     1       2.348   0.719  -0.017  0.00  0.00    -0.105 S 
ATOM     14  C   UNL     1       1.196  -0.645  -0.013  0.00  0.00    +0.049 A 
ATOM     15  C   UNL     1       0.002  -0.004   0.002  0.00  0.00    -0.032 A 
ENDBRANCH   1  15
BRANCH   3  16
ATOM     16  O   UNL     1       0.086  -3.389  -2.210  0.00  0.00    -0.495 OA
ATOM     17  H   UNL     1       0.628  -4.175  -2.058  0.00  0.00    +0.293 HD
ENDBRANCH   3  16
TORSDOF 2
