REMARK  Name = ZINC09123821
REMARK  9 active torsions:
REMARK  status: ('A' for Active; 'I' for Inactive)
REMARK    1  A    between atoms: C_1  and  O_2
REMARK    2  A    between atoms: O_2  and  C_3
REMARK    3  A    between atoms: C_6  and  C_9
REMARK    4  A    between atoms: C_9  and  C_10
REMARK    5  A    between atoms: C_10  and  N_11
REMARK    6  A    between atoms: C_12  and  C_29
REMARK    7  A    between atoms: C_15  and  C_22
REMARK    8  A    between atoms: C_27  and  O_28
REMARK    9  A    between atoms: C_33  and  O_35
REMARK                            x       y       z     vdW  Elec       q    Type
REMARK                         _______ _______ _______ _____ _____    ______ ____
ROOT
ATOM      1  N   UNL     1       2.249  -3.470   6.551  0.00  0.00    -0.285 N 
ATOM      2  C   UNL     1       2.394  -4.920   6.732  0.00  0.00    +0.141 C 
ATOM      3  C   UNL     1       3.151  -5.106   8.018  0.00  0.00    +0.035 A 
ATOM      4  C   UNL     1       3.713  -5.998   8.938  0.00  0.00    +0.102 A 
ATOM      5  N   UNL     1       4.257  -5.281   9.902  0.00  0.00    -0.173 NA
ATOM      6  N   UNL     1       4.095  -4.025   9.681  0.00  0.00    -0.272 N 
ATOM      7  H   UNL     1       4.413  -3.313  10.258  0.00  0.00    +0.189 HD
ATOM      8  C   UNL     1       3.408  -3.842   8.515  0.00  0.00    +0.126 A 
ATOM      9  C   UNL     1       2.845  -2.854   7.588  0.00  0.00    +0.265 C 
ATOM     10  O   UNL     1       2.907  -1.648   7.737  0.00  0.00    -0.268 OA
ENDROOT
BRANCH   4  11
ATOM     11  C   UNL     1       3.698  -7.479   8.847  0.00  0.00    +0.044 A 
ATOM     12  C   UNL     1       3.088  -8.107   7.764  0.00  0.00    +0.014 A 
ATOM     13  C   UNL     1       3.077  -9.485   7.683  0.00  0.00    +0.001 A 
ATOM     14  C   UNL     1       3.670 -10.246   8.675  0.00  0.00    +0.004 A 
ATOM     15  C   UNL     1       4.279  -9.633   9.754  0.00  0.00    +0.046 A 
ATOM     16  C   UNL     1       4.302  -8.250   9.844  0.00  0.00    +0.126 A 
BRANCH  16  17
ATOM     17  O   UNL     1       4.904  -7.646  10.902  0.00  0.00    -0.506 OA
ATOM     18  H   UNL     1       4.316  -7.491  11.653  0.00  0.00    +0.292 HD
ENDBRANCH  16  17
ENDBRANCH   4  11
BRANCH   2  19
ATOM     19  C   UNL     1       3.168  -5.512   5.583  0.00  0.00    -0.019 A 
ATOM     20  C   UNL     1       4.261  -4.839   5.067  0.00  0.00    +0.006 A 
ATOM     21  C   UNL     1       4.973  -5.379   4.012  0.00  0.00    +0.004 A 
ATOM     22  C   UNL     1       4.595  -6.592   3.471  0.00  0.00    +0.045 A 
ATOM     23  C   UNL     1       3.500  -7.269   3.986  0.00  0.00    +0.117 A 
ATOM     24  C   UNL     1       2.790  -6.728   5.049  0.00  0.00    +0.051 A 
BRANCH  23  25
ATOM     25  O   UNL     1       3.126  -8.463   3.456  0.00  0.00    -0.507 OA
ATOM     26  H   UNL     1       3.545  -9.228   3.873  0.00  0.00    +0.292 HD
ENDBRANCH  23  25
ENDBRANCH   2  19
BRANCH   1  27
ATOM     27  C   UNL     1       1.577  -2.808   5.431  0.00  0.00    +0.114 C 
BRANCH  27  28
ATOM     28  C   UNL     1       2.587  -2.550   4.310  0.00  0.00    +0.054 C 
BRANCH  28  32
ATOM     29  C   UNL     1       0.626  -0.618   1.042  0.00  0.00    +0.120 A 
ATOM     30  C   UNL     1       1.202   0.138   2.051  0.00  0.00    +0.046 A 
ATOM     31  C   UNL     1       1.835  -0.488   3.107  0.00  0.00    +0.007 A 
ATOM     32  C   UNL     1       1.895  -1.869   3.158  0.00  0.00    -0.046 A 
ATOM     33  C   UNL     1       1.322  -2.625   2.152  0.00  0.00    +0.007 A 
ATOM     34  C   UNL     1       0.682  -2.003   1.098  0.00  0.00    +0.046 A 
BRANCH  29  36
ATOM     35  C   UNL     1      -0.017   1.425   0.010  0.00  0.00    +0.277 C 
ATOM     36  O   UNL     1       0.002  -0.004   0.002  0.00  0.00    -0.495 OA
ENDBRANCH  29  36
ENDBRANCH  28  32
ENDBRANCH  27  28
ENDBRANCH   1  27
TORSDOF 8
