REMARK  Name = ZINC16479455
REMARK  11 active torsions:
REMARK  status: ('A' for Active; 'I' for Inactive)
REMARK    1  A    between atoms: C_4  and  C_7
REMARK    2  A    between atoms: C_7  and  N_8
REMARK    3  A    between atoms: N_8  and  C_9
REMARK    4  A    between atoms: N_8  and  S_29
REMARK    5  A    between atoms: C_9  and  C_10
REMARK    6  A    between atoms: N_12  and  N_13
REMARK    7  A    between atoms: C_14  and  C_15
REMARK    8  A    between atoms: C_18  and  O_21
REMARK    9  A    between atoms: O_21  and  C_22
REMARK   10  A    between atoms: C_22  and  C_23
REMARK   11  A    between atoms: S_29  and  C_32
REMARK                            x       y       z     vdW  Elec       q    Type
REMARK                         _______ _______ _______ _____ _____    ______ ____
ROOT
ATOM      1  C   UNL     1       5.970   1.755  -0.044  0.00  0.00    +0.248 C 
ATOM      2  O   UNL     1       5.950   2.968  -0.038  0.00  0.00    -0.273 OA
ATOM      3  N   UNL     1       4.814   1.062  -0.036  0.00  0.00    -0.206 N 
ATOM      4  H   UNL     1       4.829   0.092  -0.041  0.00  0.00    +0.177 HD
ENDROOT
BRANCH   3   5
ATOM      5  N   UNL     1       3.589   1.743  -0.022  0.00  0.00    -0.188 NA
ATOM      6  C   UNL     1       2.476   1.076  -0.015  0.00  0.00    +0.138 C 
BRANCH   6   7
ATOM      7  C   UNL     1       1.187   1.792   0.000  0.00  0.00    -0.005 A 
ATOM      8  C   UNL     1      -0.013   1.076   0.008  0.00  0.00    +0.013 A 
ATOM      9  C   UNL     1      -1.215   1.750   0.017  0.00  0.00    +0.046 A 
ATOM     10  C   UNL     1      -1.235   3.138   0.030  0.00  0.00    +0.121 A 
ATOM     11  C   UNL     1      -0.044   3.854   0.022  0.00  0.00    +0.046 A 
ATOM     12  C   UNL     1       1.162   3.189   0.008  0.00  0.00    +0.013 A 
BRANCH  10  13
ATOM     13  O   UNL     1      -2.422   3.798   0.044  0.00  0.00    -0.487 OA
BRANCH  13  14
ATOM     14  C   UNL     1      -3.607   3.001   0.051  0.00  0.00    +0.264 C 
BRANCH  14  15
ATOM     15  C   UNL     1      -4.817   3.899   0.067  0.00  0.00    -0.010 A 
ATOM     16  C   UNL     1      -5.364   4.301   1.271  0.00  0.00    +0.007 A 
ATOM     17  C   UNL     1      -6.471   5.129   1.286  0.00  0.00    +0.000 A 
ATOM     18  C   UNL     1      -7.037   5.547   0.096  0.00  0.00    +0.000 A 
ATOM     19  C   UNL     1      -6.493   5.141  -1.108  0.00  0.00    +0.000 A 
ATOM     20  C   UNL     1      -5.383   4.317  -1.123  0.00  0.00    +0.007 A 
ENDBRANCH  14  15
ENDBRANCH  13  14
ENDBRANCH  10  13
ENDBRANCH   6   7
ENDBRANCH   3   5
BRANCH   1  21
ATOM     21  C   UNL     1       7.287   1.023  -0.059  0.00  0.00    +0.207 C 
BRANCH  21  22
ATOM     22  N   UNL     1       8.384   1.992  -0.065  0.00  0.00    -0.163 NA
BRANCH  22  23
ATOM     23  S   UNL     1       9.075   2.454  -1.497  0.00  0.00    +0.062 S 
ATOM     24  O   UNL     1      10.386   2.907  -1.189  0.00  0.00    -0.153 OA
ATOM     25  O   UNL     1       8.830   1.404  -2.423  0.00  0.00    -0.153 OA
BRANCH  23  26
ATOM     26  C   UNL     1       8.181   3.856  -2.079  0.00  0.00    +0.106 A 
ATOM     27  C   UNL     1       7.085   3.684  -2.904  0.00  0.00    +0.028 A 
ATOM     28  C   UNL     1       6.381   4.784  -3.357  0.00  0.00    +0.002 A 
ATOM     29  C   UNL     1       6.777   6.057  -2.991  0.00  0.00    +0.000 A 
ATOM     30  C   UNL     1       7.876   6.229  -2.171  0.00  0.00    +0.002 A 
ATOM     31  C   UNL     1       8.578   5.129  -1.714  0.00  0.00    +0.028 A 
ENDBRANCH  23  26
ENDBRANCH  22  23
BRANCH  22  32
ATOM     32  C   UNL     1       8.872   2.554   1.198  0.00  0.00    +0.145 C 
BRANCH  32  36
ATOM     33  C   UNL     1      11.758  -0.087   2.912  0.00  0.00    +0.000 A 
ATOM     34  C   UNL     1      12.163   0.910   2.045  0.00  0.00    +0.000 A 
ATOM     35  C   UNL     1      11.229   1.765   1.490  0.00  0.00    +0.005 A 
ATOM     36  C   UNL     1       9.890   1.623   1.802  0.00  0.00    -0.032 A 
ATOM     37  C   UNL     1       9.486   0.629   2.674  0.00  0.00    +0.005 A 
ATOM     38  C   UNL     1      10.419  -0.229   3.225  0.00  0.00    +0.000 A 
ENDBRANCH  32  36
ENDBRANCH  22  32
ENDBRANCH  21  22
ENDBRANCH   1  21
TORSDOF 11
