REMARK  Name = ZINC06074632
REMARK  12 active torsions:
REMARK  status: ('A' for Active; 'I' for Inactive)
REMARK    1  A    between atoms: C_1  and  C_2
REMARK    2  A    between atoms: C_2  and  C_3
REMARK    3  A    between atoms: C_2  and  C_4
REMARK    4  A    between atoms: C_2  and  N_5
REMARK    5  A    between atoms: C_6  and  C_8
REMARK    6  A    between atoms: C_8  and  C_10
REMARK    7  A    between atoms: C_8  and  N_15
REMARK    8  A    between atoms: N_15  and  C_16
REMARK    9  A    between atoms: C_16  and  C_17
REMARK   10  A    between atoms: C_24  and  C_26
REMARK   11  A    between atoms: C_26  and  N_27
REMARK   12  A    between atoms: C_29  and  C_32
REMARK                            x       y       z     vdW  Elec       q    Type
REMARK                         _______ _______ _______ _____ _____    ______ ____
ROOT
ATOM      1  N   UNL     1      -3.125   1.473  -0.030  0.00  0.00    -0.278 N 
ATOM      2  C   UNL     1      -3.101   2.589   0.726  0.00  0.00    +0.240 C 
ATOM      3  O   UNL     1      -3.913   3.469   0.532  0.00  0.00    -0.273 OA
ENDROOT
BRANCH   1   4
ATOM      4  C   UNL     1      -2.211   0.367   0.269  0.00  0.00    +0.228 C 
BRANCH   4   5
ATOM      5  C   UNL     1      -0.795   0.795  -0.016  0.00  0.00    +0.134 A 
ATOM      6  C   UNL     1       0.290   0.452   0.702  0.00  0.00    +0.047 A 
ATOM      7  C   UNL     1       1.402   1.069   0.084  0.00  0.00    +0.041 A 
ATOM      8  C   UNL     1       0.930   1.752  -0.975  0.00  0.00    +0.195 A 
ATOM      9  O   UNL     1      -0.400   1.578  -1.033  0.00  0.00    -0.465 OA
ENDBRANCH   4   5
BRANCH   4  11
ATOM     10  N   UNL     1      -2.957  -1.974  -0.018  0.00  0.00    -0.309 N 
ATOM     11  C   UNL     1      -2.561  -0.820  -0.591  0.00  0.00    +0.242 C 
ATOM     12  O   UNL     1      -2.486  -0.736  -1.798  0.00  0.00    -0.273 OA
ATOM     13  H   UNL     1      -3.134  -2.006   0.935  0.00  0.00    +0.149 HD
BRANCH  10  15
ATOM     14  C   UNL     1      -1.806  -3.503  -1.541  0.00  0.00    +0.031 C 
ATOM     15  C   UNL     1      -3.125  -3.177  -0.836  0.00  0.00    +0.026 C 
ATOM     16  C   UNL     1      -3.528  -4.350   0.060  0.00  0.00    +0.031 C 
ATOM     17  C   UNL     1      -4.215  -2.935  -1.881  0.00  0.00    +0.031 C 
ENDBRANCH  10  15
ENDBRANCH   4  11
ENDBRANCH   1   4
BRANCH   1  18
ATOM     18  C   UNL     1      -4.063   1.366  -1.149  0.00  0.00    +0.144 C 
BRANCH  18  19
ATOM     19  C   UNL     1      -5.375   0.813  -0.654  0.00  0.00    -0.030 A 
ATOM     20  C   UNL     1      -5.524  -0.548  -0.465  0.00  0.00    +0.008 A 
ATOM     21  C   UNL     1      -6.725  -1.055  -0.006  0.00  0.00    +0.038 A 
ATOM     22  C   UNL     1      -7.782  -0.200   0.254  0.00  0.00    +0.123 A 
ATOM     23  C   UNL     1      -7.634   1.163   0.059  0.00  0.00    +0.038 A 
ATOM     24  C   UNL     1      -6.430   1.668  -0.395  0.00  0.00    +0.008 A 
ATOM     25  F   UNL     1      -8.958  -0.695   0.698  0.00  0.00    -0.205 F 
ENDBRANCH  18  19
ENDBRANCH   1  18
BRANCH   2  26
ATOM     26  C   UNL     1      -2.067   2.744   1.810  0.00  0.00    +0.264 C 
BRANCH  26  27
ATOM     27  N   UNL     1      -2.338   3.965   2.574  0.00  0.00    -0.154 N 
ATOM     28  N   UNL     1      -1.863   5.132   2.306  0.00  0.00    -0.130 NA
ATOM     29  C   UNL     1      -2.329   5.974   3.207  0.00  0.00    +0.205 A 
ATOM     30  N   UNL     1      -3.101   5.259   4.037  0.00  0.00    -0.108 NA
ATOM     31  N   UNL     1      -3.084   4.038   3.620  0.00  0.00    -0.045 NA
BRANCH  29  32
ATOM     32  C   UNL     1      -2.048   7.429   3.290  0.00  0.00    +0.023 A 
ATOM     33  C   UNL     1      -1.214   8.034   2.353  0.00  0.00    +0.014 A 
ATOM     34  C   UNL     1      -0.960   9.388   2.430  0.00  0.00    +0.039 A 
ATOM     35  C   UNL     1      -1.523  10.143   3.446  0.00  0.00    +0.123 A 
ATOM     36  C   UNL     1      -2.349   9.545   4.383  0.00  0.00    +0.039 A 
ATOM     37  C   UNL     1      -2.613   8.192   4.310  0.00  0.00    +0.014 A 
ATOM     38  F   UNL     1      -1.267  11.468   3.522  0.00  0.00    -0.205 F 
ENDBRANCH  29  32
ENDBRANCH  26  27
ENDBRANCH   2  26
TORSDOF 9
