REMARK  Name = ZINC39667205
REMARK  7 active torsions:
REMARK  status: ('A' for Active; 'I' for Inactive)
REMARK    1  A    between atoms: C_1  and  C_2
REMARK    2  A    between atoms: C_5  and  C_8
REMARK    3  A    between atoms: C_12  and  C_21
REMARK    4  A    between atoms: N_23  and  C_24
REMARK    5  A    between atoms: C_24  and  C_25
REMARK    6  A    between atoms: C_28  and  S_31
REMARK    7  A    between atoms: S_31  and  C_32
REMARK                            x       y       z     vdW  Elec       q    Type
REMARK                         _______ _______ _______ _____ _____    ______ ____
ROOT
ATOM      1  C   UNL     1       0.057  -4.258  -0.024  0.00  0.00    +0.247 C 
ATOM      2  O   UNL     1      -0.050  -4.864  -1.073  0.00  0.00    -0.270 OA
ATOM      3  N   UNL     1       0.174  -4.934   1.136  0.00  0.00    -0.296 N 
ATOM      4  C   UNL     1       0.186  -4.383   2.511  0.00  0.00    +0.121 C 
ATOM      5  C   UNL     1      -0.633  -5.395   3.344  0.00  0.00    +0.100 C 
ATOM      6  C   UNL     1      -0.539  -6.715   2.560  0.00  0.00    -0.004 C 
ATOM      7  C   UNL     1       0.314  -6.398   1.324  0.00  0.00    +0.115 C 
ATOM      8  C   UNL     1       0.137  -7.787   3.410  0.00  0.00    -0.010 C 
ATOM      9  C   UNL     1       0.167  -9.105   2.631  0.00  0.00    -0.082 C 
ATOM     10  N   UNL     1      -1.204  -9.510   2.298  0.00  0.00    +0.379 N 
ATOM     11  C   UNL     1      -1.816  -8.518   1.405  0.00  0.00    -0.082 C 
ATOM     12  C   UNL     1      -1.929  -7.175   2.132  0.00  0.00    -0.010 C 
ATOM     13  H   UNL     1      -1.187 -10.408   1.839  0.00  0.00    -0.086 HD
ATOM     14  H   UNL     1      -1.749  -9.579   3.145  0.00  0.00    -0.086 HD
ENDROOT
BRANCH   1  19
ATOM     15  C   UNL     1       0.061   1.497  -0.011  0.00  0.00    +0.044 C 
ATOM     16  C   UNL     1       0.060  -0.010  -0.015  0.00  0.00    -0.050 A 
ATOM     17  C   UNL     1      -0.547  -0.696  -1.052  0.00  0.00    +0.004 A 
ATOM     18  C   UNL     1      -0.551  -2.076  -1.061  0.00  0.00    +0.013 A 
ATOM     19  C   UNL     1       0.058  -2.780  -0.021  0.00  0.00    +0.037 A 
ATOM     20  C   UNL     1       0.669  -2.081   1.022  0.00  0.00    +0.013 A 
ATOM     21  C   UNL     1       0.671  -0.702   1.016  0.00  0.00    +0.004 A 
ENDBRANCH   1  19
BRANCH   5  22
ATOM     22  C   UNL     1      -2.068  -4.947   3.451  0.00  0.00    +0.218 C 
ATOM     23  O   UNL     1      -2.595  -4.374   2.522  0.00  0.00    -0.275 OA
ATOM     24  N   UNL     1      -2.765  -5.183   4.580  0.00  0.00    -0.311 N 
ATOM     25  H   UNL     1      -2.343  -5.641   5.324  0.00  0.00    +0.149 HD
BRANCH  24  26
ATOM     26  C   UNL     1      -4.160  -4.747   4.685  0.00  0.00    +0.139 C 
BRANCH  26  27
ATOM     27  C   UNL     1      -4.705  -5.129   6.037  0.00  0.00    -0.030 A 
ATOM     28  C   UNL     1      -5.312  -6.359   6.214  0.00  0.00    +0.006 A 
ATOM     29  C   UNL     1      -5.814  -6.712   7.451  0.00  0.00    +0.015 A 
ATOM     30  C   UNL     1      -5.708  -5.829   8.519  0.00  0.00    +0.008 A 
ATOM     31  C   UNL     1      -5.097  -4.594   8.338  0.00  0.00    +0.015 A 
ATOM     32  C   UNL     1      -4.593  -4.250   7.099  0.00  0.00    +0.006 A 
BRANCH  30  33
ATOM     33  S   UNL     1      -6.347  -6.275  10.100  0.00  0.00    -0.129 S 
ATOM     34  C   UNL     1      -5.981  -4.837  11.142  0.00  0.00    +0.090 C 
ENDBRANCH  30  33
ENDBRANCH  26  27
ENDBRANCH  24  26
ENDBRANCH   5  22
TORSDOF 5
