REMARK  Name = ZINC24757647
REMARK  7 active torsions:
REMARK  status: ('A' for Active; 'I' for Inactive)
REMARK    1  A    between atoms: C_4  and  C_7
REMARK    2  A    between atoms: C_7  and  C_9
REMARK    3  A    between atoms: C_7  and  N_22
REMARK    4  A    between atoms: N_11  and  C_12
REMARK    5  A    between atoms: C_16  and  N_18
REMARK    6  A    between atoms: N_26  and  C_29
REMARK    7  A    between atoms: C_29  and  C_30
REMARK                            x       y       z     vdW  Elec       q    Type
REMARK                         _______ _______ _______ _____ _____    ______ ____
ROOT
ATOM      1  C   UNL     1      -2.282  -2.921  -0.001  0.00  0.00    +0.174 C 
ENDROOT
BRANCH   1   2
ATOM      2  N   UNL     1      -1.897  -4.333   0.121  0.00  0.00    -0.290 NA
ATOM      3  C   UNL     1      -1.165  -4.576   1.383  0.00  0.00    +0.083 C 
ATOM      4  C   UNL     1      -1.357  -6.018   1.779  0.00  0.00    -0.003 C 
ATOM      5  C   UNL     1      -0.235  -6.920   1.240  0.00  0.00    -0.077 C 
ATOM      6  N   UNL     1       0.145  -6.581  -0.150  0.00  0.00    +0.386 N 
ATOM      7  C   UNL     1      -0.980  -6.293  -1.011  0.00  0.00    -0.063 C 
ATOM      8  C   UNL     1      -1.220  -4.770  -1.024  0.00  0.00    +0.067 C 
ATOM      9  H   UNL     1       0.708  -5.637  -0.105  0.00  0.00    -0.081 HD
BRANCH   6  10
ATOM     10  C   UNL     1       0.999  -7.625  -0.732  0.00  0.00    +0.019 C 
BRANCH  10  11
ATOM     11  C   UNL     1       0.225  -8.915  -0.821  0.00  0.00    +0.199 C 
ATOM     12  O   UNL     1      -0.948  -8.941  -0.513  0.00  0.00    -0.278 OA
ATOM     13  N   UNL     1       0.836 -10.040  -1.242  0.00  0.00    -0.303 N 
ATOM     14  C   UNL     1       2.244 -10.149  -1.650  0.00  0.00    +0.108 C 
ATOM     15  C   UNL     1       2.487 -11.613  -2.075  0.00  0.00    +0.020 C 
ATOM     16  C   UNL     1       1.060 -12.111  -2.427  0.00  0.00    +0.020 C 
ATOM     17  C   UNL     1       0.202 -11.364  -1.376  0.00  0.00    +0.108 C 
ENDBRANCH  10  11
ENDBRANCH   6  10
ENDBRANCH   1   2
BRANCH   1  21
ATOM     18  C   UNL     1      -4.628  -2.385  -3.530  0.00  0.00    +0.000 A 
ATOM     19  C   UNL     1      -3.603  -1.504  -3.241  0.00  0.00    +0.000 A 
ATOM     20  C   UNL     1      -2.844  -1.677  -2.099  0.00  0.00    +0.005 A 
ATOM     21  C   UNL     1      -3.110  -2.732  -1.246  0.00  0.00    -0.021 A 
ATOM     22  C   UNL     1      -4.131  -3.616  -1.538  0.00  0.00    +0.005 A 
ATOM     23  C   UNL     1      -4.894  -3.440  -2.677  0.00  0.00    +0.000 A 
ENDBRANCH   1  21
BRANCH   1  24
ATOM     24  C   UNL     1      -3.088  -2.514   1.205  0.00  0.00    +0.239 C 
ATOM     25  O   UNL     1      -3.699  -3.350   1.837  0.00  0.00    -0.273 OA
ATOM     26  N   UNL     1      -3.132  -1.221   1.582  0.00  0.00    -0.284 N 
ATOM     27  H   UNL     1      -2.636  -0.453   0.970  0.00  0.00    +0.155 HD
BRANCH  26  28
ATOM     28  C   UNL     1      -3.807  -0.855   2.752  0.00  0.00    +0.036 A 
ATOM     29  C   UNL     1      -3.320   0.178   3.543  0.00  0.00    +0.025 A 
ATOM     30  C   UNL     1      -3.988   0.537   4.696  0.00  0.00    +0.024 A 
ATOM     31  C   UNL     1      -5.143  -0.131   5.065  0.00  0.00    +0.071 A 
ATOM     32  C   UNL     1      -5.631  -1.160   4.279  0.00  0.00    +0.146 A 
ATOM     33  C   UNL     1      -4.966  -1.523   3.124  0.00  0.00    +0.057 A 
ATOM     34 CL   UNL     1      -5.981   0.324   6.516  0.00  0.00    -0.081 Cl
BRANCH  32  35
ATOM     35  N   UNL     1      -6.866  -1.872   4.677  0.00  0.00    +0.058 N 
ATOM     36  O   UNL     1      -7.296  -2.778   3.986  0.00  0.00    -0.126 OA
ATOM     37  O   UNL     1      -7.452  -1.552   5.695  0.00  0.00    -0.126 OA
ENDBRANCH  32  35
ENDBRANCH  26  28
ENDBRANCH   1  24
TORSDOF 7
