REMARK  Name = ZINC43408851
REMARK  6 active torsions:
REMARK  status: ('A' for Active; 'I' for Inactive)
REMARK    1  A    between atoms: C_1  and  C_2
REMARK    2  A    between atoms: C_2  and  C_4
REMARK    3  A    between atoms: C_2  and  N_10
REMARK    4  A    between atoms: C_4  and  C_5
REMARK    5  A    between atoms: C_12  and  C_20
REMARK    6  A    between atoms: C_20  and  N_22
REMARK                            x       y       z     vdW  Elec       q    Type
REMARK                         _______ _______ _______ _____ _____    ______ ____
ROOT
ATOM      1  N   UNL     1       0.767  -0.321   1.249  0.00  0.00    -0.326 N 
ATOM      2  C   UNL     1       0.062  -0.553   2.416  0.00  0.00    +0.129 A 
ATOM      3  C   UNL     1       0.691  -1.197   3.496  0.00  0.00    +0.043 A 
ATOM      4  C   UNL     1      -0.046  -1.418   4.664  0.00  0.00    +0.019 A 
ATOM      5  C   UNL     1      -1.364  -0.994   4.707  0.00  0.00    -0.025 A 
ATOM      6  C   UNL     1      -1.917  -0.366   3.605  0.00  0.00    +0.047 A 
ATOM      7  N   UNL     1      -1.197  -0.163   2.512  0.00  0.00    -0.236 NA
ATOM      8  C   UNL     1      -3.358  -0.002   3.900  0.00  0.00    +0.056 C 
ATOM      9  C   UNL     1      -3.752  -0.859   5.121  0.00  0.00    +0.011 C 
ATOM     10  C   UNL     1      -2.392  -1.094   5.812  0.00  0.00    +0.037 C 
ATOM     11  H   UNL     1       1.710  -0.542   1.199  0.00  0.00    +0.148 HD
ENDROOT
BRANCH   1  13
ATOM     12  C   UNL     1       0.080   1.785   0.212  0.00  0.00    +0.028 C 
ATOM     13  C   UNL     1       0.089   0.261   0.087  0.00  0.00    +0.073 C 
BRANCH  13  14
ATOM     14  C   UNL     1       0.829  -0.142  -1.190  0.00  0.00    +0.057 C 
BRANCH  14  15
ATOM     15  C   UNL     1       0.733  -1.635  -1.377  0.00  0.00    -0.039 A 
ATOM     16  C   UNL     1       1.687  -2.473  -0.833  0.00  0.00    +0.011 A 
ATOM     17  C   UNL     1       1.571  -3.811  -1.020  0.00  0.00    +0.045 A 
ATOM     18  S   UNL     1       0.076  -3.919  -1.990  0.00  0.00    -0.105 S 
ATOM     19  C   UNL     1      -0.295  -2.175  -2.076  0.00  0.00    +0.049 A 
ENDBRANCH  14  15
ENDBRANCH  13  14
ENDBRANCH   1  13
BRANCH   3  20
ATOM     20  C   UNL     1       2.095  -1.629   3.400  0.00  0.00    +0.080 C 
ATOM     21  S   UNL     1       3.352  -0.571   3.884  0.00  0.00    -0.035 S 
BRANCH  20  22
ATOM     22  N   UNL     1       2.392  -2.857   2.931  0.00  0.00    -0.352 N 
ATOM     23  H   UNL     1       1.680  -3.456   2.657  0.00  0.00    +0.143 HD
ATOM     24  H   UNL     1       3.317  -3.142   2.867  0.00  0.00    +0.143 HD
ENDBRANCH  20  22
ENDBRANCH   3  20
TORSDOF 5
