REMARK  Name = ZINC09388951
REMARK  9 active torsions:
REMARK  status: ('A' for Active; 'I' for Inactive)
REMARK    1  A    between atoms: C_1  and  C_2
REMARK    2  A    between atoms: C_2  and  N_54
REMARK    3  A    between atoms: C_3  and  C_4
REMARK    4  A    between atoms: C_3  and  N_54
REMARK    5  A    between atoms: C_9  and  C_10
REMARK    6  A    between atoms: C_9  and  N_54
REMARK    7  A    between atoms: N_12  and  C_13
REMARK    8  A    between atoms: C_18  and  C_19
REMARK    9  A    between atoms: N_21  and  C_22
REMARK                            x       y       z     vdW  Elec       q    Type
REMARK                         _______ _______ _______ _____ _____    ______ ____
ROOT
ATOM      1  C   UNL     1       7.183  -3.081   4.062  0.00  0.00    +0.046 A 
ATOM      2  C   UNL     1       8.423  -3.148   4.682  0.00  0.00    +0.024 A 
ATOM      3  C   UNL     1       9.223  -2.025   4.752  0.00  0.00    +0.002 A 
ATOM      4  C   UNL     1       8.797  -0.825   4.205  0.00  0.00    +0.001 A 
ATOM      5  C   UNL     1       7.572  -0.741   3.581  0.00  0.00    +0.015 A 
ATOM      6  C   UNL     1       6.749  -1.867   3.507  0.00  0.00    +0.058 A 
ENDROOT
BRANCH   1   9
ATOM      7  C   UNL     1       6.507  -5.194   4.904  0.00  0.00    +0.201 C 
ATOM      8  O   UNL     1       7.255  -5.048   5.847  0.00  0.00    -0.278 OA
ATOM      9  N   UNL     1       6.374  -4.212   3.990  0.00  0.00    -0.286 N 
ATOM     10  H   UNL     1       5.716  -4.294   3.282  0.00  0.00    +0.155 HD
BRANCH   7  11
ATOM     11  C   UNL     1       5.725  -6.474   4.753  0.00  0.00    +0.019 C 
BRANCH  11  12
ATOM     12  N   UNL     1       6.072  -7.378   5.870  0.00  0.00    +0.388 N 
ATOM     13  H   UNL     1       7.093  -7.465   5.924  0.00  0.00    -0.081 HD
BRANCH  12  15
ATOM     14  C   UNL     1       4.040  -6.752   7.130  0.00  0.00    -0.017 C 
ATOM     15  C   UNL     1       5.568  -6.824   7.144  0.00  0.00    -0.081 C 
ENDBRANCH  12  15
BRANCH  12  16
ATOM     16  C   UNL     1       5.489  -8.716   5.635  0.00  0.00    -0.035 C 
BRANCH  16  17
ATOM     17  C   UNL     1       5.943  -9.645   6.732  0.00  0.00    -0.027 A 
ATOM     18  C   UNL     1       5.308  -9.985   7.880  0.00  0.00    +0.009 A 
ATOM     19  C   UNL     1       5.920 -10.869   8.749  0.00  0.00    +0.008 A 
ATOM     20  C   UNL     1       7.142 -11.362   8.431  0.00  0.00    +0.045 A 
ATOM     21  S   UNL     1       7.460 -10.577   6.860  0.00  0.00    -0.103 S 
ENDBRANCH  16  17
ENDBRANCH  12  16
ENDBRANCH  11  12
ENDBRANCH   7  11
ENDBRANCH   1   9
BRANCH   6  22
ATOM     22  C   UNL     1       5.434  -1.783   2.845  0.00  0.00    +0.250 C 
ATOM     23  O   UNL     1       4.681  -2.739   2.863  0.00  0.00    -0.270 OA
ATOM     24  N   UNL     1       5.066  -0.648   2.219  0.00  0.00    -0.281 N 
ATOM     25  H   UNL     1       5.696   0.084   2.132  0.00  0.00    +0.155 HD
BRANCH  24  26
ATOM     26  C   UNL     1       3.773  -0.524   1.695  0.00  0.00    +0.037 A 
ATOM     27  C   UNL     1       3.534   0.336   0.632  0.00  0.00    +0.027 A 
ATOM     28  C   UNL     1       2.259   0.459   0.114  0.00  0.00    +0.051 A 
ATOM     29  C   UNL     1       1.216  -0.276   0.653  0.00  0.00    +0.166 A 
ATOM     30  C   UNL     1       1.452  -1.140   1.720  0.00  0.00    +0.168 A 
ATOM     31  C   UNL     1       2.730  -1.262   2.238  0.00  0.00    +0.072 A 
ATOM     32  O   UNL     1       0.276  -1.741   2.064  0.00  0.00    -0.453 OA
ATOM     33  C   UNL     1      -0.600  -1.546   0.938  0.00  0.00    +0.466 C 
ATOM     34  O   UNL     1      -0.110  -0.336   0.329  0.00  0.00    -0.453 OA
ENDBRANCH  24  26
ENDBRANCH   6  22
TORSDOF 8
