REMARK  Name = ZINC67514401
REMARK  7 active torsions:
REMARK  status: ('A' for Active; 'I' for Inactive)
REMARK    1  A    between atoms: C_1  and  C_2
REMARK    2  A    between atoms: C_7  and  C_8
REMARK    3  A    between atoms: C_8  and  C_10
REMARK    4  A    between atoms: C_8  and  N_25
REMARK    5  A    between atoms: C_10  and  C_11
REMARK    6  A    between atoms: N_13  and  C_14
REMARK    7  A    between atoms: C_17  and  C_19
REMARK                            x       y       z     vdW  Elec       q    Type
REMARK                         _______ _______ _______ _____ _____    ______ ____
ROOT
ATOM      1  C   UNL     1       0.024   0.044   2.503  0.00  0.00    +0.114 C 
ENDROOT
BRANCH   1   8
ATOM      2  C   UNL     1      -2.230  -0.709   0.860  0.00  0.00    +0.044 C 
ATOM      3  C   UNL     1      -0.838  -1.133   0.469  0.00  0.00    -0.045 A 
ATOM      4  C   UNL     1      -0.639  -1.879  -0.678  0.00  0.00    +0.004 A 
ATOM      5  C   UNL     1       0.638  -2.268  -1.036  0.00  0.00    +0.000 A 
ATOM      6  C   UNL     1       1.716  -1.913  -0.247  0.00  0.00    +0.000 A 
ATOM      7  C   UNL     1       1.517  -1.167   0.900  0.00  0.00    +0.006 A 
ATOM      8  C   UNL     1       0.241  -0.774   1.255  0.00  0.00    -0.024 A 
ENDBRANCH   1   8
BRANCH   1   9
ATOM      9  N   UNL     1      -0.537  -0.808   3.554  0.00  0.00    -0.292 N 
ATOM     10  C   UNL     1       0.102  -1.937   3.920  0.00  0.00    +0.298 C 
ATOM     11  O   UNL     1       1.190  -2.201   3.444  0.00  0.00    -0.253 OA
ATOM     12  N   UNL     1      -0.464  -2.773   4.812  0.00  0.00    -0.313 N 
ATOM     13  H   UNL     1      -1.369  -0.560   3.987  0.00  0.00    +0.151 HD
ATOM     14  H   UNL     1      -1.331  -2.563   5.191  0.00  0.00    +0.146 HD
ATOM     15  H   UNL     1      -0.003  -3.586   5.075  0.00  0.00    +0.146 HD
ENDBRANCH   1   9
BRANCH   1  16
ATOM     16  C   UNL     1       1.361   0.620   2.973  0.00  0.00    +0.123 C 
BRANCH  16  17
ATOM     17  C   UNL     1       1.128   1.536   4.147  0.00  0.00    +0.215 C 
ATOM     18  O   UNL     1       0.004   1.711   4.566  0.00  0.00    -0.276 OA
ATOM     19  N   UNL     1       2.170   2.161   4.731  0.00  0.00    -0.312 N 
ATOM     20  H   UNL     1       3.069   2.022   4.396  0.00  0.00    +0.149 HD
BRANCH  19  21
ATOM     21  C   UNL     1       1.943   3.052   5.872  0.00  0.00    +0.081 C 
ATOM     22  C   UNL     1       2.690   4.387   5.886  0.00  0.00    +0.033 C 
ATOM     23  C   UNL     1       3.107   3.267   6.842  0.00  0.00    +0.041 C 
BRANCH  23  24
ATOM     24  C   UNL     1       4.398   2.547   6.551  0.00  0.00    -0.042 A 
ATOM     25  C   UNL     1       5.069   2.784   5.366  0.00  0.00    +0.004 A 
ATOM     26  C   UNL     1       6.253   2.123   5.098  0.00  0.00    +0.000 A 
ATOM     27  C   UNL     1       6.767   1.226   6.016  0.00  0.00    +0.000 A 
ATOM     28  C   UNL     1       6.096   0.989   7.201  0.00  0.00    +0.000 A 
ATOM     29  C   UNL     1       4.914   1.653   7.471  0.00  0.00    +0.004 A 
ENDBRANCH  23  24
ENDBRANCH  19  21
ENDBRANCH  16  17
ENDBRANCH   1  16
TORSDOF 6
