REMARK  Name = ZINC23740824
REMARK  10 active torsions:
REMARK  status: ('A' for Active; 'I' for Inactive)
REMARK    1  A    between atoms: C_1  and  C_2
REMARK    2  A    between atoms: C_2  and  C_3
REMARK    3  A    between atoms: C_2  and  C_4
REMARK    4  A    between atoms: N_11  and  N_12
REMARK    5  A    between atoms: C_13  and  C_15
REMARK    6  A    between atoms: C_15  and  C_16
REMARK    7  A    between atoms: C_16  and  C_17
REMARK    8  A    between atoms: C_20  and  S_23
REMARK    9  A    between atoms: S_23  and  N_26
REMARK   10  A    between atoms: C_32  and  O_34
REMARK                            x       y       z     vdW  Elec       q    Type
REMARK                         _______ _______ _______ _____ _____    ______ ____
ROOT
ATOM      1  N   UNL     1       6.033  -2.007  -2.679  0.00  0.00    -0.206 N 
ATOM      2  C   UNL     1       5.457  -1.684  -1.504  0.00  0.00    +0.233 C 
ATOM      3  O   UNL     1       5.996  -1.986  -0.461  0.00  0.00    -0.274 OA
ATOM      4  H   UNL     1       5.544  -1.733  -3.625  0.00  0.00    +0.177 HD
ENDROOT
BRANCH   1  12
ATOM      5  C   UNL     1      11.072  -4.824  -3.750  0.00  0.00    -0.044 A 
ATOM      6  C   UNL     1      11.227  -4.910  -5.125  0.00  0.00    +0.006 A 
ATOM      7  C   UNL     1      10.282  -4.381  -5.976  0.00  0.00    +0.029 A 
ATOM      8  C   UNL     1       9.148  -3.748  -5.457  0.00  0.00    +0.077 A 
ATOM      9  C   UNL     1       9.002  -3.660  -4.058  0.00  0.00    +0.033 A 
ATOM     10  C   UNL     1       9.960  -4.202  -3.214  0.00  0.00    +0.016 A 
ATOM     11  C   UNL     1       7.721  -2.951  -3.837  0.00  0.00    +0.152 C 
ATOM     12  N   UNL     1       7.159  -2.636  -2.693  0.00  0.00    -0.174 NA
ATOM     13  C   UNL     1       7.223  -2.672  -5.199  0.00  0.00    +0.241 C 
ATOM     14  N   UNL     1       8.084  -3.153  -6.057  0.00  0.00    -0.211 NA
BRANCH   5  16
ATOM     15  C   UNL     1      12.245  -6.910  -3.103  0.00  0.00    +0.012 C 
ATOM     16  C   UNL     1      12.118  -5.409  -2.837  0.00  0.00    +0.013 C 
ATOM     17  C   UNL     1      13.463  -4.729  -3.102  0.00  0.00    +0.012 C 
ENDBRANCH   5  16
BRANCH  13  18
ATOM     18  O   UNL     1       6.072  -2.027  -5.506  0.00  0.00    -0.491 OA
ATOM     19  H   UNL     1       5.793  -1.871  -6.559  0.00  0.00    +0.294 HD
ENDBRANCH  13  18
ENDBRANCH   1  12
BRANCH   2  20
ATOM     20  C   UNL     1       4.142  -0.948  -1.487  0.00  0.00    +0.102 C 
BRANCH  20  21
ATOM     21  C   UNL     1       3.711  -0.707  -0.039  0.00  0.00    +0.044 C 
BRANCH  21  22
ATOM     22  C   UNL     1       2.396   0.029  -0.022  0.00  0.00    -0.047 A 
ATOM     23  C   UNL     1       1.208  -0.679  -0.014  0.00  0.00    +0.005 A 
ATOM     24  C   UNL     1       0.002  -0.004   0.002  0.00  0.00    +0.029 A 
ATOM     25  C   UNL     1      -0.017   1.378   0.010  0.00  0.00    +0.105 A 
ATOM     26  C   UNL     1       1.171   2.086   0.002  0.00  0.00    +0.029 A 
ATOM     27  C   UNL     1       2.377   1.411  -0.014  0.00  0.00    +0.005 A 
BRANCH  25  28
ATOM     28  S   UNL     1      -1.554   2.238   0.022  0.00  0.00    +0.061 S 
ATOM     29  O   UNL     1      -1.304   3.526  -0.523  0.00  0.00    -0.153 OA
ATOM     30  O   UNL     1      -2.519   1.353  -0.529  0.00  0.00    -0.153 OA
BRANCH  28  31
ATOM     31  N   UNL     1      -1.974   2.469   1.607  0.00  0.00    -0.172 NA
ATOM     32  C   UNL     1      -2.787   1.476   2.327  0.00  0.00    +0.137 C 
ATOM     33  C   UNL     1      -2.079   1.146   3.651  0.00  0.00    +0.177 C 
ATOM     34  O   UNL     1      -1.798   2.363   4.348  0.00  0.00    -0.377 OA
ATOM     35  C   UNL     1      -0.907   3.241   3.657  0.00  0.00    +0.177 C 
ATOM     36  C   UNL     1      -1.550   3.675   2.335  0.00  0.00    +0.137 C 
ENDBRANCH  28  31
ENDBRANCH  25  28
ENDBRANCH  21  22
ENDBRANCH  20  21
ENDBRANCH   2  20
TORSDOF 8
