REMARK  Name = ZINC16618203
REMARK  6 active torsions:
REMARK  status: ('A' for Active; 'I' for Inactive)
REMARK    1  A    between atoms: C_6  and  N_7
REMARK    2  A    between atoms: C_10  and  C_15
REMARK    3  A    between atoms: C_15  and  S_16
REMARK    4  A    between atoms: S_16  and  C_17
REMARK    5  A    between atoms: C_20  and  C_23
REMARK    6  A    between atoms: N_21  and  N_22
REMARK                            x       y       z     vdW  Elec       q    Type
REMARK                         _______ _______ _______ _____ _____    ______ ____
ROOT
ATOM      1  N   UNL     1       0.508   8.399  -2.306  0.00  0.00    -0.284 N 
ATOM      2  C   UNL     1       0.612   7.703  -1.118  0.00  0.00    +0.224 A 
ATOM      3  N   UNL     1       0.456   6.381  -1.103  0.00  0.00    -0.198 NA
ATOM      4  C   UNL     1       0.556   5.715   0.033  0.00  0.00    +0.146 A 
ATOM      5  N   UNL     1       0.806   6.358   1.161  0.00  0.00    -0.199 NA
ATOM      6  C   UNL     1       0.970   7.678   1.153  0.00  0.00    +0.217 A 
ATOM      7  N   UNL     1       0.870   8.352   0.013  0.00  0.00    -0.181 NA
ATOM      8  N   UNL     1       1.238   8.348   2.330  0.00  0.00    -0.327 N 
ATOM      9  H   UNL     1       0.400   7.918  -3.142  0.00  0.00    +0.155 HD
ATOM     10  H   UNL     1       1.353   9.311   2.325  0.00  0.00    +0.145 HD
ATOM     11  H   UNL     1       1.310   7.856   3.163  0.00  0.00    +0.145 HD
ENDROOT
BRANCH   1  17
ATOM     12  C   UNL     1       0.034  10.511  -1.235  0.00  0.00    +0.026 A 
ATOM     13  C   UNL     1       0.090  11.891  -1.233  0.00  0.00    +0.040 A 
ATOM     14  C   UNL     1       0.657  12.564  -2.303  0.00  0.00    +0.124 A 
ATOM     15  C   UNL     1       1.175  11.854  -3.373  0.00  0.00    +0.040 A 
ATOM     16  C   UNL     1       1.127  10.474  -3.376  0.00  0.00    +0.026 A 
ATOM     17  C   UNL     1       0.558   9.798  -2.305  0.00  0.00    +0.034 A 
ATOM     18  F   UNL     1       0.706  13.914  -2.301  0.00  0.00    -0.205 F 
ENDBRANCH   1  17
BRANCH   4  19
ATOM     19  C   UNL     1       0.377   4.218   0.045  0.00  0.00    +0.153 C 
BRANCH  19  20
ATOM     20  S   UNL     1       1.980   3.418  -0.216  0.00  0.00    -0.077 S 
BRANCH  20  21
ATOM     21  C   UNL     1       1.490   1.726  -0.157  0.00  0.00    +0.209 A 
ATOM     22  N   UNL     1       0.272   1.272   0.029  0.00  0.00    -0.121 NA
ATOM     23  N   UNL     1       0.278  -0.013   0.014  0.00  0.00    -0.123 NA
ATOM     24  C   UNL     1       1.489  -0.452  -0.181  0.00  0.00    +0.255 A 
ATOM     25  N   UNL     1       2.304   0.640  -0.297  0.00  0.00    -0.220 N 
BRANCH  24  26
ATOM     26  C   UNL     1       1.913  -1.896  -0.264  0.00  0.00    +0.454 C 
ATOM     27  F   UNL     1       0.784  -2.704  -0.441  0.00  0.00    -0.163 F 
ATOM     28  F   UNL     1       2.782  -2.065  -1.347  0.00  0.00    -0.163 F 
ATOM     29  F   UNL     1       2.565  -2.259   0.919  0.00  0.00    -0.163 F 
ENDBRANCH  24  26
BRANCH  25  30
ATOM     30  N   UNL     1       3.654   0.642  -0.509  0.00  0.00    -0.295 N 
ATOM     31  H   UNL     1       3.865   0.653  -1.495  0.00  0.00    +0.163 HD
ATOM     32  H   UNL     1       4.092   1.419  -0.036  0.00  0.00    +0.163 HD
ENDBRANCH  25  30
ENDBRANCH  20  21
ENDBRANCH  19  20
ENDBRANCH   4  19
TORSDOF 6
