REMARK  Name = ZINC23970565
REMARK  9 active torsions:
REMARK  status: ('A' for Active; 'I' for Inactive)
REMARK    1  A    between atoms: C_4  and  C_7
REMARK    2  A    between atoms: C_7  and  N_8
REMARK    3  A    between atoms: C_9  and  C_28
REMARK    4  A    between atoms: C_12  and  S_13
REMARK    5  A    between atoms: S_13  and  C_14
REMARK    6  A    between atoms: C_14  and  C_15
REMARK    7  A    between atoms: N_17  and  C_18
REMARK    8  A    between atoms: N_22  and  C_23
REMARK    9  A    between atoms: C_28  and  N_29
REMARK                            x       y       z     vdW  Elec       q    Type
REMARK                         _______ _______ _______ _____ _____    ______ ____
ROOT
ATOM      1  N   UNL     1       4.296  -0.899   1.473  0.00  0.00    -0.303 N 
ATOM      2  C   UNL     1       4.989   0.083   2.127  0.00  0.00    +0.118 A 
ATOM      3  N   UNL     1       5.243  -0.355   3.327  0.00  0.00    -0.135 NA
ATOM      4  N   UNL     1       4.763  -1.538   3.477  0.00  0.00    -0.123 NA
ATOM      5  C   UNL     1       4.166  -1.920   2.371  0.00  0.00    +0.192 A 
ENDROOT
BRANCH   1   6
ATOM      6  C   UNL     1       3.793  -0.862   0.098  0.00  0.00    +0.160 C 
BRANCH   6  10
ATOM      7  C   UNL     1      -0.245   0.530   0.094  0.00  0.00    +0.000 A 
ATOM      8  C   UNL     1       0.796   1.430  -0.038  0.00  0.00    +0.000 A 
ATOM      9  C   UNL     1       2.103   0.979  -0.036  0.00  0.00    +0.005 A 
ATOM     10  C   UNL     1       2.369  -0.371   0.097  0.00  0.00    -0.028 A 
ATOM     11  C   UNL     1       1.327  -1.270   0.230  0.00  0.00    +0.005 A 
ATOM     12  C   UNL     1       0.020  -0.820   0.227  0.00  0.00    +0.000 A 
ENDBRANCH   6  10
ENDBRANCH   1   6
BRANCH   5  13
ATOM     13  S   UNL     1       3.354  -3.459   2.097  0.00  0.00    -0.077 S 
BRANCH  13  14
ATOM     14  C   UNL     1       3.543  -4.341   3.671  0.00  0.00    +0.173 C 
BRANCH  14  15
ATOM     15  C   UNL     1       2.884  -5.693   3.572  0.00  0.00    +0.229 C 
ATOM     16  O   UNL     1       2.340  -6.028   2.541  0.00  0.00    -0.275 OA
ATOM     17  N   UNL     1       2.899  -6.529   4.629  0.00  0.00    -0.270 N 
ATOM     18  H   UNL     1       3.334  -6.261   5.453  0.00  0.00    +0.156 HD
BRANCH  17  19
ATOM     19  C   UNL     1       2.289  -7.780   4.537  0.00  0.00    +0.123 A 
ATOM     20  C   UNL     1       1.651  -8.285   3.446  0.00  0.00    +0.065 A 
ATOM     21  C   UNL     1       1.186  -9.562   3.775  0.00  0.00    +0.136 A 
ATOM     22  N   UNL     1       1.528  -9.818   5.012  0.00  0.00    -0.178 NA
ATOM     23  N   UNL     1       2.228  -8.713   5.514  0.00  0.00    -0.247 N 
BRANCH  23  24
ATOM     24  C   UNL     1       2.793  -8.590   6.860  0.00  0.00    +0.109 C 
ATOM     25  C   UNL     1       3.780  -9.745   7.127  0.00  0.00    +0.027 C 
ATOM     26  C   UNL     1       3.557 -10.098   8.619  0.00  0.00    +0.002 C 
ATOM     27  C   UNL     1       2.025  -9.938   8.783  0.00  0.00    +0.002 C 
ATOM     28  C   UNL     1       1.678  -8.713   7.913  0.00  0.00    +0.027 C 
ENDBRANCH  23  24
ENDBRANCH  17  19
ENDBRANCH  14  15
ENDBRANCH  13  14
ENDBRANCH   5  13
BRANCH   2  29
ATOM     29  C   UNL     1       5.384   1.423   1.562  0.00  0.00    -0.001 C 
BRANCH  29  30
ATOM     30  N   UNL     1       6.643   1.288   0.818  0.00  0.00    +0.384 N 
ATOM     31  C   UNL     1       7.724   0.939   1.747  0.00  0.00    -0.078 C 
ATOM     32  C   UNL     1       9.022   0.718   0.967  0.00  0.00    -0.019 C 
ATOM     33  C   UNL     1       9.386   2.004   0.218  0.00  0.00    -0.004 C 
ATOM     34  C   UNL     1       8.220   2.400  -0.693  0.00  0.00    -0.019 C 
ATOM     35  C   UNL     1       6.953   2.558   0.149  0.00  0.00    -0.078 C 
ATOM     36  H   UNL     1       6.548   0.560   0.127  0.00  0.00    -0.081 HD
ENDBRANCH  29  30
ENDBRANCH   2  29
TORSDOF 9
