REMARK  Name = ZINC13057622
REMARK  11 active torsions:
REMARK  status: ('A' for Active; 'I' for Inactive)
REMARK    1  A    between atoms: C_1  and  O_2
REMARK    2  A    between atoms: O_2  and  C_3
REMARK    3  A    between atoms: C_8  and  C_9
REMARK    4  A    between atoms: C_12  and  S_20
REMARK    5  A    between atoms: N_13  and  C_14
REMARK    6  A    between atoms: S_20  and  C_21
REMARK    7  A    between atoms: C_21  and  C_22
REMARK    8  A    between atoms: C_22  and  C_24
REMARK    9  A    between atoms: C_24  and  C_34
REMARK   10  A    between atoms: C_34  and  O_36
REMARK   11  A    between atoms: O_36  and  C_37
REMARK                            x       y       z     vdW  Elec       q    Type
REMARK                         _______ _______ _______ _____ _____    ______ ____
ROOT
ATOM      1  S   UNL     1      -0.278   3.791   2.393  0.00  0.00    -0.078 S 
ENDROOT
BRANCH   1   5
ATOM      2  C   UNL     1       1.696   4.332  -0.939  0.00  0.00    +0.173 A 
ATOM      3  N   UNL     1       1.501   5.559  -0.514  0.00  0.00    -0.128 NA
ATOM      4  N   UNL     1       0.853   5.543   0.595  0.00  0.00    -0.122 NA
ATOM      5  C   UNL     1       0.589   4.305   0.947  0.00  0.00    +0.197 A 
ATOM      6  N   UNL     1       1.113   3.489  -0.019  0.00  0.00    -0.270 N 
BRANCH   2  12
ATOM      7  C   UNL     1       3.645   4.501  -2.487  0.00  0.00    +0.131 A 
ATOM      8  C   UNL     1       4.305   4.115  -3.643  0.00  0.00    +0.046 A 
ATOM      9  C   UNL     1       3.735   3.179  -4.486  0.00  0.00    +0.004 A 
ATOM     10  C   UNL     1       2.507   2.618  -4.180  0.00  0.00    +0.001 A 
ATOM     11  C   UNL     1       1.841   2.988  -3.031  0.00  0.00    +0.015 A 
ATOM     12  C   UNL     1       2.405   3.932  -2.172  0.00  0.00    +0.061 A 
BRANCH   7  14
ATOM     13  C   UNL     1       5.468   5.962  -2.048  0.00  0.00    +0.277 C 
ATOM     14  O   UNL     1       4.201   5.425  -1.661  0.00  0.00    -0.494 OA
ENDBRANCH   7  14
ENDBRANCH   2  12
BRANCH   6  15
ATOM     15  C   UNL     1       1.070   2.088  -0.060  0.00  0.00    +0.051 A 
ATOM     16  C   UNL     1      -0.143   1.434  -0.228  0.00  0.00    +0.026 A 
ATOM     17  C   UNL     1      -0.183   0.054  -0.269  0.00  0.00    +0.002 A 
ATOM     18  C   UNL     1       0.985  -0.676  -0.143  0.00  0.00    +0.000 A 
ATOM     19  C   UNL     1       2.194  -0.028   0.025  0.00  0.00    +0.002 A 
ATOM     20  C   UNL     1       2.240   1.352   0.066  0.00  0.00    +0.026 A 
ENDBRANCH   6  15
ENDBRANCH   1   5
BRANCH   1  21
ATOM     21  C   UNL     1      -0.633   5.403   3.135  0.00  0.00    +0.157 C 
BRANCH  21  22
ATOM     22  C   UNL     1      -1.393   5.206   4.422  0.00  0.00    +0.183 C 
ATOM     23  O   UNL     1      -1.667   4.085   4.801  0.00  0.00    -0.291 OA
BRANCH  22  24
ATOM     24  C   UNL     1      -1.784   6.321   5.185  0.00  0.00    +0.138 C 
ATOM     25  C   UNL     1      -2.493   6.138   6.388  0.00  0.00    +0.110 C 
ATOM     26  N   UNL     1      -2.861   4.940   6.908  0.00  0.00    -0.301 N 
ATOM     27  C   UNL     1      -3.538   5.170   8.099  0.00  0.00    +0.054 A 
ATOM     28  C   UNL     1      -4.125   4.330   9.035  0.00  0.00    +0.025 A 
ATOM     29  C   UNL     1      -4.748   4.864  10.145  0.00  0.00    +0.002 A 
ATOM     30  C   UNL     1      -4.789   6.236  10.330  0.00  0.00    +0.002 A 
ATOM     31  C   UNL     1      -4.208   7.081   9.406  0.00  0.00    +0.025 A 
ATOM     32  C   UNL     1      -3.580   6.554   8.286  0.00  0.00    +0.054 A 
ATOM     33  N   UNL     1      -2.922   7.132   7.206  0.00  0.00    -0.301 N 
ATOM     34  H   UNL     1      -2.680   4.071   6.516  0.00  0.00    +0.153 HD
ATOM     35  H   UNL     1      -2.793   8.082   7.062  0.00  0.00    +0.153 HD
BRANCH  24  36
ATOM     36  C   UNL     1      -1.454   7.671   4.730  0.00  0.00    +0.345 C 
ATOM     37  O   UNL     1      -1.792   8.635   5.390  0.00  0.00    -0.245 OA
BRANCH  36  38
ATOM     38  O   UNL     1      -0.774   7.846   3.578  0.00  0.00    -0.464 OA
ATOM     39  C   UNL     1      -0.486   9.192   3.194  0.00  0.00    +0.280 C 
ENDBRANCH  36  38
ENDBRANCH  24  36
ENDBRANCH  22  24
ENDBRANCH  21  22
ENDBRANCH   1  21
TORSDOF 9
