REMARK  Name = ZINC35729131
REMARK  16 active torsions:
REMARK  status: ('A' for Active; 'I' for Inactive)
REMARK    1  A    between atoms: C_1  and  C_2
REMARK    2  A    between atoms: C_2  and  C_3
REMARK    3  A    between atoms: C_3  and  C_5
REMARK    4  A    between atoms: C_3  and  C_6
REMARK    5  A    between atoms: C_6  and  C_8
REMARK    6  A    between atoms: C_6  and  N_25
REMARK    7  A    between atoms: C_14  and  C_16
REMARK    8  A    between atoms: C_19  and  N_22
REMARK    9  A    between atoms: N_22  and  C_23
REMARK   10  A    between atoms: N_22  and  C_24
REMARK   11  A    between atoms: N_25  and  S_26
REMARK   12  A    between atoms: S_26  and  C_29
REMARK   13  A    between atoms: C_32  and  C_35
REMARK   14  A    between atoms: C_35  and  C_36
REMARK   15  A    between atoms: C_35  and  C_37
REMARK   16  A    between atoms: C_35  and  C_38
REMARK                            x       y       z     vdW  Elec       q    Type
REMARK                         _______ _______ _______ _____ _____    ______ ____
ROOT
ATOM      1  C   UNL     1       0.810  -2.088   1.141  0.00  0.00    +0.165 C 
ENDROOT
BRANCH   1   2
ATOM      2  C   UNL     1       1.876  -2.429   0.132  0.00  0.00    +0.238 C 
ATOM      3  O   UNL     1       1.624  -3.181  -0.785  0.00  0.00    -0.274 OA
ATOM      4  N   UNL     1       3.109  -1.897   0.248  0.00  0.00    -0.262 N 
ATOM      5  C   UNL     1       4.092  -2.211  -0.683  0.00  0.00    +0.188 A 
ATOM      6  N   UNL     1       4.034  -2.994  -1.752  0.00  0.00    -0.125 NA
ATOM      7  N   UNL     1       5.032  -3.174  -2.502  0.00  0.00    -0.140 NA
ATOM      8  C   UNL     1       6.200  -2.588  -2.266  0.00  0.00    +0.134 A 
ATOM      9  S   UNL     1       5.794  -1.666  -0.786  0.00  0.00    -0.030 S 
ATOM     10  H   UNL     1       3.310  -1.294   0.982  0.00  0.00    +0.157 HD
BRANCH   8  11
ATOM     11  C   UNL     1       7.472  -2.670  -3.015  0.00  0.00    +0.009 A 
ATOM     12  C   UNL     1       8.591  -1.962  -2.573  0.00  0.00    +0.012 A 
ATOM     13  C   UNL     1       9.775  -2.041  -3.273  0.00  0.00    +0.024 A 
ATOM     14  C   UNL     1       9.856  -2.823  -4.420  0.00  0.00    +0.029 A 
ATOM     15  C   UNL     1       8.743  -3.529  -4.863  0.00  0.00    +0.024 A 
ATOM     16  C   UNL     1       7.558  -3.460  -4.163  0.00  0.00    +0.012 A 
BRANCH  14  17
ATOM     17  N   UNL     1      11.056  -2.900  -5.128  0.00  0.00    -0.336 N 
ATOM     18  C   UNL     1      12.193  -2.062  -4.736  0.00  0.00    +0.129 C 
ATOM     19  C   UNL     1      11.180  -3.818  -6.263  0.00  0.00    +0.129 C 
ENDBRANCH  14  17
ENDBRANCH   8  11
ENDBRANCH   1   2
BRANCH   1  20
ATOM     20  C   UNL     1       0.563  -0.578   1.133  0.00  0.00    +0.013 C 
ATOM     21  C   UNL     1      -0.511  -0.231   2.166  0.00  0.00    +0.009 C 
BRANCH  20  23
ATOM     22  C   UNL     1      -0.034   1.378  -0.302  0.00  0.00    +0.004 C 
ATOM     23  C   UNL     1       0.093  -0.146  -0.258  0.00  0.00    +0.002 C 
ENDBRANCH  20  23
ENDBRANCH   1  20
BRANCH   1  24
ATOM     24  N   UNL     1      -0.430  -2.787   0.796  0.00  0.00    -0.178 NA
ATOM     25  H   UNL     1      -1.034  -2.408   0.138  0.00  0.00    +0.149 HD
BRANCH  24  26
ATOM     26  S   UNL     1      -0.802  -4.225   1.530  0.00  0.00    +0.059 S 
ATOM     27  O   UNL     1      -2.069  -4.623   1.025  0.00  0.00    -0.153 OA
ATOM     28  O   UNL     1       0.353  -5.046   1.421  0.00  0.00    -0.153 OA
BRANCH  26  29
ATOM     29  C   UNL     1      -1.024  -3.892   3.245  0.00  0.00    +0.105 A 
ATOM     30  C   UNL     1       0.069  -3.868   4.092  0.00  0.00    +0.029 A 
ATOM     31  C   UNL     1      -0.106  -3.607   5.438  0.00  0.00    +0.006 A 
ATOM     32  C   UNL     1      -1.373  -3.370   5.938  0.00  0.00    -0.042 A 
ATOM     33  C   UNL     1      -2.465  -3.394   5.091  0.00  0.00    +0.006 A 
ATOM     34  C   UNL     1      -2.290  -3.650   3.744  0.00  0.00    +0.029 A 
BRANCH  32  35
ATOM     35  C   UNL     1      -1.563  -3.087   7.406  0.00  0.00    -0.013 C 
ATOM     36  C   UNL     1      -0.774  -1.833   7.790  0.00  0.00    +0.015 C 
ATOM     37  C   UNL     1      -3.049  -2.862   7.694  0.00  0.00    +0.015 C 
ATOM     38  C   UNL     1      -1.059  -4.277   8.225  0.00  0.00    +0.015 C 
ENDBRANCH  32  35
ENDBRANCH  26  29
ENDBRANCH  24  26
ENDBRANCH   1  24
TORSDOF 9
